2fd0_lig
 OpenBabel11021811433D
libRbt.so/2013.1/901 2013/11/27
 52 56  0  0  0  0  0  0  0  0999 V2000
    5.1652  -49.2037   14.6232 C   0  0  2  0  0  0  0  0  0  0  0  0
    5.7776  -47.9226   14.8249 O   0  0  0  0  0  0  0  0  0  0  0  0
    8.0931  -44.9713   12.6294 C   0  0  2  0  0  0  0  0  0  0  0  0
    9.1246  -44.3565   11.7780 N   0  0  0  0  0  0  0  0  0  0  0  0
    4.2251  -47.4319   11.2970 C   0  0  1  0  0  0  0  0  0  0  0  0
    1.6717  -49.4656    8.5454 C   0  0  1  0  0  0  0  0  0  0  0  0
   -2.4423  -50.9948    5.6600 C   0  0  1  0  0  0  0  0  0  0  0  0
    4.0166  -49.3811   15.6820 C   0  0  2  0  0  0  0  0  0  0  0  0
    3.0344  -48.3089   15.6016 N   0  0  0  0  0  0  0  0  0  0  0  0
    8.7686  -45.7301   13.8545 C   0  0  0  0  0  0  0  0  0  0  0  0
    3.8579  -48.7011   10.5501 C   0  0  2  0  0  0  0  0  0  0  0  0
    4.3413  -48.6926    9.1773 O   0  0  0  0  0  0  0  0  0  0  0  0
    0.9490  -48.8410    7.2620 C   0  0  2  0  0  0  0  0  0  0  0  0
   -0.3818  -48.2860    7.6311 N   0  0  0  0  0  0  0  0  0  0  0  0
   -3.4575  -50.2314    6.5400 C   0  0  1  0  0  0  0  0  0  0  0  0
   -3.1081  -48.8251    6.5522 O   0  0  0  0  0  0  0  0  0  0  0  0
    4.6203  -49.4981   17.1306 C   0  0  0  0  0  0  0  0  0  0  0  0
    7.6431  -46.3893   14.7862 C   0  0  2  0  0  0  0  0  0  0  0  0
    8.2417  -47.0999   15.9258 N   0  0  0  0  0  0  0  0  0  0  0  0
    2.3507  -48.7754   10.7266 C   0  0  2  0  0  0  0  0  0  0  0  0
    1.6790  -48.4766    9.5332 O   0  0  0  0  0  0  0  0  0  0  0  0
    0.9346  -49.9796    6.1155 C   0  0  1  0  0  0  0  0  0  0  0  0
    2.2939  -50.3884    5.8786 O   0  0  0  0  0  0  0  0  0  0  0  0
   -4.9600  -50.3517    6.1669 C   0  0  1  0  0  0  0  0  0  0  0  0
   -5.2903  -49.2543    5.3062 O   0  0  0  0  0  0  0  0  0  0  0  0
    5.6550  -50.6703   17.1442 C   0  0  2  0  0  0  0  0  0  0  0  0
    6.2124  -50.8213   18.4460 O   0  0  0  0  0  0  0  0  0  0  0  0
    6.7870  -47.3686   13.9355 C   0  0  2  0  0  0  0  0  0  0  0  0
    1.9142  -47.6774   11.7257 C   0  0  2  0  0  0  0  0  0  0  0  0
    3.1577  -47.1744   12.1927 O   0  0  0  0  0  0  0  0  0  0  0  0
    0.1334  -51.3016    6.5896 C   0  0  2  0  0  0  0  0  0  0  0  0
   -1.2181  -50.8496    6.7970 O   0  0  0  0  0  0  0  0  0  0  0  0
   -5.3865  -51.6693    5.4793 C   0  0  2  0  0  0  0  0  0  0  0  0
   -6.6566  -52.0250    6.0681 O   0  0  0  0  0  0  0  0  0  0  0  0
    6.7839  -50.3759   16.1152 C   0  0  2  0  0  0  0  0  0  0  0  0
    6.1660  -50.2429   14.7773 O   0  0  0  0  0  0  0  0  0  0  0  0
    6.1487  -46.6851   12.6879 C   0  0  2  0  0  0  0  0  0  0  0  0
    5.4198  -47.7019   11.9593 O   0  0  0  0  0  0  0  0  0  0  0  0
    1.1173  -48.1751   12.9264 C   0  0  0  0  0  0  0  0  0  0  0  0
   -0.0483  -48.8373   12.4126 O   0  0  0  0  0  0  0  0  0  0  0  0
    0.7276  -51.6804    7.9330 C   0  0  1  0  0  0  0  0  0  0  0  0
    0.9716  -50.7548    9.0127 O   0  0  0  0  0  0  0  0  0  0  0  0
   -4.3154  -52.7444    5.6425 C   0  0  2  0  0  0  0  0  0  0  0  0
   -2.9742  -52.3308    5.2612 O   0  0  0  0  0  0  0  0  0  0  0  0
    7.7906  -51.4803   16.0536 C   0  0  0  0  0  0  0  0  0  0  0  0
    7.1679  -52.6043   15.4928 O   0  0  0  0  0  0  0  0  0  0  0  0
    7.2685  -46.0334   11.7968 C   0  0  1  0  0  0  0  0  0  0  0  0
    6.6270  -45.3560   10.6614 O   0  0  0  0  0  0  0  0  0  0  0  0
    0.0386  -52.9318    8.5839 C   0  0  0  0  0  0  0  0  0  0  0  0
    0.5886  -53.2887    9.9141 N   0  0  0  0  0  0  0  0  0  0  0  0
   -4.4761  -54.1424    5.0496 C   0  0  0  0  0  0  0  0  0  0  0  0
   -5.7467  -54.7293    5.4687 O   0  0  0  0  0  0  0  0  0  0  0  0
  1  2  1  1  0  0  0
  1  8  1  0  0  0  0
  1 36  1  0  0  0  0
  3  4  1  6  0  0  0
  3 10  1  0  0  0  0
  3 47  1  0  0  0  0
  5 11  1  0  0  0  0
  5 30  1  0  0  0  0
  5 38  1  1  0  0  0
  6 21  1  1  0  0  0
  6 42  1  0  0  0  0
  7 15  1  0  0  0  0
  7 44  1  0  0  0  0
  7 32  1  1  0  0  0
  8  9  1  1  0  0  0
  8 17  1  0  0  0  0
 11 12  1  6  0  0  0
 11 20  1  0  0  0  0
 13  6  1  0  0  0  0
 13 14  1  1  0  0  0
 15 16  1  6  0  0  0
 15 24  1  0  0  0  0
 17 26  1  0  0  0  0
 18 10  1  0  0  0  0
 18 19  1  1  0  0  0
 20 21  1  6  0  0  0
 20 29  1  0  0  0  0
 22 13  1  0  0  0  0
 22 23  1  1  0  0  0
 24 25  1  6  0  0  0
 24 33  1  0  0  0  0
 26 27  1  1  0  0  0
 26 35  1  0  0  0  0
 28  2  1  1  0  0  0
 28 18  1  0  0  0  0
 29 30  1  0  0  0  0
 29 39  1  1  0  0  0
 31 22  1  0  0  0  0
 31 32  1  1  0  0  0
 31 41  1  0  0  0  0
 33 34  1  1  0  0  0
 33 43  1  0  0  0  0
 35 36  1  0  0  0  0
 35 45  1  6  0  0  0
 37 28  1  0  0  0  0
 37 38  1  6  0  0  0
 39 40  1  0  0  0  0
 41 42  1  0  0  0  0
 41 49  1  1  0  0  0
 43 44  1  0  0  0  0
 43 51  1  6  0  0  0
 45 46  1  0  0  0  0
 47 37  1  0  0  0  0
 47 48  1  6  0  0  0
 49 50  1  0  0  0  0
 51 52  1  0  0  0  0
M  END
>  <CHROM.1>
-173.48924358,174.38713378,-175.74840112,-175.98230631,75.45776127,-153.68455448
-58.39693806,96.68103512,68.29817657,144.49476728,-178.47656784,-52.79464874
2.20521498,-49.47361141,10.62741593,0.34032239,0.67466137,2.25167382

>  <Name>
2fd0_lig

>  <RI>
2.89522e+07

>  <Rbt.Current_Directory>
/home/itssahil/PROJECTS/Mol_Feturizer/New_Systems/rnas/2fd0

>  <Rbt.Executable>
rbdock ($Id: //depot/dev/client3/rdock/2013.1/src/exe/rbdock.cxx#4 $)

>  <Rbt.Library>
libRbt.so (2013.1, Build901 2013/11/27)

>  <Rbt.Parameter_File>
/export/apps/rDock/src/rDock_2013.1_src/data/scripts/dock_solv.prm

>  <Rbt.Receptor>
prm/pocket_docking_2.prm

>  <SCORE>
-16.8741

>  <SCORE.INTER>
-12.3398

>  <SCORE.INTER.CONST>
1

>  <SCORE.INTER.POLAR>
-0.938083

>  <SCORE.INTER.ROT>
12

>  <SCORE.INTER.SOLV>
15.6794

>  <SCORE.INTER.VDW>
-21.926

>  <SCORE.INTER.norm>
-0.237303

>  <SCORE.INTRA>
-4.54497

>  <SCORE.INTRA.DIHEDRAL>
-8.09828

>  <SCORE.INTRA.DIHEDRAL.0>
23.9727

>  <SCORE.INTRA.POLAR>
0

>  <SCORE.INTRA.POLAR.0>
0

>  <SCORE.INTRA.REPUL>
0

>  <SCORE.INTRA.REPUL.0>
0

>  <SCORE.INTRA.SOLV>
-1.2869

>  <SCORE.INTRA.SOLV.lig_0>
-115.028

>  <SCORE.INTRA.VDW>
0.147619

>  <SCORE.INTRA.VDW.0>
-6.82393

>  <SCORE.INTRA.norm>
-0.0874033

>  <SCORE.RESTR>
0.0106224

>  <SCORE.RESTR.CAVITY>
0.0106224

>  <SCORE.RESTR.norm>
0.000204277

>  <SCORE.SYSTEM>
0

>  <SCORE.SYSTEM.CONST>
0

>  <SCORE.SYSTEM.DIHEDRAL>
0

>  <SCORE.SYSTEM.SOLV>
0

>  <SCORE.SYSTEM.norm>
0

>  <SCORE.heavy>
52

>  <SCORE.norm>
-0.324502

>  <RMSD>
0.771

$$$$
2fd0_lig
 OpenBabel11021811433D
libRbt.so/2013.1/901 2013/11/27
 52 56  0  0  0  0  0  0  0  0999 V2000
    5.0274  -49.3952   14.6030 C   0  0  2  0  0  0  0  0  0  0  0  0
    5.5908  -48.0894   14.7885 O   0  0  0  0  0  0  0  0  0  0  0  0
    7.9343  -45.1218   12.6451 C   0  0  2  0  0  0  0  0  0  0  0  0
    8.9794  -44.5000   11.8156 N   0  0  0  0  0  0  0  0  0  0  0  0
    4.1068  -47.6008   11.2313 C   0  0  1  0  0  0  0  0  0  0  0  0
    1.5576  -49.6869    8.5124 C   0  0  1  0  0  0  0  0  0  0  0  0
   -2.5479  -51.2275    5.6695 C   0  0  1  0  0  0  0  0  0  0  0  0
    3.8819  -49.6002   15.6601 C   0  0  2  0  0  0  0  0  0  0  0  0
    2.8608  -48.5667   15.5607 N   0  0  0  0  0  0  0  0  0  0  0  0
    8.5890  -45.8792   13.8823 C   0  0  0  0  0  0  0  0  0  0  0  0
    3.7325  -48.8875   10.5187 C   0  0  2  0  0  0  0  0  0  0  0  0
    4.2327  -48.9270    9.1526 O   0  0  0  0  0  0  0  0  0  0  0  0
    0.8242  -49.1053    7.2150 C   0  0  2  0  0  0  0  0  0  0  0  0
   -0.5055  -48.5421    7.5757 N   0  0  0  0  0  0  0  0  0  0  0  0
   -3.5593  -50.4543    6.5453 C   0  0  1  0  0  0  0  0  0  0  0  0
   -3.1753  -49.0577    6.5889 O   0  0  0  0  0  0  0  0  0  0  0  0
    4.4835  -49.6740   17.1123 C   0  0  0  0  0  0  0  0  0  0  0  0
    7.4485  -46.5460   14.7899 C   0  0  2  0  0  0  0  0  0  0  0  0
    8.0278  -47.2554   15.9402 N   0  0  0  0  0  0  0  0  0  0  0  0
    2.2223  -48.9375   10.6784 C   0  0  2  0  0  0  0  0  0  0  0  0
    1.5692  -48.6669    9.4680 O   0  0  0  0  0  0  0  0  0  0  0  0
    0.8047  -50.2799    6.1055 C   0  0  1  0  0  0  0  0  0  0  0  0
    2.1634  -50.6927    5.8720 O   0  0  0  0  0  0  0  0  0  0  0  0
   -5.0574  -50.5302    6.1443 C   0  0  1  0  0  0  0  0  0  0  0  0
   -5.3451  -49.4099    5.2979 O   0  0  0  0  0  0  0  0  0  0  0  0
    5.5612  -50.8064   17.1465 C   0  0  2  0  0  0  0  0  0  0  0  0
    6.1184  -50.9180   18.4524 O   0  0  0  0  0  0  0  0  0  0  0  0
    6.6150  -47.5284   13.9205 C   0  0  2  0  0  0  0  0  0  0  0  0
    1.7878  -47.8041   11.6381 C   0  0  2  0  0  0  0  0  0  0  0  0
    3.0320  -47.3028   12.1053 O   0  0  0  0  0  0  0  0  0  0  0  0
    0.0104  -51.5881    6.6271 C   0  0  2  0  0  0  0  0  0  0  0  0
   -1.3407  -51.1331    6.8298 O   0  0  0  0  0  0  0  0  0  0  0  0
   -5.5043  -51.8243    5.4259 C   0  0  2  0  0  0  0  0  0  0  0  0
   -6.7931  -52.1583    5.9862 O   0  0  0  0  0  0  0  0  0  0  0  0
    6.6825  -50.4848   16.1175 C   0  0  2  0  0  0  0  0  0  0  0  0
    6.0657  -50.3940   14.7756 O   0  0  0  0  0  0  0  0  0  0  0  0
    5.9984  -46.8461   12.6615 C   0  0  2  0  0  0  0  0  0  0  0  0
    5.2898  -47.8654   11.9166 O   0  0  0  0  0  0  0  0  0  0  0  0
    0.9700  -48.2549   12.8432 C   0  0  0  0  0  0  0  0  0  0  0  0
   -0.1006  -49.0708   12.3438 O   0  0  0  0  0  0  0  0  0  0  0  0
    0.6152  -51.9224    7.9777 C   0  0  1  0  0  0  0  0  0  0  0  0
    0.8643  -50.9623    9.0256 O   0  0  0  0  0  0  0  0  0  0  0  0
   -4.4633  -52.9288    5.5882 C   0  0  2  0  0  0  0  0  0  0  0  0
   -3.1057  -52.5425    5.2375 O   0  0  0  0  0  0  0  0  0  0  0  0
    7.7300  -51.5516   16.0754 C   0  0  0  0  0  0  0  0  0  0  0  0
    7.1642  -52.6923   15.4887 O   0  0  0  0  0  0  0  0  0  0  0  0
    7.1323  -46.1868   11.7942 C   0  0  1  0  0  0  0  0  0  0  0  0
    6.5102  -45.5109   10.6472 O   0  0  0  0  0  0  0  0  0  0  0  0
   -0.0658  -53.1541    8.6731 C   0  0  0  0  0  0  0  0  0  0  0  0
    0.4973  -53.4696   10.0083 N   0  0  0  0  0  0  0  0  0  0  0  0
   -4.6482  -54.3117    4.9676 C   0  0  0  0  0  0  0  0  0  0  0  0
   -5.8393  -54.9584    5.5128 O   0  0  0  0  0  0  0  0  0  0  0  0
  1  2  1  1  0  0  0
  1  8  1  0  0  0  0
  1 36  1  0  0  0  0
  3  4  1  6  0  0  0
  3 10  1  0  0  0  0
  3 47  1  0  0  0  0
  5 11  1  0  0  0  0
  5 30  1  0  0  0  0
  5 38  1  1  0  0  0
  6 21  1  1  0  0  0
  6 42  1  0  0  0  0
  7 15  1  0  0  0  0
  7 44  1  0  0  0  0
  7 32  1  1  0  0  0
  8  9  1  1  0  0  0
  8 17  1  0  0  0  0
 11 12  1  6  0  0  0
 11 20  1  0  0  0  0
 13  6  1  0  0  0  0
 13 14  1  1  0  0  0
 15 16  1  6  0  0  0
 15 24  1  0  0  0  0
 17 26  1  0  0  0  0
 18 10  1  0  0  0  0
 18 19  1  1  0  0  0
 20 21  1  6  0  0  0
 20 29  1  0  0  0  0
 22 13  1  0  0  0  0
 22 23  1  1  0  0  0
 24 25  1  6  0  0  0
 24 33  1  0  0  0  0
 26 27  1  1  0  0  0
 26 35  1  0  0  0  0
 28  2  1  1  0  0  0
 28 18  1  0  0  0  0
 29 30  1  0  0  0  0
 29 39  1  1  0  0  0
 31 22  1  0  0  0  0
 31 32  1  1  0  0  0
 31 41  1  0  0  0  0
 33 34  1  1  0  0  0
 33 43  1  0  0  0  0
 35 36  1  0  0  0  0
 35 45  1  6  0  0  0
 37 28  1  0  0  0  0
 37 38  1  6  0  0  0
 39 40  1  0  0  0  0
 41 42  1  0  0  0  0
 41 49  1  1  0  0  0
 43 44  1  0  0  0  0
 43 51  1  6  0  0  0
 45 46  1  0  0  0  0
 47 37  1  0  0  0  0
 47 48  1  6  0  0  0
 49 50  1  0  0  0  0
 51 52  1  0  0  0  0
M  END
>  <CHROM.1>
-175.61004965,176.56568057,-177.25381934,-174.53636513,75.65456744,-151.12694082
-50.81923756,92.53190517,70.18796673,144.45984169,-178.64789972,-61.43376943
2.08375125,-49.65808709,10.61299079,0.33382319,0.68035459,2.25866277

>  <Name>
2fd0_lig

>  <RI>
2.89522e+07

>  <Rbt.Current_Directory>
/home/itssahil/PROJECTS/Mol_Feturizer/New_Systems/rnas/2fd0

>  <Rbt.Executable>
rbdock ($Id: //depot/dev/client3/rdock/2013.1/src/exe/rbdock.cxx#4 $)

>  <Rbt.Library>
libRbt.so (2013.1, Build901 2013/11/27)

>  <Rbt.Parameter_File>
/export/apps/rDock/src/rDock_2013.1_src/data/scripts/dock_solv.prm

>  <Rbt.Receptor>
prm/pocket_docking_2.prm

>  <SCORE>
-17.3869

>  <SCORE.INTER>
-13.0413

>  <SCORE.INTER.CONST>
1

>  <SCORE.INTER.POLAR>
-0.938083

>  <SCORE.INTER.ROT>
12

>  <SCORE.INTER.SOLV>
16.1982

>  <SCORE.INTER.VDW>
-22.5667

>  <SCORE.INTER.norm>
-0.250795

>  <SCORE.INTRA>
-4.44718

>  <SCORE.INTRA.DIHEDRAL>
-8.30247

>  <SCORE.INTRA.DIHEDRAL.0>
23.9727

>  <SCORE.INTRA.POLAR>
0

>  <SCORE.INTRA.POLAR.0>
0

>  <SCORE.INTRA.REPUL>
0

>  <SCORE.INTRA.REPUL.0>
0

>  <SCORE.INTRA.SOLV>
-1.07389

>  <SCORE.INTRA.SOLV.lig_0>
-115.028

>  <SCORE.INTRA.VDW>
0.241005

>  <SCORE.INTRA.VDW.0>
-6.82393

>  <SCORE.INTRA.norm>
-0.0855227

>  <SCORE.RESTR>
0.101651

>  <SCORE.RESTR.CAVITY>
0.101651

>  <SCORE.RESTR.norm>
0.00195483

>  <SCORE.SYSTEM>
0

>  <SCORE.SYSTEM.CONST>
0

>  <SCORE.SYSTEM.DIHEDRAL>
0

>  <SCORE.SYSTEM.SOLV>
0

>  <SCORE.SYSTEM.norm>
0

>  <SCORE.heavy>
52

>  <SCORE.norm>
-0.334363

>  <RMSD>
0.826

$$$$
2fd0_lig
 OpenBabel11021811433D
libRbt.so/2013.1/901 2013/11/27
 52 56  0  0  0  0  0  0  0  0999 V2000
    5.0353  -49.7006   14.8970 C   0  0  2  0  0  0  0  0  0  0  0  0
    5.5286  -48.3670   15.0847 O   0  0  0  0  0  0  0  0  0  0  0  0
    7.4784  -45.1525   12.9035 C   0  0  2  0  0  0  0  0  0  0  0  0
    8.3874  -44.4273   12.0008 N   0  0  0  0  0  0  0  0  0  0  0  0
    3.7305  -47.6146   11.5468 C   0  0  1  0  0  0  0  0  0  0  0  0
    1.2937  -49.5006    8.5446 C   0  0  1  0  0  0  0  0  0  0  0  0
   -2.5218  -50.3221    4.9672 C   0  0  1  0  0  0  0  0  0  0  0  0
    3.9750  -50.0037   16.0174 C   0  0  2  0  0  0  0  0  0  0  0  0
    2.8883  -49.0343   16.0124 N   0  0  0  0  0  0  0  0  0  0  0  0
    8.3112  -45.9702   13.9856 C   0  0  0  0  0  0  0  0  0  0  0  0
    3.3894  -48.8473   10.7298 C   0  0  2  0  0  0  0  0  0  0  0  0
    3.9900  -48.8141    9.4045 O   0  0  0  0  0  0  0  0  0  0  0  0
    1.2663  -48.7429    7.1359 C   0  0  2  0  0  0  0  0  0  0  0  0
    0.1512  -47.7579    7.0949 N   0  0  0  0  0  0  0  0  0  0  0  0
   -3.4388  -49.3620    5.7579 C   0  0  1  0  0  0  0  0  0  0  0  0
   -3.1055  -47.9958    5.4083 O   0  0  0  0  0  0  0  0  0  0  0  0
    4.6722  -50.0760   17.4263 C   0  0  0  0  0  0  0  0  0  0  0  0
    7.3192  -46.7501   14.9741 C   0  0  2  0  0  0  0  0  0  0  0  0
    8.0644  -47.5168   15.9833 N   0  0  0  0  0  0  0  0  0  0  0  0
    1.8709  -48.8751   10.7741 C   0  0  2  0  0  0  0  0  0  0  0  0
    1.3150  -48.5175    9.5381 O   0  0  0  0  0  0  0  0  0  0  0  0
    1.2393  -49.8731    5.9814 C   0  0  1  0  0  0  0  0  0  0  0  0
    2.3863  -50.7227    6.1649 O   0  0  0  0  0  0  0  0  0  0  0  0
   -4.9725  -49.5411    5.5946 C   0  0  1  0  0  0  0  0  0  0  0  0
   -5.4103  -48.6646    4.5484 O   0  0  0  0  0  0  0  0  0  0  0  0
    5.8171  -51.1389   17.3599 C   0  0  2  0  0  0  0  0  0  0  0  0
    6.4630  -51.2480   18.6244 O   0  0  0  0  0  0  0  0  0  0  0  0
    6.4139  -47.7005   14.1417 C   0  0  2  0  0  0  0  0  0  0  0  0
    1.3845  -47.7934   11.7680 C   0  0  2  0  0  0  0  0  0  0  0  0
    2.5982  -47.3478   12.3560 O   0  0  0  0  0  0  0  0  0  0  0  0
   -0.0617  -50.8257    6.1013 C   0  0  2  0  0  0  0  0  0  0  0  0
   -1.1780  -49.9398    5.8949 O   0  0  0  0  0  0  0  0  0  0  0  0
   -5.4600  -50.9742    5.2797 C   0  0  2  0  0  0  0  0  0  0  0  0
   -6.6511  -51.1660    6.0740 O   0  0  0  0  0  0  0  0  0  0  0  0
    6.8480  -50.7217   16.2724 C   0  0  2  0  0  0  0  0  0  0  0  0
    6.1416  -50.6361   14.9750 O   0  0  0  0  0  0  0  0  0  0  0  0
    5.6186  -46.9543   13.0274 C   0  0  2  0  0  0  0  0  0  0  0  0
    4.8542  -47.9454   12.2997 O   0  0  0  0  0  0  0  0  0  0  0  0
    0.4713  -48.2994   12.8790 C   0  0  0  0  0  0  0  0  0  0  0  0
    1.1985  -49.3100   13.5938 O   0  0  0  0  0  0  0  0  0  0  0  0
   -0.0858  -51.3061    7.5401 C   0  0  1  0  0  0  0  0  0  0  0  0
    0.0955  -50.4563    8.6921 O   0  0  0  0  0  0  0  0  0  0  0  0
   -4.3658  -52.0000    5.5626 C   0  0  2  0  0  0  0  0  0  0  0  0
   -3.0811  -51.7056    4.9476 O   0  0  0  0  0  0  0  0  0  0  0  0
    7.9539  -51.7191   16.1336 C   0  0  0  0  0  0  0  0  0  0  0  0
    7.4347  -52.8573   15.5006 O   0  0  0  0  0  0  0  0  0  0  0  0
    6.6095  -46.1852   12.0791 C   0  0  1  0  0  0  0  0  0  0  0  0
    5.8234  -45.4539   11.0758 O   0  0  0  0  0  0  0  0  0  0  0  0
   -1.3198  -52.2197    7.8671 C   0  0  0  0  0  0  0  0  0  0  0  0
   -1.1024  -53.6507    7.5440 N   0  0  0  0  0  0  0  0  0  0  0  0
   -4.5776  -53.4939    5.3277 C   0  0  0  0  0  0  0  0  0  0  0  0
   -3.3924  -54.2454    5.7342 O   0  0  0  0  0  0  0  0  0  0  0  0
  1  2  1  1  0  0  0
  1  8  1  0  0  0  0
  1 36  1  0  0  0  0
  3  4  1  6  0  0  0
  3 10  1  0  0  0  0
  3 47  1  0  0  0  0
  5 11  1  0  0  0  0
  5 30  1  0  0  0  0
  5 38  1  1  0  0  0
  6 21  1  1  0  0  0
  6 42  1  0  0  0  0
  7 15  1  0  0  0  0
  7 44  1  0  0  0  0
  7 32  1  1  0  0  0
  8  9  1  1  0  0  0
  8 17  1  0  0  0  0
 11 12  1  6  0  0  0
 11 20  1  0  0  0  0
 13  6  1  0  0  0  0
 13 14  1  1  0  0  0
 15 16  1  6  0  0  0
 15 24  1  0  0  0  0
 17 26  1  0  0  0  0
 18 10  1  0  0  0  0
 18 19  1  1  0  0  0
 20 21  1  6  0  0  0
 20 29  1  0  0  0  0
 22 13  1  0  0  0  0
 22 23  1  1  0  0  0
 24 25  1  6  0  0  0
 24 33  1  0  0  0  0
 26 27  1  1  0  0  0
 26 35  1  0  0  0  0
 28  2  1  1  0  0  0
 28 18  1  0  0  0  0
 29 30  1  0  0  0  0
 29 39  1  1  0  0  0
 31 22  1  0  0  0  0
 31 32  1  1  0  0  0
 31 41  1  0  0  0  0
 33 34  1  1  0  0  0
 33 43  1  0  0  0  0
 35 36  1  0  0  0  0
 35 45  1  6  0  0  0
 37 28  1  0  0  0  0
 37 38  1  6  0  0  0
 39 40  1  0  0  0  0
 41 42  1  0  0  0  0
 41 49  1  1  0  0  0
 43 44  1  0  0  0  0
 43 51  1  6  0  0  0
 45 46  1  0  0  0  0
 47 37  1  0  0  0  0
 47 48  1  6  0  0  0
 49 50  1  0  0  0  0
 51 52  1  0  0  0  0
M  END
>  <CHROM.1>
-172.91317672,168.81639507,-154.82697340,153.51608344,78.97541621,-148.35828806
58.22679670,138.17508523,72.57569925,158.72691373,85.80670495,-177.57956274
2.02960087,-49.43736928,10.57613085,0.37283145,0.70849009,2.37257761

>  <Name>
2fd0_lig

>  <RI>
2.89522e+07

>  <Rbt.Current_Directory>
/home/itssahil/PROJECTS/Mol_Feturizer/New_Systems/rnas/2fd0

>  <Rbt.Executable>
rbdock ($Id: //depot/dev/client3/rdock/2013.1/src/exe/rbdock.cxx#4 $)

>  <Rbt.Library>
libRbt.so (2013.1, Build901 2013/11/27)

>  <Rbt.Parameter_File>
/export/apps/rDock/src/rDock_2013.1_src/data/scripts/dock_solv.prm

>  <Rbt.Receptor>
prm/pocket_docking_2.prm

>  <SCORE>
-13.6731

>  <SCORE.INTER>
-13.1074

>  <SCORE.INTER.CONST>
1

>  <SCORE.INTER.POLAR>
-0.938083

>  <SCORE.INTER.ROT>
12

>  <SCORE.INTER.SOLV>
14.7858

>  <SCORE.INTER.VDW>
-22.1399

>  <SCORE.INTER.norm>
-0.252065

>  <SCORE.INTRA>
-0.834835

>  <SCORE.INTRA.DIHEDRAL>
-1.0729

>  <SCORE.INTRA.DIHEDRAL.0>
23.9727

>  <SCORE.INTRA.POLAR>
0

>  <SCORE.INTRA.POLAR.0>
0

>  <SCORE.INTRA.REPUL>
0

>  <SCORE.INTRA.REPUL.0>
0

>  <SCORE.INTRA.SOLV>
0.393475

>  <SCORE.INTRA.SOLV.lig_0>
-115.028

>  <SCORE.INTRA.VDW>
-0.495121

>  <SCORE.INTRA.VDW.0>
-6.82393

>  <SCORE.INTRA.norm>
-0.0160545

>  <SCORE.RESTR>
0.269062

>  <SCORE.RESTR.CAVITY>
0.269062

>  <SCORE.RESTR.norm>
0.00517428

>  <SCORE.SYSTEM>
0

>  <SCORE.SYSTEM.CONST>
0

>  <SCORE.SYSTEM.DIHEDRAL>
0

>  <SCORE.SYSTEM.SOLV>
0

>  <SCORE.SYSTEM.norm>
0

>  <SCORE.heavy>
52

>  <SCORE.norm>
-0.262945

>  <RMSD>
0.845

$$$$
2fd0_lig
 OpenBabel11021811433D
libRbt.so/2013.1/901 2013/11/27
 52 56  0  0  0  0  0  0  0  0999 V2000
    5.0196  -49.3184   14.7924 C   0  0  2  0  0  0  0  0  0  0  0  0
    5.5762  -48.0210   15.0450 O   0  0  0  0  0  0  0  0  0  0  0  0
    7.3853  -44.7681   12.8004 C   0  0  2  0  0  0  0  0  0  0  0  0
    8.2818  -44.0164   11.9069 N   0  0  0  0  0  0  0  0  0  0  0  0
    3.8302  -47.6051   11.5062 C   0  0  1  0  0  0  0  0  0  0  0  0
    1.5651  -49.6781    8.3627 C   0  0  1  0  0  0  0  0  0  0  0  0
   -2.6751  -51.2041    5.6275 C   0  0  1  0  0  0  0  0  0  0  0  0
    3.9094  -49.6043   15.8681 C   0  0  2  0  0  0  0  0  0  0  0  0
    2.8760  -48.5783   15.8670 N   0  0  0  0  0  0  0  0  0  0  0  0
    8.2209  -45.4664   13.9610 C   0  0  0  0  0  0  0  0  0  0  0  0
    3.7321  -48.7716   10.5403 C   0  0  2  0  0  0  0  0  0  0  0  0
    4.2794  -48.4506    9.2305 O   0  0  0  0  0  0  0  0  0  0  0  0
    0.7756  -49.0031    7.1460 C   0  0  2  0  0  0  0  0  0  0  0  0
   -0.5438  -48.4871    7.6024 N   0  0  0  0  0  0  0  0  0  0  0  0
   -3.6195  -50.3577    6.5103 C   0  0  1  0  0  0  0  0  0  0  0  0
   -3.2363  -48.9637    6.4100 O   0  0  0  0  0  0  0  0  0  0  0  0
    4.5564  -49.7649   17.2936 C   0  0  0  0  0  0  0  0  0  0  0  0
    7.2415  -46.2751   14.9389 C   0  0  2  0  0  0  0  0  0  0  0  0
    7.9899  -46.9329   16.0201 N   0  0  0  0  0  0  0  0  0  0  0  0
    2.2539  -49.1213   10.5787 C   0  0  2  0  0  0  0  0  0  0  0  0
    1.6053  -48.7383    9.3966 O   0  0  0  0  0  0  0  0  0  0  0  0
    0.7228  -50.0848    5.9467 C   0  0  1  0  0  0  0  0  0  0  0  0
    2.0749  -50.4607    5.6281 O   0  0  0  0  0  0  0  0  0  0  0  0
   -5.1433  -50.4601    6.2304 C   0  0  1  0  0  0  0  0  0  0  0  0
   -5.4962  -49.4119    5.3188 O   0  0  0  0  0  0  0  0  0  0  0  0
    5.6452  -50.8847   17.2216 C   0  0  2  0  0  0  0  0  0  0  0  0
    6.2437  -51.0740   18.5000 O   0  0  0  0  0  0  0  0  0  0  0  0
    6.4556  -47.3315   14.1131 C   0  0  2  0  0  0  0  0  0  0  0  0
    1.5786  -48.2959   11.6998 C   0  0  2  0  0  0  0  0  0  0  0  0
    2.6877  -47.6824   12.3409 O   0  0  0  0  0  0  0  0  0  0  0  0
   -0.0382  -51.4403    6.3912 C   0  0  2  0  0  0  0  0  0  0  0  0
   -1.3844  -51.0197    6.6823 O   0  0  0  0  0  0  0  0  0  0  0  0
   -5.6401  -51.8071    5.6564 C   0  0  2  0  0  0  0  0  0  0  0  0
   -6.8825  -52.0887    6.3373 O   0  0  0  0  0  0  0  0  0  0  0  0
    6.7310  -50.4845   16.1821 C   0  0  2  0  0  0  0  0  0  0  0  0
    6.0721  -50.3144   14.8682 O   0  0  0  0  0  0  0  0  0  0  0  0
    5.6644  -46.7030   12.9257 C   0  0  2  0  0  0  0  0  0  0  0  0
    5.0165  -47.7840   12.2132 O   0  0  0  0  0  0  0  0  0  0  0  0
    0.8181  -49.1145   12.7372 C   0  0  0  0  0  0  0  0  0  0  0  0
   -0.1144  -49.9387   12.0215 O   0  0  0  0  0  0  0  0  0  0  0  0
    0.6226  -51.8748    7.6858 C   0  0  1  0  0  0  0  0  0  0  0  0
    0.9043  -50.9991    8.7975 O   0  0  0  0  0  0  0  0  0  0  0  0
   -4.5875  -52.8986    5.8303 C   0  0  2  0  0  0  0  0  0  0  0  0
   -3.2609  -52.5479    5.3481 O   0  0  0  0  0  0  0  0  0  0  0  0
    7.7867  -51.5344   16.0391 C   0  0  0  0  0  0  0  0  0  0  0  0
    7.1859  -52.6843   15.5077 O   0  0  0  0  0  0  0  0  0  0  0  0
    6.6414  -45.9033   11.9884 C   0  0  1  0  0  0  0  0  0  0  0  0
    5.8548  -45.2837   10.9130 O   0  0  0  0  0  0  0  0  0  0  0  0
   -0.0190  -53.1667    8.3052 C   0  0  0  0  0  0  0  0  0  0  0  0
    0.6138  -53.5942    9.5764 N   0  0  0  0  0  0  0  0  0  0  0  0
   -4.8155  -54.3271    5.3410 C   0  0  0  0  0  0  0  0  0  0  0  0
   -5.1021  -54.3341    3.9084 O   0  0  0  0  0  0  0  0  0  0  0  0
  1  2  1  1  0  0  0
  1  8  1  0  0  0  0
  1 36  1  0  0  0  0
  3  4  1  6  0  0  0
  3 10  1  0  0  0  0
  3 47  1  0  0  0  0
  5 11  1  0  0  0  0
  5 30  1  0  0  0  0
  5 38  1  1  0  0  0
  6 21  1  1  0  0  0
  6 42  1  0  0  0  0
  7 15  1  0  0  0  0
  7 44  1  0  0  0  0
  7 32  1  1  0  0  0
  8  9  1  1  0  0  0
  8 17  1  0  0  0  0
 11 12  1  6  0  0  0
 11 20  1  0  0  0  0
 13  6  1  0  0  0  0
 13 14  1  1  0  0  0
 15 16  1  6  0  0  0
 15 24  1  0  0  0  0
 17 26  1  0  0  0  0
 18 10  1  0  0  0  0
 18 19  1  1  0  0  0
 20 21  1  6  0  0  0
 20 29  1  0  0  0  0
 22 13  1  0  0  0  0
 22 23  1  1  0  0  0
 24 25  1  6  0  0  0
 24 33  1  0  0  0  0
 26 27  1  1  0  0  0
 26 35  1  0  0  0  0
 28  2  1  1  0  0  0
 28 18  1  0  0  0  0
 29 30  1  0  0  0  0
 29 39  1  1  0  0  0
 31 22  1  0  0  0  0
 31 32  1  1  0  0  0
 31 41  1  0  0  0  0
 33 34  1  1  0  0  0
 33 43  1  0  0  0  0
 35 36  1  0  0  0  0
 35 45  1  6  0  0  0
 37 28  1  0  0  0  0
 37 38  1  6  0  0  0
 39 40  1  0  0  0  0
 41 42  1  0  0  0  0
 41 49  1  1  0  0  0
 43 44  1  0  0  0  0
 43 51  1  6  0  0  0
 45 46  1  0  0  0  0
 47 37  1  0  0  0  0
 47 48  1  6  0  0  0
 49 50  1  0  0  0  0
 51 52  1  0  0  0  0
M  END
>  <CHROM.1>
-168.69051086,160.91784319,179.81360041,-171.55814792,89.86645284,-158.99107249
-54.05355348,100.13279325,64.94255795,151.75649952,-179.58521538,57.45442346
1.99493301,-49.61790669,10.61793330,0.30859276,0.71717395,2.32644290

>  <Name>
2fd0_lig

>  <RI>
2.89522e+07

>  <Rbt.Current_Directory>
/home/itssahil/PROJECTS/Mol_Feturizer/New_Systems/rnas/2fd0

>  <Rbt.Executable>
rbdock ($Id: //depot/dev/client3/rdock/2013.1/src/exe/rbdock.cxx#4 $)

>  <Rbt.Library>
libRbt.so (2013.1, Build901 2013/11/27)

>  <Rbt.Parameter_File>
/export/apps/rDock/src/rDock_2013.1_src/data/scripts/dock_solv.prm

>  <Rbt.Receptor>
prm/pocket_docking_2.prm

>  <SCORE>
-15.4079

>  <SCORE.INTER>
-11.7743

>  <SCORE.INTER.CONST>
1

>  <SCORE.INTER.POLAR>
-0.938083

>  <SCORE.INTER.ROT>
12

>  <SCORE.INTER.SOLV>
13.3471

>  <SCORE.INTER.VDW>
-20.7716

>  <SCORE.INTER.norm>
-0.226428

>  <SCORE.INTRA>
-3.74622

>  <SCORE.INTRA.DIHEDRAL>
-5.54839

>  <SCORE.INTRA.DIHEDRAL.0>
23.9727

>  <SCORE.INTRA.POLAR>
0

>  <SCORE.INTRA.POLAR.0>
0

>  <SCORE.INTRA.REPUL>
0

>  <SCORE.INTRA.REPUL.0>
0

>  <SCORE.INTRA.SOLV>
-2.07523

>  <SCORE.INTRA.SOLV.lig_0>
-115.028

>  <SCORE.INTRA.VDW>
0.0655988

>  <SCORE.INTRA.VDW.0>
-6.82393

>  <SCORE.INTRA.norm>
-0.0720426

>  <SCORE.RESTR>
0.112562

>  <SCORE.RESTR.CAVITY>
0.112562

>  <SCORE.RESTR.norm>
0.00216466

>  <SCORE.SYSTEM>
0

>  <SCORE.SYSTEM.CONST>
0

>  <SCORE.SYSTEM.DIHEDRAL>
0

>  <SCORE.SYSTEM.SOLV>
0

>  <SCORE.SYSTEM.norm>
0

>  <SCORE.heavy>
52

>  <SCORE.norm>
-0.296306

>  <RMSD>
0.865

$$$$
2fd0_lig
 OpenBabel11021811433D
libRbt.so/2013.1/901 2013/11/27
 52 56  0  0  0  0  0  0  0  0999 V2000
    5.3379  -49.2658   14.6938 C   0  0  2  0  0  0  0  0  0  0  0  0
    5.9057  -47.9931   15.0326 O   0  0  0  0  0  0  0  0  0  0  0  0
    7.8488  -44.6401   13.0642 C   0  0  2  0  0  0  0  0  0  0  0  0
    8.7774  -43.8533   12.2363 N   0  0  0  0  0  0  0  0  0  0  0  0
    4.2399  -47.1998   11.4706 C   0  0  1  0  0  0  0  0  0  0  0  0
    1.7642  -49.2148    8.6087 C   0  0  1  0  0  0  0  0  0  0  0  0
   -2.3066  -50.6692    5.6302 C   0  0  1  0  0  0  0  0  0  0  0  0
    4.1203  -49.5405   15.6496 C   0  0  2  0  0  0  0  0  0  0  0  0
    3.1230  -48.4820   15.5756 N   0  0  0  0  0  0  0  0  0  0  0  0
    8.6518  -45.4632   14.1645 C   0  0  0  0  0  0  0  0  0  0  0  0
    3.8673  -48.4746   10.7360 C   0  0  2  0  0  0  0  0  0  0  0  0
    4.4511  -48.5344    9.4041 O   0  0  0  0  0  0  0  0  0  0  0  0
    1.1214  -48.6171    7.2712 C   0  0  2  0  0  0  0  0  0  0  0  0
   -0.1932  -47.9827    7.5624 N   0  0  0  0  0  0  0  0  0  0  0  0
   -3.3042  -49.7943    6.4221 C   0  0  1  0  0  0  0  0  0  0  0  0
   -2.8627  -48.4149    6.3755 O   0  0  0  0  0  0  0  0  0  0  0  0
    4.6206  -49.7545   17.1262 C   0  0  0  0  0  0  0  0  0  0  0  0
    7.6378  -46.3105   15.0718 C   0  0  2  0  0  0  0  0  0  0  0  0
    8.3555  -47.0833   16.0962 N   0  0  0  0  0  0  0  0  0  0  0  0
    2.3493  -48.4724   10.8000 C   0  0  2  0  0  0  0  0  0  0  0  0
    1.7835  -48.1823    9.5508 O   0  0  0  0  0  0  0  0  0  0  0  0
    1.0934  -49.8059    6.1772 C   0  0  1  0  0  0  0  0  0  0  0  0
    2.4388  -50.2895    6.0125 O   0  0  0  0  0  0  0  0  0  0  0  0
   -4.7947  -49.8384    5.9890 C   0  0  1  0  0  0  0  0  0  0  0  0
   -5.0154  -48.7718    5.0574 O   0  0  0  0  0  0  0  0  0  0  0  0
    5.6774  -50.9069   17.1304 C   0  0  2  0  0  0  0  0  0  0  0  0
    6.1428  -51.1447   18.4552 O   0  0  0  0  0  0  0  0  0  0  0  0
    6.8150  -47.2643   14.1613 C   0  0  2  0  0  0  0  0  0  0  0  0
    1.8943  -47.3225   11.7302 C   0  0  2  0  0  0  0  0  0  0  0  0
    3.1230  -46.8630   12.2749 O   0  0  0  0  0  0  0  0  0  0  0  0
    0.2109  -51.0647    6.6780 C   0  0  2  0  0  0  0  0  0  0  0  0
   -1.1234  -50.5398    6.8116 O   0  0  0  0  0  0  0  0  0  0  0  0
   -5.2792  -51.1622    5.3537 C   0  0  2  0  0  0  0  0  0  0  0  0
   -6.5934  -51.4022    5.9030 O   0  0  0  0  0  0  0  0  0  0  0  0
    6.8706  -50.5181   16.2113 C   0  0  2  0  0  0  0  0  0  0  0  0
    6.3478  -50.2966   14.8448 O   0  0  0  0  0  0  0  0  0  0  0  0
    6.0537  -46.5103   13.0287 C   0  0  2  0  0  0  0  0  0  0  0  0
    5.3675  -47.5033   12.2292 O   0  0  0  0  0  0  0  0  0  0  0  0
    0.9870  -47.7422   12.8813 C   0  0  0  0  0  0  0  0  0  0  0  0
    0.0195  -48.6560   12.3428 O   0  0  0  0  0  0  0  0  0  0  0  0
    0.7354  -51.4083    8.0594 C   0  0  1  0  0  0  0  0  0  0  0  0
    0.9845  -50.4460    9.1054 O   0  0  0  0  0  0  0  0  0  0  0  0
   -4.2897  -52.2931    5.6214 C   0  0  2  0  0  0  0  0  0  0  0  0
   -2.9093  -51.9885    5.2792 O   0  0  0  0  0  0  0  0  0  0  0  0
    7.9034  -51.5978   16.1435 C   0  0  0  0  0  0  0  0  0  0  0  0
    7.3309  -52.7063   15.5038 O   0  0  0  0  0  0  0  0  0  0  0  0
    7.0650  -45.6752   12.1611 C   0  0  1  0  0  0  0  0  0  0  0  0
    6.3074  -44.9394   11.1393 O   0  0  0  0  0  0  0  0  0  0  0  0
   -0.0382  -52.5938    8.7380 C   0  0  0  0  0  0  0  0  0  0  0  0
    0.5097  -52.9819   10.0603 N   0  0  0  0  0  0  0  0  0  0  0  0
   -4.5185  -53.7088    5.0968 C   0  0  0  0  0  0  0  0  0  0  0  0
   -3.4992  -54.6155    5.6196 O   0  0  0  0  0  0  0  0  0  0  0  0
  1  2  1  1  0  0  0
  1  8  1  0  0  0  0
  1 36  1  0  0  0  0
  3  4  1  6  0  0  0
  3 10  1  0  0  0  0
  3 47  1  0  0  0  0
  5 11  1  0  0  0  0
  5 30  1  0  0  0  0
  5 38  1  1  0  0  0
  6 21  1  1  0  0  0
  6 42  1  0  0  0  0
  7 15  1  0  0  0  0
  7 44  1  0  0  0  0
  7 32  1  1  0  0  0
  8  9  1  1  0  0  0
  8 17  1  0  0  0  0
 11 12  1  6  0  0  0
 11 20  1  0  0  0  0
 13  6  1  0  0  0  0
 13 14  1  1  0  0  0
 15 16  1  6  0  0  0
 15 24  1  0  0  0  0
 17 26  1  0  0  0  0
 18 10  1  0  0  0  0
 18 19  1  1  0  0  0
 20 21  1  6  0  0  0
 20 29  1  0  0  0  0
 22 13  1  0  0  0  0
 22 23  1  1  0  0  0
 24 25  1  6  0  0  0
 24 33  1  0  0  0  0
 26 27  1  1  0  0  0
 26 35  1  0  0  0  0
 28  2  1  1  0  0  0
 28 18  1  0  0  0  0
 29 30  1  0  0  0  0
 29 39  1  1  0  0  0
 31 22  1  0  0  0  0
 31 32  1  1  0  0  0
 31 41  1  0  0  0  0
 33 34  1  1  0  0  0
 33 43  1  0  0  0  0
 35 36  1  0  0  0  0
 35 45  1  6  0  0  0
 37 28  1  0  0  0  0
 37 38  1  6  0  0  0
 39 40  1  0  0  0  0
 41 42  1  0  0  0  0
 41 49  1  1  0  0  0
 43 44  1  0  0  0  0
 43 51  1  6  0  0  0
 45 46  1  0  0  0  0
 47 37  1  0  0  0  0
 47 48  1  6  0  0  0
 49 50  1  0  0  0  0
 51 52  1  0  0  0  0
M  END
>  <CHROM.1>
-163.91527521,177.25743050,-178.10696955,-174.65646959,77.35329345,-156.68119208
-43.82203588,96.19526596,66.05842221,155.92287660,177.13323208,-173.81744278
2.29062961,-49.26796429,10.71146598,0.26053628,0.72570953,2.43716182

>  <Name>
2fd0_lig

>  <RI>
2.89522e+07

>  <Rbt.Current_Directory>
/home/itssahil/PROJECTS/Mol_Feturizer/New_Systems/rnas/2fd0

>  <Rbt.Executable>
rbdock ($Id: //depot/dev/client3/rdock/2013.1/src/exe/rbdock.cxx#4 $)

>  <Rbt.Library>
libRbt.so (2013.1, Build901 2013/11/27)

>  <Rbt.Parameter_File>
/export/apps/rDock/src/rDock_2013.1_src/data/scripts/dock_solv.prm

>  <Rbt.Receptor>
prm/pocket_docking_2.prm

>  <SCORE>
-16.213

>  <SCORE.INTER>
-11.6486

>  <SCORE.INTER.CONST>
1

>  <SCORE.INTER.POLAR>
-0.938083

>  <SCORE.INTER.ROT>
12

>  <SCORE.INTER.SOLV>
13.5789

>  <SCORE.INTER.VDW>
-20.7651

>  <SCORE.INTER.norm>
-0.224012

>  <SCORE.INTRA>
-4.67457

>  <SCORE.INTRA.DIHEDRAL>
-8.9912

>  <SCORE.INTRA.DIHEDRAL.0>
23.9727

>  <SCORE.INTRA.POLAR>
0

>  <SCORE.INTRA.POLAR.0>
0

>  <SCORE.INTRA.REPUL>
0

>  <SCORE.INTRA.REPUL.0>
0

>  <SCORE.INTRA.SOLV>
-1.74427

>  <SCORE.INTRA.SOLV.lig_0>
-115.028

>  <SCORE.INTRA.VDW>
0.693161

>  <SCORE.INTRA.VDW.0>
-6.82393

>  <SCORE.INTRA.norm>
-0.0898956

>  <SCORE.RESTR>
0.110195

>  <SCORE.RESTR.CAVITY>
0.110195

>  <SCORE.RESTR.norm>
0.00211914

>  <SCORE.SYSTEM>
0

>  <SCORE.SYSTEM.CONST>
0

>  <SCORE.SYSTEM.DIHEDRAL>
0

>  <SCORE.SYSTEM.SOLV>
0

>  <SCORE.SYSTEM.norm>
0

>  <SCORE.heavy>
52

>  <SCORE.norm>
-0.311788

>  <RMSD>
0.885

$$$$
2fd0_lig
 OpenBabel11021811433D
libRbt.so/2013.1/901 2013/11/27
 52 56  0  0  0  0  0  0  0  0999 V2000
    5.2279  -49.2586   14.8338 C   0  0  2  0  0  0  0  0  0  0  0  0
    5.8442  -47.9915   15.1012 O   0  0  0  0  0  0  0  0  0  0  0  0
    7.9296  -44.8715   12.9081 C   0  0  2  0  0  0  0  0  0  0  0  0
    8.9074  -44.1810   12.0513 N   0  0  0  0  0  0  0  0  0  0  0  0
    4.1544  -47.6253   11.7264 C   0  0  1  0  0  0  0  0  0  0  0  0
    1.8683  -49.4078    8.6485 C   0  0  1  0  0  0  0  0  0  0  0  0
   -1.7950  -50.0751    4.8389 C   0  0  1  0  0  0  0  0  0  0  0  0
    4.1098  -49.5079   15.9105 C   0  0  2  0  0  0  0  0  0  0  0  0
    3.1244  -48.4357   15.9275 N   0  0  0  0  0  0  0  0  0  0  0  0
    8.6688  -45.5932   14.1188 C   0  0  0  0  0  0  0  0  0  0  0  0
    3.9801  -48.7316   10.7019 C   0  0  2  0  0  0  0  0  0  0  0  0
    4.3105  -48.2924    9.3543 O   0  0  0  0  0  0  0  0  0  0  0  0
    1.4754  -48.3516    7.5129 C   0  0  2  0  0  0  0  0  0  0  0  0
    0.1258  -47.7814    7.7753 N   0  0  0  0  0  0  0  0  0  0  0  0
   -2.7989  -49.1313    5.5383 C   0  0  1  0  0  0  0  0  0  0  0  0
   -2.3394  -47.7643    5.3962 O   0  0  0  0  0  0  0  0  0  0  0  0
    4.7540  -49.7169   17.3309 C   0  0  0  0  0  0  0  0  0  0  0  0
    7.6012  -46.3350   15.0565 C   0  0  2  0  0  0  0  0  0  0  0  0
    8.2594  -47.0130   16.1829 N   0  0  0  0  0  0  0  0  0  0  0  0
    2.5453  -49.1788   10.9254 C   0  0  2  0  0  0  0  0  0  0  0  0
    1.7099  -48.7641    9.8791 O   0  0  0  0  0  0  0  0  0  0  0  0
    1.6539  -49.0893    6.0864 C   0  0  1  0  0  0  0  0  0  0  0  0
    3.0099  -49.5634    5.9984 O   0  0  0  0  0  0  0  0  0  0  0  0
   -4.2798  -49.1926    5.0757 C   0  0  1  0  0  0  0  0  0  0  0  0
   -4.4667  -48.1985    4.0603 O   0  0  0  0  0  0  0  0  0  0  0  0
    5.7901  -50.8843   17.2394 C   0  0  2  0  0  0  0  0  0  0  0  0
    6.3840  -51.1179   18.5125 O   0  0  0  0  0  0  0  0  0  0  0  0
    6.8037  -47.3628   14.2060 C   0  0  2  0  0  0  0  0  0  0  0  0
    1.9974  -48.4727   12.1886 C   0  0  2  0  0  0  0  0  0  0  0  0
    3.1530  -47.8304   12.7077 O   0  0  0  0  0  0  0  0  0  0  0  0
    0.7031  -50.3906    5.9580 C   0  0  2  0  0  0  0  0  0  0  0  0
   -0.6366  -49.8678    6.0337 O   0  0  0  0  0  0  0  0  0  0  0  0
   -4.7666  -50.5561    4.5328 C   0  0  2  0  0  0  0  0  0  0  0  0
   -6.0955  -50.7391    5.0686 O   0  0  0  0  0  0  0  0  0  0  0  0
    6.8893  -50.5203   16.2006 C   0  0  2  0  0  0  0  0  0  0  0  0
    6.2339  -50.3026   14.8920 O   0  0  0  0  0  0  0  0  0  0  0  0
    6.1065  -46.7136   12.9718 C   0  0  2  0  0  0  0  0  0  0  0  0
    5.4398  -47.7712   12.2417 O   0  0  0  0  0  0  0  0  0  0  0  0
    1.4441  -49.4039   13.2615 C   0  0  0  0  0  0  0  0  0  0  0  0
    0.5555  -48.6252   14.0771 O   0  0  0  0  0  0  0  0  0  0  0  0
    0.9702  -51.2168    7.2020 C   0  0  1  0  0  0  0  0  0  0  0  0
    1.0191  -50.6878    8.5436 O   0  0  0  0  0  0  0  0  0  0  0  0
   -3.7974  -51.6735    4.9091 C   0  0  2  0  0  0  0  0  0  0  0  0
   -2.4061  -51.4109    4.5763 O   0  0  0  0  0  0  0  0  0  0  0  0
    7.8953  -51.6154   16.0392 C   0  0  0  0  0  0  0  0  0  0  0  0
    7.2402  -52.7298   15.4964 O   0  0  0  0  0  0  0  0  0  0  0  0
    7.1693  -45.9800   12.0747 C   0  0  1  0  0  0  0  0  0  0  0  0
    6.4706  -45.3381   10.9526 O   0  0  0  0  0  0  0  0  0  0  0  0
    0.0936  -52.5167    7.2817 C   0  0  0  0  0  0  0  0  0  0  0  0
    0.5082  -53.4484    8.3585 N   0  0  0  0  0  0  0  0  0  0  0  0
   -4.0321  -53.1229    4.4894 C   0  0  0  0  0  0  0  0  0  0  0  0
   -2.9699  -53.9809    5.0091 O   0  0  0  0  0  0  0  0  0  0  0  0
  1  2  1  1  0  0  0
  1  8  1  0  0  0  0
  1 36  1  0  0  0  0
  3  4  1  6  0  0  0
  3 10  1  0  0  0  0
  3 47  1  0  0  0  0
  5 11  1  0  0  0  0
  5 30  1  0  0  0  0
  5 38  1  1  0  0  0
  6 21  1  1  0  0  0
  6 42  1  0  0  0  0
  7 15  1  0  0  0  0
  7 44  1  0  0  0  0
  7 32  1  1  0  0  0
  8  9  1  1  0  0  0
  8 17  1  0  0  0  0
 11 12  1  6  0  0  0
 11 20  1  0  0  0  0
 13  6  1  0  0  0  0
 13 14  1  1  0  0  0
 15 16  1  6  0  0  0
 15 24  1  0  0  0  0
 17 26  1  0  0  0  0
 18 10  1  0  0  0  0
 18 19  1  1  0  0  0
 20 21  1  6  0  0  0
 20 29  1  0  0  0  0
 22 13  1  0  0  0  0
 22 23  1  1  0  0  0
 24 25  1  6  0  0  0
 24 33  1  0  0  0  0
 26 27  1  1  0  0  0
 26 35  1  0  0  0  0
 28  2  1  1  0  0  0
 28 18  1  0  0  0  0
 29 30  1  0  0  0  0
 29 39  1  1  0  0  0
 31 22  1  0  0  0  0
 31 32  1  1  0  0  0
 31 41  1  0  0  0  0
 33 34  1  1  0  0  0
 33 43  1  0  0  0  0
 35 36  1  0  0  0  0
 35 45  1  6  0  0  0
 37 28  1  0  0  0  0
 37 38  1  6  0  0  0
 39 40  1  0  0  0  0
 41 42  1  0  0  0  0
 41 49  1  1  0  0  0
 43 44  1  0  0  0  0
 43 51  1  6  0  0  0
 45 46  1  0  0  0  0
 47 37  1  0  0  0  0
 47 48  1  6  0  0  0
 49 50  1  0  0  0  0
 51 52  1  0  0  0  0
M  END
>  <CHROM.1>
-171.96419297,163.11791937,-150.09158592,-173.22164478,71.22601050,-159.40547306
-158.59713901,121.73851696,64.88875714,136.91438839,169.82918197,-178.68612829
2.49660517,-49.22276613,10.51319461,0.43996050,0.72672689,2.30326098

>  <Name>
2fd0_lig

>  <RI>
2.89522e+07

>  <Rbt.Current_Directory>
/home/itssahil/PROJECTS/Mol_Feturizer/New_Systems/rnas/2fd0

>  <Rbt.Executable>
rbdock ($Id: //depot/dev/client3/rdock/2013.1/src/exe/rbdock.cxx#4 $)

>  <Rbt.Library>
libRbt.so (2013.1, Build901 2013/11/27)

>  <Rbt.Parameter_File>
/export/apps/rDock/src/rDock_2013.1_src/data/scripts/dock_solv.prm

>  <Rbt.Receptor>
prm/pocket_docking_2.prm

>  <SCORE>
-13.062

>  <SCORE.INTER>
-12.4315

>  <SCORE.INTER.CONST>
1

>  <SCORE.INTER.POLAR>
-0.938083

>  <SCORE.INTER.ROT>
12

>  <SCORE.INTER.SOLV>
13.9568

>  <SCORE.INTER.VDW>
-21.413

>  <SCORE.INTER.norm>
-0.239068

>  <SCORE.INTRA>
-0.771883

>  <SCORE.INTRA.DIHEDRAL>
0.108126

>  <SCORE.INTRA.DIHEDRAL.0>
23.9727

>  <SCORE.INTRA.POLAR>
0

>  <SCORE.INTRA.POLAR.0>
0

>  <SCORE.INTRA.REPUL>
0

>  <SCORE.INTRA.REPUL.0>
0

>  <SCORE.INTRA.SOLV>
-1.14558

>  <SCORE.INTRA.SOLV.lig_0>
-115.028

>  <SCORE.INTRA.VDW>
-0.253158

>  <SCORE.INTRA.VDW.0>
-6.82393

>  <SCORE.INTRA.norm>
-0.0148439

>  <SCORE.RESTR>
0.141346

>  <SCORE.RESTR.CAVITY>
0.141346

>  <SCORE.RESTR.norm>
0.00271819

>  <SCORE.SYSTEM>
0

>  <SCORE.SYSTEM.CONST>
0

>  <SCORE.SYSTEM.DIHEDRAL>
0

>  <SCORE.SYSTEM.SOLV>
0

>  <SCORE.SYSTEM.norm>
0

>  <SCORE.heavy>
52

>  <SCORE.norm>
-0.251193

>  <RMSD>
0.927

$$$$
2fd0_lig
 OpenBabel11021811433D
libRbt.so/2013.1/901 2013/11/27
 52 56  0  0  0  0  0  0  0  0999 V2000
    4.9765  -49.4589   14.8726 C   0  0  2  0  0  0  0  0  0  0  0  0
    5.5885  -48.1679   14.9984 O   0  0  0  0  0  0  0  0  0  0  0  0
    7.7342  -45.2632   12.5794 C   0  0  2  0  0  0  0  0  0  0  0  0
    8.7036  -44.6655   11.6467 N   0  0  0  0  0  0  0  0  0  0  0  0
    4.1513  -47.7574   11.1232 C   0  0  1  0  0  0  0  0  0  0  0  0
    1.5939  -50.0214    8.5465 C   0  0  1  0  0  0  0  0  0  0  0  0
   -2.3969  -51.4847    5.5676 C   0  0  1  0  0  0  0  0  0  0  0  0
    3.9467  -49.6405   16.0465 C   0  0  2  0  0  0  0  0  0  0  0  0
    2.9466  -48.5821   16.0594 N   0  0  0  0  0  0  0  0  0  0  0  0
    8.4934  -45.9846   13.7778 C   0  0  0  0  0  0  0  0  0  0  0  0
    3.5243  -49.0873   10.7470 C   0  0  2  0  0  0  0  0  0  0  0  0
    4.2253  -49.7366    9.6492 O   0  0  0  0  0  0  0  0  0  0  0  0
    1.1723  -49.7895    7.0207 C   0  0  2  0  0  0  0  0  0  0  0  0
    0.0038  -48.8715    6.9361 N   0  0  0  0  0  0  0  0  0  0  0  0
   -3.2092  -50.2210    5.9293 C   0  0  1  0  0  0  0  0  0  0  0  0
   -2.4009  -49.0480    5.6636 O   0  0  0  0  0  0  0  0  0  0  0  0
    4.6991  -49.7351   17.4254 C   0  0  0  0  0  0  0  0  0  0  0  0
    7.4358  -46.6251   14.7978 C   0  0  2  0  0  0  0  0  0  0  0  0
    8.1124  -47.3010   15.9145 N   0  0  0  0  0  0  0  0  0  0  0  0
    2.0736  -48.7177   10.4870 C   0  0  2  0  0  0  0  0  0  0  0  0
    1.7711  -48.7586    9.1189 O   0  0  0  0  0  0  0  0  0  0  0  0
    0.9633  -51.2456    6.3520 C   0  0  1  0  0  0  0  0  0  0  0  0
    2.1857  -51.9878    6.5134 O   0  0  0  0  0  0  0  0  0  0  0  0
   -4.5823  -50.0288    5.2301 C   0  0  1  0  0  0  0  0  0  0  0  0
   -4.3731  -49.2300    4.0586 O   0  0  0  0  0  0  0  0  0  0  0  0
    5.7461  -50.8934   17.3415 C   0  0  2  0  0  0  0  0  0  0  0  0
    6.4377  -51.0240   18.5796 O   0  0  0  0  0  0  0  0  0  0  0  0
    6.5340  -47.6321   14.0308 C   0  0  2  0  0  0  0  0  0  0  0  0
    1.8542  -47.2453   10.9090 C   0  0  2  0  0  0  0  0  0  0  0  0
    3.0866  -46.9178   11.5348 O   0  0  0  0  0  0  0  0  0  0  0  0
   -0.1911  -52.0930    7.1026 C   0  0  2  0  0  0  0  0  0  0  0  0
   -1.3921  -51.3246    6.9007 O   0  0  0  0  0  0  0  0  0  0  0  0
   -5.3255  -51.3224    4.8242 C   0  0  2  0  0  0  0  0  0  0  0  0
   -6.7157  -51.0912    5.1413 O   0  0  0  0  0  0  0  0  0  0  0  0
    6.7577  -50.5947   16.1982 C   0  0  2  0  0  0  0  0  0  0  0  0
    6.0024  -50.4833   14.9307 O   0  0  0  0  0  0  0  0  0  0  0  0
    5.8110  -46.9864   12.8096 C   0  0  2  0  0  0  0  0  0  0  0  0
    5.0442  -48.0268   12.1572 O   0  0  0  0  0  0  0  0  0  0  0  0
    0.7313  -47.0213   11.9156 C   0  0  0  0  0  0  0  0  0  0  0  0
    0.9979  -47.8734   13.0399 O   0  0  0  0  0  0  0  0  0  0  0  0
    0.1654  -52.0537    8.5767 C   0  0  1  0  0  0  0  0  0  0  0  0
    0.5458  -50.8629    9.2974 O   0  0  0  0  0  0  0  0  0  0  0  0
   -4.7327  -52.5394    5.5293 C   0  0  2  0  0  0  0  0  0  0  0  0
   -3.2892  -52.6702    5.4084 O   0  0  0  0  0  0  0  0  0  0  0  0
    7.7680  -51.6864   16.0418 C   0  0  0  0  0  0  0  0  0  0  0  0
    7.1225  -52.7980   15.4821 O   0  0  0  0  0  0  0  0  0  0  0  0
    6.8656  -46.3523   11.8306 C   0  0  1  0  0  0  0  0  0  0  0  0
    6.1467  -45.7098   10.7217 O   0  0  0  0  0  0  0  0  0  0  0  0
   -0.8782  -52.7943    9.4859 C   0  0  0  0  0  0  0  0  0  0  0  0
   -0.7210  -54.2690    9.4920 N   0  0  0  0  0  0  0  0  0  0  0  0
   -5.2728  -53.9493    5.3003 C   0  0  0  0  0  0  0  0  0  0  0  0
   -4.9719  -54.3944    3.9417 O   0  0  0  0  0  0  0  0  0  0  0  0
  1  2  1  1  0  0  0
  1  8  1  0  0  0  0
  1 36  1  0  0  0  0
  3  4  1  6  0  0  0
  3 10  1  0  0  0  0
  3 47  1  0  0  0  0
  5 11  1  0  0  0  0
  5 30  1  0  0  0  0
  5 38  1  1  0  0  0
  6 21  1  1  0  0  0
  6 42  1  0  0  0  0
  7 15  1  0  0  0  0
  7 44  1  0  0  0  0
  7 32  1  1  0  0  0
  8  9  1  1  0  0  0
  8 17  1  0  0  0  0
 11 12  1  6  0  0  0
 11 20  1  0  0  0  0
 13  6  1  0  0  0  0
 13 14  1  1  0  0  0
 15 16  1  6  0  0  0
 15 24  1  0  0  0  0
 17 26  1  0  0  0  0
 18 10  1  0  0  0  0
 18 19  1  1  0  0  0
 20 21  1  6  0  0  0
 20 29  1  0  0  0  0
 22 13  1  0  0  0  0
 22 23  1  1  0  0  0
 24 25  1  6  0  0  0
 24 33  1  0  0  0  0
 26 27  1  1  0  0  0
 26 35  1  0  0  0  0
 28  2  1  1  0  0  0
 28 18  1  0  0  0  0
 29 30  1  0  0  0  0
 29 39  1  1  0  0  0
 31 22  1  0  0  0  0
 31 32  1  1  0  0  0
 31 41  1  0  0  0  0
 33 34  1  1  0  0  0
 33 43  1  0  0  0  0
 35 36  1  0  0  0  0
 35 45  1  6  0  0  0
 37 28  1  0  0  0  0
 37 38  1  6  0  0  0
 39 40  1  0  0  0  0
 41 42  1  0  0  0  0
 41 49  1  1  0  0  0
 43 44  1  0  0  0  0
 43 51  1  6  0  0  0
 45 46  1  0  0  0  0
 47 37  1  0  0  0  0
 47 48  1  6  0  0  0
 49 50  1  0  0  0  0
 51 52  1  0  0  0  0
M  END
>  <CHROM.1>
-176.05386940,-178.20000697,176.50946588,-169.55648098,76.42935276,-153.53973443
54.57328850,87.73956974,71.84295518,172.13869878,79.38784591,68.55008707
2.10777085,-49.67796635,10.54019025,0.29029789,0.73693885,2.39546800

>  <Name>
2fd0_lig

>  <RI>
2.89522e+07

>  <Rbt.Current_Directory>
/home/itssahil/PROJECTS/Mol_Feturizer/New_Systems/rnas/2fd0

>  <Rbt.Executable>
rbdock ($Id: //depot/dev/client3/rdock/2013.1/src/exe/rbdock.cxx#4 $)

>  <Rbt.Library>
libRbt.so (2013.1, Build901 2013/11/27)

>  <Rbt.Parameter_File>
/export/apps/rDock/src/rDock_2013.1_src/data/scripts/dock_solv.prm

>  <Rbt.Receptor>
prm/pocket_docking_2.prm

>  <SCORE>
-20.9576

>  <SCORE.INTER>
-15.0279

>  <SCORE.INTER.CONST>
1

>  <SCORE.INTER.POLAR>
-1.77883

>  <SCORE.INTER.ROT>
12

>  <SCORE.INTER.SOLV>
15.691

>  <SCORE.INTER.VDW>
-20.9195

>  <SCORE.INTER.norm>
-0.288998

>  <SCORE.INTRA>
-6.24196

>  <SCORE.INTRA.DIHEDRAL>
-12.5281

>  <SCORE.INTRA.DIHEDRAL.0>
23.9727

>  <SCORE.INTRA.POLAR>
0

>  <SCORE.INTRA.POLAR.0>
0

>  <SCORE.INTRA.REPUL>
0

>  <SCORE.INTRA.REPUL.0>
0

>  <SCORE.INTRA.SOLV>
-2.19476

>  <SCORE.INTRA.SOLV.lig_0>
-115.028

>  <SCORE.INTRA.VDW>
1.11949

>  <SCORE.INTRA.VDW.0>
-6.82393

>  <SCORE.INTRA.norm>
-0.120038

>  <SCORE.RESTR>
0.312254

>  <SCORE.RESTR.CAVITY>
0.312254

>  <SCORE.RESTR.norm>
0.00600489

>  <SCORE.SYSTEM>
0

>  <SCORE.SYSTEM.CONST>
0

>  <SCORE.SYSTEM.DIHEDRAL>
0

>  <SCORE.SYSTEM.SOLV>
0

>  <SCORE.SYSTEM.norm>
0

>  <SCORE.heavy>
52

>  <SCORE.norm>
-0.403031

>  <RMSD>
1.033

$$$$
2fd0_lig
 OpenBabel11021811433D
libRbt.so/2013.1/901 2013/11/27
 52 56  0  0  0  0  0  0  0  0999 V2000
    4.9945  -49.8317   14.9371 C   0  0  2  0  0  0  0  0  0  0  0  0
    5.6438  -48.5660   15.1205 O   0  0  0  0  0  0  0  0  0  0  0  0
    7.7851  -45.5858   12.7913 C   0  0  2  0  0  0  0  0  0  0  0  0
    8.7473  -44.9599   11.8697 N   0  0  0  0  0  0  0  0  0  0  0  0
    4.0889  -47.9749   11.3534 C   0  0  1  0  0  0  0  0  0  0  0  0
    1.5873  -50.0801    8.5533 C   0  0  1  0  0  0  0  0  0  0  0  0
   -2.3966  -51.3312    5.3806 C   0  0  1  0  0  0  0  0  0  0  0  0
    3.8755  -49.9827   16.0310 C   0  0  2  0  0  0  0  0  0  0  0  0
    2.9175  -48.8869   15.9820 N   0  0  0  0  0  0  0  0  0  0  0  0
    8.5538  -46.3634   13.9477 C   0  0  0  0  0  0  0  0  0  0  0  0
    3.5854  -49.2905   10.7883 C   0  0  2  0  0  0  0  0  0  0  0  0
    4.2898  -49.6749    9.5742 O   0  0  0  0  0  0  0  0  0  0  0  0
    1.1925  -49.6446    7.0654 C   0  0  2  0  0  0  0  0  0  0  0  0
    0.0038  -48.7490    7.0820 N   0  0  0  0  0  0  0  0  0  0  0  0
   -3.3262  -50.2295    5.9373 C   0  0  1  0  0  0  0  0  0  0  0  0
   -2.6817  -48.9418    5.7757 O   0  0  0  0  0  0  0  0  0  0  0  0
    4.5209  -50.1163   17.4600 C   0  0  0  0  0  0  0  0  0  0  0  0
    7.5041  -47.0348   14.9561 C   0  0  2  0  0  0  0  0  0  0  0  0
    8.1895  -47.7628   16.0341 N   0  0  0  0  0  0  0  0  0  0  0  0
    2.0919  -49.0497   10.6458 C   0  0  2  0  0  0  0  0  0  0  0  0
    1.7212  -48.9071    9.3015 O   0  0  0  0  0  0  0  0  0  0  0  0
    1.0336  -50.9960    6.1940 C   0  0  1  0  0  0  0  0  0  0  0  0
    2.2701  -51.7273    6.2793 O   0  0  0  0  0  0  0  0  0  0  0  0
   -4.7562  -50.1312    5.3404 C   0  0  1  0  0  0  0  0  0  0  0  0
   -4.7221  -49.1825    4.2667 O   0  0  0  0  0  0  0  0  0  0  0  0
    5.5269  -51.3131   17.4406 C   0  0  2  0  0  0  0  0  0  0  0  0
    6.1207  -51.4795   18.7244 O   0  0  0  0  0  0  0  0  0  0  0  0
    6.5808  -48.0003   14.1619 C   0  0  2  0  0  0  0  0  0  0  0  0
    1.7426  -47.6967   11.3105 C   0  0  2  0  0  0  0  0  0  0  0  0
    2.9661  -47.3361   11.9355 O   0  0  0  0  0  0  0  0  0  0  0  0
   -0.1153  -51.9652    6.7897 C   0  0  2  0  0  0  0  0  0  0  0  0
   -1.3303  -51.2018    6.6685 O   0  0  0  0  0  0  0  0  0  0  0  0
   -5.3673  -51.4521    4.8181 C   0  0  2  0  0  0  0  0  0  0  0  0
   -6.7505  -51.4351    5.2340 O   0  0  0  0  0  0  0  0  0  0  0  0
    6.6300  -51.0447   16.3772 C   0  0  2  0  0  0  0  0  0  0  0  0
    5.9742  -50.8950   15.0593 O   0  0  0  0  0  0  0  0  0  0  0  0
    5.8473  -47.2977   12.9790 C   0  0  2  0  0  0  0  0  0  0  0  0
    5.0603  -48.3027   12.2958 O   0  0  0  0  0  0  0  0  0  0  0  0
    0.6589  -47.7625   12.3809 C   0  0  0  0  0  0  0  0  0  0  0  0
    0.3515  -46.4101   12.7521 O   0  0  0  0  0  0  0  0  0  0  0  0
    0.2089  -52.1264    8.2629 C   0  0  1  0  0  0  0  0  0  0  0  0
    0.5446  -51.0413    9.1528 O   0  0  0  0  0  0  0  0  0  0  0  0
   -4.5889  -52.6586    5.3359 C   0  0  2  0  0  0  0  0  0  0  0  0
   -3.1515  -52.5927    5.1240 O   0  0  0  0  0  0  0  0  0  0  0  0
    7.6073  -52.1731   16.2836 C   0  0  0  0  0  0  0  0  0  0  0  0
    8.8019  -51.6692   15.7499 O   0  0  0  0  0  0  0  0  0  0  0  0
    6.8944  -46.6344   12.0114 C   0  0  1  0  0  0  0  0  0  0  0  0
    6.1665  -45.9396   10.9405 O   0  0  0  0  0  0  0  0  0  0  0  0
   -0.8352  -53.0099    9.0334 C   0  0  0  0  0  0  0  0  0  0  0  0
   -2.1840  -52.3992    9.1178 N   0  0  0  0  0  0  0  0  0  0  0  0
   -4.9730  -54.0890    4.9640 C   0  0  0  0  0  0  0  0  0  0  0  0
   -4.1611  -55.0445    5.7137 O   0  0  0  0  0  0  0  0  0  0  0  0
  1  2  1  1  0  0  0
  1  8  1  0  0  0  0
  1 36  1  0  0  0  0
  3  4  1  6  0  0  0
  3 10  1  0  0  0  0
  3 47  1  0  0  0  0
  5 11  1  0  0  0  0
  5 30  1  0  0  0  0
  5 38  1  1  0  0  0
  6 21  1  1  0  0  0
  6 42  1  0  0  0  0
  7 15  1  0  0  0  0
  7 44  1  0  0  0  0
  7 32  1  1  0  0  0
  8  9  1  1  0  0  0
  8 17  1  0  0  0  0
 11 12  1  6  0  0  0
 11 20  1  0  0  0  0
 13  6  1  0  0  0  0
 13 14  1  1  0  0  0
 15 16  1  6  0  0  0
 15 24  1  0  0  0  0
 17 26  1  0  0  0  0
 18 10  1  0  0  0  0
 18 19  1  1  0  0  0
 20 21  1  6  0  0  0
 20 29  1  0  0  0  0
 22 13  1  0  0  0  0
 22 23  1  1  0  0  0
 24 25  1  6  0  0  0
 24 33  1  0  0  0  0
 26 27  1  1  0  0  0
 26 35  1  0  0  0  0
 28  2  1  1  0  0  0
 28 18  1  0  0  0  0
 29 30  1  0  0  0  0
 29 39  1  1  0  0  0
 31 22  1  0  0  0  0
 31 32  1  1  0  0  0
 31 41  1  0  0  0  0
 33 34  1  1  0  0  0
 33 43  1  0  0  0  0
 35 36  1  0  0  0  0
 35 45  1  6  0  0  0
 37 28  1  0  0  0  0
 37 38  1  6  0  0  0
 39 40  1  0  0  0  0
 41 42  1  0  0  0  0
 41 49  1  1  0  0  0
 43 44  1  0  0  0  0
 43 51  1  6  0  0  0
 45 46  1  0  0  0  0
 47 37  1  0  0  0  0
 47 48  1  6  0  0  0
 49 50  1  0  0  0  0
 51 52  1  0  0  0  0
M  END
>  <CHROM.1>
-169.83528064,175.13808451,-178.86021169,-177.91932965,79.26107265,-154.92062366
-172.66910743,95.34166115,-156.82917026,167.55094347,-66.10518707,-173.57260259
2.10112761,-49.78535701,10.61552173,0.33954619,0.71202212,2.35414139

>  <Name>
2fd0_lig

>  <RI>
2.89522e+07

>  <Rbt.Current_Directory>
/home/itssahil/PROJECTS/Mol_Feturizer/New_Systems/rnas/2fd0

>  <Rbt.Executable>
rbdock ($Id: //depot/dev/client3/rdock/2013.1/src/exe/rbdock.cxx#4 $)

>  <Rbt.Library>
libRbt.so (2013.1, Build901 2013/11/27)

>  <Rbt.Parameter_File>
/export/apps/rDock/src/rDock_2013.1_src/data/scripts/dock_solv.prm

>  <Rbt.Receptor>
prm/pocket_docking_2.prm

>  <SCORE>
-20.2943

>  <SCORE.INTER>
-16.3206

>  <SCORE.INTER.CONST>
1

>  <SCORE.INTER.POLAR>
-1.5712

>  <SCORE.INTER.ROT>
12

>  <SCORE.INTER.SOLV>
18.063

>  <SCORE.INTER.VDW>
-23.2641

>  <SCORE.INTER.norm>
-0.313858

>  <SCORE.INTRA>
-5.37414

>  <SCORE.INTRA.DIHEDRAL>
-10.0371

>  <SCORE.INTRA.DIHEDRAL.0>
23.9727

>  <SCORE.INTRA.POLAR>
0

>  <SCORE.INTRA.POLAR.0>
0

>  <SCORE.INTRA.REPUL>
0

>  <SCORE.INTRA.REPUL.0>
0

>  <SCORE.INTRA.SOLV>
-1.27865

>  <SCORE.INTRA.SOLV.lig_0>
-115.028

>  <SCORE.INTRA.VDW>
0.283745

>  <SCORE.INTRA.VDW.0>
-6.82393

>  <SCORE.INTRA.norm>
-0.103349

>  <SCORE.RESTR>
1.40049

>  <SCORE.RESTR.CAVITY>
1.40049

>  <SCORE.RESTR.norm>
0.0269325

>  <SCORE.SYSTEM>
0

>  <SCORE.SYSTEM.CONST>
0

>  <SCORE.SYSTEM.DIHEDRAL>
0

>  <SCORE.SYSTEM.SOLV>
0

>  <SCORE.SYSTEM.norm>
0

>  <SCORE.heavy>
52

>  <SCORE.norm>
-0.390275

>  <RMSD>
1.047

$$$$
2fd0_lig
 OpenBabel11021811433D
libRbt.so/2013.1/901 2013/11/27
 52 56  0  0  0  0  0  0  0  0999 V2000
    4.8273  -49.6734   14.7704 C   0  0  2  0  0  0  0  0  0  0  0  0
    5.5424  -48.4463   14.9702 O   0  0  0  0  0  0  0  0  0  0  0  0
    7.5856  -45.4577   12.5647 C   0  0  2  0  0  0  0  0  0  0  0  0
    8.5152  -44.8272   11.6133 N   0  0  0  0  0  0  0  0  0  0  0  0
    3.9776  -47.9101   11.1428 C   0  0  1  0  0  0  0  0  0  0  0  0
    1.3935  -50.1011    8.5202 C   0  0  1  0  0  0  0  0  0  0  0  0
   -2.6766  -51.5105    5.5735 C   0  0  1  0  0  0  0  0  0  0  0  0
    3.7950  -49.8470   15.9433 C   0  0  2  0  0  0  0  0  0  0  0  0
    2.8836  -48.7150   16.0359 N   0  0  0  0  0  0  0  0  0  0  0  0
    8.3942  -46.2189   13.7047 C   0  0  0  0  0  0  0  0  0  0  0  0
    3.3518  -49.2298   10.7303 C   0  0  2  0  0  0  0  0  0  0  0  0
    4.0461  -49.8424    9.6074 O   0  0  0  0  0  0  0  0  0  0  0  0
    0.9636  -49.8225    7.0046 C   0  0  2  0  0  0  0  0  0  0  0  0
   -0.1980  -48.8933    6.9542 N   0  0  0  0  0  0  0  0  0  0  0  0
   -3.7014  -50.5276    6.1830 C   0  0  1  0  0  0  0  0  0  0  0  0
   -3.1849  -49.1782    6.0723 O   0  0  0  0  0  0  0  0  0  0  0  0
    4.5475  -50.0899   17.3039 C   0  0  0  0  0  0  0  0  0  0  0  0
    7.3800  -46.8953   14.7455 C   0  0  2  0  0  0  0  0  0  0  0  0
    8.1026  -47.6083   15.8091 N   0  0  0  0  0  0  0  0  0  0  0  0
    1.8980  -48.8572   10.4934 C   0  0  2  0  0  0  0  0  0  0  0  0
    1.5846  -48.8566    9.1271 O   0  0  0  0  0  0  0  0  0  0  0  0
    0.7384  -51.2572    6.2963 C   0  0  1  0  0  0  0  0  0  0  0  0
    1.9557  -52.0134    6.4280 O   0  0  0  0  0  0  0  0  0  0  0  0
   -5.1406  -50.5423    5.6003 C   0  0  1  0  0  0  0  0  0  0  0  0
   -5.2090  -49.5504    4.5678 O   0  0  0  0  0  0  0  0  0  0  0  0
    5.4969  -51.3205   17.1335 C   0  0  2  0  0  0  0  0  0  0  0  0
    6.1849  -51.5854   18.3520 O   0  0  0  0  0  0  0  0  0  0  0  0
    6.4466  -47.8765   13.9828 C   0  0  2  0  0  0  0  0  0  0  0  0
    1.6773  -47.3993   10.9627 C   0  0  2  0  0  0  0  0  0  0  0  0
    2.9136  -47.0872   11.5886 O   0  0  0  0  0  0  0  0  0  0  0  0
   -0.4178  -52.1166    7.0304 C   0  0  2  0  0  0  0  0  0  0  0  0
   -1.6139  -51.3333    6.8587 O   0  0  0  0  0  0  0  0  0  0  0  0
   -5.6279  -51.8926    5.0261 C   0  0  2  0  0  0  0  0  0  0  0  0
   -7.0019  -52.0261    5.4515 O   0  0  0  0  0  0  0  0  0  0  0  0
    6.5208  -51.0310   15.9988 C   0  0  2  0  0  0  0  0  0  0  0  0
    5.7676  -50.7782   14.7505 O   0  0  0  0  0  0  0  0  0  0  0  0
    5.6733  -47.1901   12.8159 C   0  0  2  0  0  0  0  0  0  0  0  0
    4.8797  -48.2085   12.1608 O   0  0  0  0  0  0  0  0  0  0  0  0
    0.5618  -47.2105   11.9846 C   0  0  0  0  0  0  0  0  0  0  0  0
    0.8490  -48.0839   13.0873 O   0  0  0  0  0  0  0  0  0  0  0  0
   -0.0512  -52.1221    8.5024 C   0  0  1  0  0  0  0  0  0  0  0  0
    0.3437  -50.9554    9.2541 O   0  0  0  0  0  0  0  0  0  0  0  0
   -4.7321  -53.0394    5.4867 C   0  0  2  0  0  0  0  0  0  0  0  0
   -3.3099  -52.8269    5.2683 O   0  0  0  0  0  0  0  0  0  0  0  0
    7.4385  -52.1878   15.7608 C   0  0  0  0  0  0  0  0  0  0  0  0
    8.2706  -52.3193   16.8816 O   0  0  0  0  0  0  0  0  0  0  0  0
    6.6861  -46.5216   11.8160 C   0  0  1  0  0  0  0  0  0  0  0  0
    5.9216  -45.8422   10.7608 O   0  0  0  0  0  0  0  0  0  0  0  0
   -1.0946  -52.8801    9.3974 C   0  0  0  0  0  0  0  0  0  0  0  0
   -0.4994  -53.5105   10.6007 N   0  0  0  0  0  0  0  0  0  0  0  0
   -4.9814  -54.4832    5.0565 C   0  0  0  0  0  0  0  0  0  0  0  0
   -6.2320  -54.9755    5.6295 O   0  0  0  0  0  0  0  0  0  0  0  0
  1  2  1  1  0  0  0
  1  8  1  0  0  0  0
  1 36  1  0  0  0  0
  3  4  1  6  0  0  0
  3 10  1  0  0  0  0
  3 47  1  0  0  0  0
  5 11  1  0  0  0  0
  5 30  1  0  0  0  0
  5 38  1  1  0  0  0
  6 21  1  1  0  0  0
  6 42  1  0  0  0  0
  7 15  1  0  0  0  0
  7 44  1  0  0  0  0
  7 32  1  1  0  0  0
  8  9  1  1  0  0  0
  8 17  1  0  0  0  0
 11 12  1  6  0  0  0
 11 20  1  0  0  0  0
 13  6  1  0  0  0  0
 13 14  1  1  0  0  0
 15 16  1  6  0  0  0
 15 24  1  0  0  0  0
 17 26  1  0  0  0  0
 18 10  1  0  0  0  0
 18 19  1  1  0  0  0
 20 21  1  6  0  0  0
 20 29  1  0  0  0  0
 22 13  1  0  0  0  0
 22 23  1  1  0  0  0
 24 25  1  6  0  0  0
 24 33  1  0  0  0  0
 26 27  1  1  0  0  0
 26 35  1  0  0  0  0
 28  2  1  1  0  0  0
 28 18  1  0  0  0  0
 29 30  1  0  0  0  0
 29 39  1  1  0  0  0
 31 22  1  0  0  0  0
 31 32  1  1  0  0  0
 31 41  1  0  0  0  0
 33 34  1  1  0  0  0
 33 43  1  0  0  0  0
 35 36  1  0  0  0  0
 35 45  1  6  0  0  0
 37 28  1  0  0  0  0
 37 38  1  6  0  0  0
 39 40  1  0  0  0  0
 41 42  1  0  0  0  0
 41 49  1  1  0  0  0
 43 44  1  0  0  0  0
 43 51  1  6  0  0  0
 45 46  1  0  0  0  0
 47 37  1  0  0  0  0
 47 48  1  6  0  0  0
 49 50  1  0  0  0  0
 51 52  1  0  0  0  0
M  END
>  <CHROM.1>
-171.34449546,-179.81042405,176.57215198,173.15666108,77.06230764,-159.63952661
55.28339334,91.49606647,-68.26419269,174.41337573,149.81511835,-66.66023729
1.91327230,-49.88272404,10.62154335,0.28919354,0.70477773,2.37251549

>  <Name>
2fd0_lig

>  <RI>
2.89522e+07

>  <Rbt.Current_Directory>
/home/itssahil/PROJECTS/Mol_Feturizer/New_Systems/rnas/2fd0

>  <Rbt.Executable>
rbdock ($Id: //depot/dev/client3/rdock/2013.1/src/exe/rbdock.cxx#4 $)

>  <Rbt.Library>
libRbt.so (2013.1, Build901 2013/11/27)

>  <Rbt.Parameter_File>
/export/apps/rDock/src/rDock_2013.1_src/data/scripts/dock_solv.prm

>  <Rbt.Receptor>
prm/pocket_docking_2.prm

>  <SCORE>
-24.7495

>  <SCORE.INTER>
-18.189

>  <SCORE.INTER.CONST>
1

>  <SCORE.INTER.POLAR>
-1.7574

>  <SCORE.INTER.ROT>
12

>  <SCORE.INTER.SOLV>
17.903

>  <SCORE.INTER.VDW>
-23.8356

>  <SCORE.INTER.norm>
-0.349788

>  <SCORE.INTRA>
-6.58728

>  <SCORE.INTRA.DIHEDRAL>
-12.2902

>  <SCORE.INTRA.DIHEDRAL.0>
23.9727

>  <SCORE.INTRA.POLAR>
0

>  <SCORE.INTRA.POLAR.0>
0

>  <SCORE.INTRA.REPUL>
0

>  <SCORE.INTRA.REPUL.0>
0

>  <SCORE.INTRA.SOLV>
-3.23041

>  <SCORE.INTRA.SOLV.lig_0>
-115.028

>  <SCORE.INTRA.VDW>
1.17301

>  <SCORE.INTRA.VDW.0>
-6.82393

>  <SCORE.INTRA.norm>
-0.126678

>  <SCORE.RESTR>
0.026767

>  <SCORE.RESTR.CAVITY>
0.026767

>  <SCORE.RESTR.norm>
0.000514749

>  <SCORE.SYSTEM>
0

>  <SCORE.SYSTEM.CONST>
0

>  <SCORE.SYSTEM.DIHEDRAL>
0

>  <SCORE.SYSTEM.SOLV>
0

>  <SCORE.SYSTEM.norm>
0

>  <SCORE.heavy>
52

>  <SCORE.norm>
-0.475952

>  <RMSD>
1.074

$$$$
2fd0_lig
 OpenBabel11021811433D
libRbt.so/2013.1/901 2013/11/27
 52 56  0  0  0  0  0  0  0  0999 V2000
    4.8888  -49.8787   14.9347 C   0  0  2  0  0  0  0  0  0  0  0  0
    5.5299  -48.6055   15.0923 O   0  0  0  0  0  0  0  0  0  0  0  0
    7.6957  -45.6731   12.7252 C   0  0  2  0  0  0  0  0  0  0  0  0
    8.6651  -45.0666   11.7982 N   0  0  0  0  0  0  0  0  0  0  0  0
    4.0206  -48.0715   11.2831 C   0  0  1  0  0  0  0  0  0  0  0  0
    1.4519  -50.2262    8.6196 C   0  0  1  0  0  0  0  0  0  0  0  0
   -2.6171  -51.6580    5.6490 C   0  0  1  0  0  0  0  0  0  0  0  0
    3.8982  -50.0919   16.1368 C   0  0  2  0  0  0  0  0  0  0  0  0
    2.9200  -49.0172   16.2307 N   0  0  0  0  0  0  0  0  0  0  0  0
    8.4554  -46.4353   13.8978 C   0  0  0  0  0  0  0  0  0  0  0  0
    3.4323  -49.3920   10.8208 C   0  0  2  0  0  0  0  0  0  0  0  0
    4.1171  -49.9212    9.6506 O   0  0  0  0  0  0  0  0  0  0  0  0
    1.0098  -49.8882    7.1197 C   0  0  2  0  0  0  0  0  0  0  0  0
   -0.1784  -48.9917    7.1155 N   0  0  0  0  0  0  0  0  0  0  0  0
   -3.5431  -50.5398    6.1781 C   0  0  1  0  0  0  0  0  0  0  0  0
   -2.9131  -49.2557    5.9459 O   0  0  0  0  0  0  0  0  0  0  0  0
    4.6974  -50.2587   17.4821 C   0  0  0  0  0  0  0  0  0  0  0  0
    7.3980  -47.0854   14.9119 C   0  0  2  0  0  0  0  0  0  0  0  0
    8.0750  -47.7989   16.0049 N   0  0  0  0  0  0  0  0  0  0  0  0
    1.9598  -49.0636   10.6408 C   0  0  2  0  0  0  0  0  0  0  0  0
    1.6087  -49.0070    9.2850 O   0  0  0  0  0  0  0  0  0  0  0  0
    0.8241  -51.2934    6.3439 C   0  0  1  0  0  0  0  0  0  0  0  0
    2.0632  -52.0193    6.4375 O   0  0  0  0  0  0  0  0  0  0  0  0
   -4.9869  -50.4782    5.6101 C   0  0  1  0  0  0  0  0  0  0  0  0
   -4.9847  -49.5772    4.4955 O   0  0  0  0  0  0  0  0  0  0  0  0
    5.7179  -51.4310   17.3114 C   0  0  2  0  0  0  0  0  0  0  0  0
    6.4506  -51.6268   18.5168 O   0  0  0  0  0  0  0  0  0  0  0  0
    6.4740  -48.0597   14.1291 C   0  0  2  0  0  0  0  0  0  0  0  0
    1.6990  -47.6402   11.1890 C   0  0  2  0  0  0  0  0  0  0  0  0
    2.9400  -47.3128   11.7976 O   0  0  0  0  0  0  0  0  0  0  0  0
   -0.3046  -52.2200    7.0378 C   0  0  2  0  0  0  0  0  0  0  0  0
   -1.5233  -51.4645    6.9055 O   0  0  0  0  0  0  0  0  0  0  0  0
   -5.5984  -51.8251    5.1599 C   0  0  2  0  0  0  0  0  0  0  0  0
   -6.9721  -51.8001    5.6059 O   0  0  0  0  0  0  0  0  0  0  0  0
    6.6937  -51.1020   16.1455 C   0  0  2  0  0  0  0  0  0  0  0  0
    5.8959  -50.9229   14.9123 O   0  0  0  0  0  0  0  0  0  0  0  0
    5.7493  -47.3731   12.9315 C   0  0  2  0  0  0  0  0  0  0  0  0
    4.9610  -48.3856   12.2609 O   0  0  0  0  0  0  0  0  0  0  0  0
    0.6062  -47.5449   12.2477 C   0  0  0  0  0  0  0  0  0  0  0  0
    0.9912  -48.4077   13.3287 O   0  0  0  0  0  0  0  0  0  0  0  0
    0.0662  -52.2851    8.5074 C   0  0  1  0  0  0  0  0  0  0  0  0
    0.4293  -51.1447    9.3134 O   0  0  0  0  0  0  0  0  0  0  0  0
   -4.7987  -53.0020    5.7120 C   0  0  2  0  0  0  0  0  0  0  0  0
   -3.3669  -52.9350    5.4649 O   0  0  0  0  0  0  0  0  0  0  0  0
    7.6763  -52.2040   15.9066 C   0  0  0  0  0  0  0  0  0  0  0  0
    8.4825  -52.3214   17.0476 O   0  0  0  0  0  0  0  0  0  0  0  0
    6.8039  -46.7303   11.9582 C   0  0  1  0  0  0  0  0  0  0  0  0
    6.0842  -46.0498   10.8727 O   0  0  0  0  0  0  0  0  0  0  0  0
   -0.9523  -53.1150    9.3667 C   0  0  0  0  0  0  0  0  0  0  0  0
   -0.4673  -53.4184   10.7350 N   0  0  0  0  0  0  0  0  0  0  0  0
   -5.1791  -54.4501    5.4116 C   0  0  0  0  0  0  0  0  0  0  0  0
   -5.1337  -54.6996    3.9728 O   0  0  0  0  0  0  0  0  0  0  0  0
  1  2  1  1  0  0  0
  1  8  1  0  0  0  0
  1 36  1  0  0  0  0
  3  4  1  6  0  0  0
  3 10  1  0  0  0  0
  3 47  1  0  0  0  0
  5 11  1  0  0  0  0
  5 30  1  0  0  0  0
  5 38  1  1  0  0  0
  6 21  1  1  0  0  0
  6 42  1  0  0  0  0
  7 15  1  0  0  0  0
  7 44  1  0  0  0  0
  7 32  1  1  0  0  0
  8  9  1  1  0  0  0
  8 17  1  0  0  0  0
 11 12  1  6  0  0  0
 11 20  1  0  0  0  0
 13  6  1  0  0  0  0
 13 14  1  1  0  0  0
 15 16  1  6  0  0  0
 15 24  1  0  0  0  0
 17 26  1  0  0  0  0
 18 10  1  0  0  0  0
 18 19  1  1  0  0  0
 20 21  1  6  0  0  0
 20 29  1  0  0  0  0
 22 13  1  0  0  0  0
 22 23  1  1  0  0  0
 24 25  1  6  0  0  0
 24 33  1  0  0  0  0
 26 27  1  1  0  0  0
 26 35  1  0  0  0  0
 28  2  1  1  0  0  0
 28 18  1  0  0  0  0
 29 30  1  0  0  0  0
 29 39  1  1  0  0  0
 31 22  1  0  0  0  0
 31 32  1  1  0  0  0
 31 41  1  0  0  0  0
 33 34  1  1  0  0  0
 33 43  1  0  0  0  0
 35 36  1  0  0  0  0
 35 45  1  6  0  0  0
 37 28  1  0  0  0  0
 37 38  1  6  0  0  0
 39 40  1  0  0  0  0
 41 42  1  0  0  0  0
 41 49  1  1  0  0  0
 43 44  1  0  0  0  0
 43 51  1  6  0  0  0
 45 46  1  0  0  0  0
 47 37  1  0  0  0  0
 47 48  1  6  0  0  0
 49 50  1  0  0  0  0
 51 52  1  0  0  0  0
M  END
>  <CHROM.1>
-177.51963141,179.22433431,178.17480885,-178.41243723,76.80431125,-154.09838093
58.24435005,94.24810563,-64.21031084,169.29607983,168.29091627,60.42597407
2.02204661,-49.99811526,10.70877562,0.32540232,0.70548515,2.35325335

>  <Name>
2fd0_lig

>  <RI>
2.89522e+07

>  <Rbt.Current_Directory>
/home/itssahil/PROJECTS/Mol_Feturizer/New_Systems/rnas/2fd0

>  <Rbt.Executable>
rbdock ($Id: //depot/dev/client3/rdock/2013.1/src/exe/rbdock.cxx#4 $)

>  <Rbt.Library>
libRbt.so (2013.1, Build901 2013/11/27)

>  <Rbt.Parameter_File>
/export/apps/rDock/src/rDock_2013.1_src/data/scripts/dock_solv.prm

>  <Rbt.Receptor>
prm/pocket_docking_2.prm

>  <SCORE>
-24.4102

>  <SCORE.INTER>
-18.1333

>  <SCORE.INTER.CONST>
1

>  <SCORE.INTER.POLAR>
-1.76884

>  <SCORE.INTER.ROT>
12

>  <SCORE.INTER.SOLV>
17.7442

>  <SCORE.INTER.VDW>
-23.7074

>  <SCORE.INTER.norm>
-0.348717

>  <SCORE.INTRA>
-6.51841

>  <SCORE.INTRA.DIHEDRAL>
-12.9114

>  <SCORE.INTRA.DIHEDRAL.0>
23.9727

>  <SCORE.INTRA.POLAR>
0

>  <SCORE.INTRA.POLAR.0>
0

>  <SCORE.INTRA.REPUL>
0

>  <SCORE.INTRA.REPUL.0>
0

>  <SCORE.INTRA.SOLV>
-2.36122

>  <SCORE.INTRA.SOLV.lig_0>
-115.028

>  <SCORE.INTRA.VDW>
1.1179

>  <SCORE.INTRA.VDW.0>
-6.82393

>  <SCORE.INTRA.norm>
-0.125354

>  <SCORE.RESTR>
0.241473

>  <SCORE.RESTR.CAVITY>
0.241473

>  <SCORE.RESTR.norm>
0.00464371

>  <SCORE.SYSTEM>
0

>  <SCORE.SYSTEM.CONST>
0

>  <SCORE.SYSTEM.DIHEDRAL>
0

>  <SCORE.SYSTEM.SOLV>
0

>  <SCORE.SYSTEM.norm>
0

>  <SCORE.heavy>
52

>  <SCORE.norm>
-0.469427

>  <RMSD>
1.130

$$$$
2fd0_lig
 OpenBabel11021811433D
libRbt.so/2013.1/901 2013/11/27
 52 56  0  0  0  0  0  0  0  0999 V2000
    4.9433  -49.9410   15.0469 C   0  0  2  0  0  0  0  0  0  0  0  0
    5.5710  -48.6600   15.1954 O   0  0  0  0  0  0  0  0  0  0  0  0
    7.5983  -45.6623   12.7878 C   0  0  2  0  0  0  0  0  0  0  0  0
    8.5194  -45.0287   11.8302 N   0  0  0  0  0  0  0  0  0  0  0  0
    3.9432  -48.0858   11.4107 C   0  0  1  0  0  0  0  0  0  0  0  0
    1.5298  -50.2384    8.6296 C   0  0  1  0  0  0  0  0  0  0  0  0
   -2.5239  -51.8370    5.9363 C   0  0  1  0  0  0  0  0  0  0  0  0
    3.8460  -50.0924   16.1624 C   0  0  2  0  0  0  0  0  0  0  0  0
    2.8664  -49.0162   16.1095 N   0  0  0  0  0  0  0  0  0  0  0  0
    8.4171  -46.4352   13.9127 C   0  0  0  0  0  0  0  0  0  0  0  0
    3.4063  -49.4100   10.8990 C   0  0  2  0  0  0  0  0  0  0  0  0
    4.1281  -49.8816    9.7264 O   0  0  0  0  0  0  0  0  0  0  0  0
    0.8587  -49.9068    7.2157 C   0  0  2  0  0  0  0  0  0  0  0  0
   -0.4338  -49.1937    7.4061 N   0  0  0  0  0  0  0  0  0  0  0  0
   -3.4317  -50.7753    6.5970 C   0  0  1  0  0  0  0  0  0  0  0  0
   -2.7747  -49.4854    6.5312 O   0  0  0  0  0  0  0  0  0  0  0  0
    4.5178  -50.1866   17.5824 C   0  0  0  0  0  0  0  0  0  0  0  0
    7.4123  -47.1150   14.9604 C   0  0  2  0  0  0  0  0  0  0  0  0
    8.1444  -47.8388   16.0102 N   0  0  0  0  0  0  0  0  0  0  0  0
    1.9272  -49.1238   10.7020 C   0  0  2  0  0  0  0  0  0  0  0  0
    1.5979  -49.0379    9.3423 O   0  0  0  0  0  0  0  0  0  0  0  0
    0.7743  -51.2909    6.3861 C   0  0  1  0  0  0  0  0  0  0  0  0
    2.1043  -51.8317    6.2883 O   0  0  0  0  0  0  0  0  0  0  0  0
   -4.8696  -50.6132    6.0338 C   0  0  1  0  0  0  0  0  0  0  0  0
   -4.8411  -49.5796    5.0413 O   0  0  0  0  0  0  0  0  0  0  0  0
    5.5463  -51.3643   17.5681 C   0  0  2  0  0  0  0  0  0  0  0  0
    6.1647  -51.4949   18.8442 O   0  0  0  0  0  0  0  0  0  0  0  0
    6.4659  -48.0867   14.2016 C   0  0  2  0  0  0  0  0  0  0  0  0
    1.6107  -47.7266   11.2870 C   0  0  2  0  0  0  0  0  0  0  0  0
    2.8297  -47.3781   11.9275 O   0  0  0  0  0  0  0  0  0  0  0  0
   -0.1172  -52.4000    7.1539 C   0  0  2  0  0  0  0  0  0  0  0  0
   -1.4362  -51.8253    7.2127 O   0  0  0  0  0  0  0  0  0  0  0  0
   -5.5042  -51.8801    5.4148 C   0  0  2  0  0  0  0  0  0  0  0  0
   -6.8805  -51.8830    5.8534 O   0  0  0  0  0  0  0  0  0  0  0  0
    6.6259  -51.0952   16.4810 C   0  0  2  0  0  0  0  0  0  0  0  0
    5.9452  -50.9830   15.1719 O   0  0  0  0  0  0  0  0  0  0  0  0
    5.6818  -47.3886   13.0489 C   0  0  2  0  0  0  0  0  0  0  0  0
    4.8763  -48.3988   12.3957 O   0  0  0  0  0  0  0  0  0  0  0  0
    0.4973  -47.6983   12.3281 C   0  0  0  0  0  0  0  0  0  0  0  0
    0.8815  -48.5970   13.3797 O   0  0  0  0  0  0  0  0  0  0  0  0
    0.4421  -52.4709    8.5623 C   0  0  1  0  0  0  0  0  0  0  0  0
    0.7415  -51.3239    9.3851 O   0  0  0  0  0  0  0  0  0  0  0  0
   -4.7321  -53.1332    5.8187 C   0  0  2  0  0  0  0  0  0  0  0  0
   -3.2975  -53.0651    5.5893 O   0  0  0  0  0  0  0  0  0  0  0  0
    7.6231  -52.2064   16.3916 C   0  0  0  0  0  0  0  0  0  0  0  0
    8.7280  -51.7404   15.6651 O   0  0  0  0  0  0  0  0  0  0  0  0
    6.6857  -46.7169   12.0420 C   0  0  1  0  0  0  0  0  0  0  0  0
    5.9117  -46.0266   11.0009 O   0  0  0  0  0  0  0  0  0  0  0  0
   -0.3338  -53.4750    9.4865 C   0  0  0  0  0  0  0  0  0  0  0  0
   -1.6792  -52.9967    9.8870 N   0  0  0  0  0  0  0  0  0  0  0  0
   -5.1387  -54.5240    5.3368 C   0  0  0  0  0  0  0  0  0  0  0  0
   -5.0019  -54.6191    3.8853 O   0  0  0  0  0  0  0  0  0  0  0  0
  1  2  1  1  0  0  0
  1  8  1  0  0  0  0
  1 36  1  0  0  0  0
  3  4  1  6  0  0  0
  3 10  1  0  0  0  0
  3 47  1  0  0  0  0
  5 11  1  0  0  0  0
  5 30  1  0  0  0  0
  5 38  1  1  0  0  0
  6 21  1  1  0  0  0
  6 42  1  0  0  0  0
  7 15  1  0  0  0  0
  7 44  1  0  0  0  0
  7 32  1  1  0  0  0
  8  9  1  1  0  0  0
  8 17  1  0  0  0  0
 11 12  1  6  0  0  0
 11 20  1  0  0  0  0
 13  6  1  0  0  0  0
 13 14  1  1  0  0  0
 15 16  1  6  0  0  0
 15 24  1  0  0  0  0
 17 26  1  0  0  0  0
 18 10  1  0  0  0  0
 18 19  1  1  0  0  0
 20 21  1  6  0  0  0
 20 29  1  0  0  0  0
 22 13  1  0  0  0  0
 22 23  1  1  0  0  0
 24 25  1  6  0  0  0
 24 33  1  0  0  0  0
 26 27  1  1  0  0  0
 26 35  1  0  0  0  0
 28  2  1  1  0  0  0
 28 18  1  0  0  0  0
 29 30  1  0  0  0  0
 29 39  1  1  0  0  0
 31 22  1  0  0  0  0
 31 32  1  1  0  0  0
 31 41  1  0  0  0  0
 33 34  1  1  0  0  0
 33 43  1  0  0  0  0
 35 36  1  0  0  0  0
 35 45  1  6  0  0  0
 37 28  1  0  0  0  0
 37 38  1  6  0  0  0
 39 40  1  0  0  0  0
 41 42  1  0  0  0  0
 41 49  1  1  0  0  0
 43 44  1  0  0  0  0
 43 51  1  6  0  0  0
 45 46  1  0  0  0  0
 47 37  1  0  0  0  0
 47 48  1  6  0  0  0
 49 50  1  0  0  0  0
 51 52  1  0  0  0  0
M  END
>  <CHROM.1>
-168.94019537,175.12004409,168.72480368,-165.61551574,75.03228531,-153.75794887
57.32722962,79.98296046,-164.77043601,173.00831767,-72.23110743,64.18642950
2.01307977,-50.03504567,10.80115263,0.34268484,0.69956549,2.30252027

>  <Name>
2fd0_lig

>  <RI>
2.89522e+07

>  <Rbt.Current_Directory>
/home/itssahil/PROJECTS/Mol_Feturizer/New_Systems/rnas/2fd0

>  <Rbt.Executable>
rbdock ($Id: //depot/dev/client3/rdock/2013.1/src/exe/rbdock.cxx#4 $)

>  <Rbt.Library>
libRbt.so (2013.1, Build901 2013/11/27)

>  <Rbt.Parameter_File>
/export/apps/rDock/src/rDock_2013.1_src/data/scripts/dock_solv.prm

>  <Rbt.Receptor>
prm/pocket_docking_2.prm

>  <SCORE>
-23.4956

>  <SCORE.INTER>
-18.487

>  <SCORE.INTER.CONST>
1

>  <SCORE.INTER.POLAR>
-1.7838

>  <SCORE.INTER.ROT>
12

>  <SCORE.INTER.SOLV>
16.607

>  <SCORE.INTER.VDW>
-23.5143

>  <SCORE.INTER.norm>
-0.35552

>  <SCORE.INTRA>
-5.1395

>  <SCORE.INTRA.DIHEDRAL>
-12.8175

>  <SCORE.INTRA.DIHEDRAL.0>
23.9727

>  <SCORE.INTRA.POLAR>
0

>  <SCORE.INTRA.POLAR.0>
0

>  <SCORE.INTRA.REPUL>
0.0342691

>  <SCORE.INTRA.REPUL.0>
0

>  <SCORE.INTRA.SOLV>
0.148398

>  <SCORE.INTRA.SOLV.lig_0>
-115.028

>  <SCORE.INTRA.VDW>
1.02369

>  <SCORE.INTRA.VDW.0>
-6.82393

>  <SCORE.INTRA.norm>
-0.0988366

>  <SCORE.RESTR>
0.1309

>  <SCORE.RESTR.CAVITY>
0.1309

>  <SCORE.RESTR.norm>
0.00251731

>  <SCORE.SYSTEM>
0

>  <SCORE.SYSTEM.CONST>
0

>  <SCORE.SYSTEM.DIHEDRAL>
0

>  <SCORE.SYSTEM.SOLV>
0

>  <SCORE.SYSTEM.norm>
0

>  <SCORE.heavy>
52

>  <SCORE.norm>
-0.451839

>  <RMSD>
1.167

$$$$
2fd0_lig
 OpenBabel11021811433D
libRbt.so/2013.1/901 2013/11/27
 52 56  0  0  0  0  0  0  0  0999 V2000
    4.8152  -49.6596   14.9062 C   0  0  2  0  0  0  0  0  0  0  0  0
    5.5135  -48.4202   15.0878 O   0  0  0  0  0  0  0  0  0  0  0  0
    7.7109  -45.5216   12.7082 C   0  0  2  0  0  0  0  0  0  0  0  0
    8.6881  -44.9292   11.7803 N   0  0  0  0  0  0  0  0  0  0  0  0
    4.1037  -47.9138   11.1934 C   0  0  1  0  0  0  0  0  0  0  0  0
    1.5756  -50.0809    8.5791 C   0  0  1  0  0  0  0  0  0  0  0  0
   -2.4826  -51.6406    5.9087 C   0  0  1  0  0  0  0  0  0  0  0  0
    3.8247  -49.8565   16.1111 C   0  0  2  0  0  0  0  0  0  0  0  0
    2.8960  -48.7420   16.2376 N   0  0  0  0  0  0  0  0  0  0  0  0
    8.4606  -46.2820   13.8883 C   0  0  0  0  0  0  0  0  0  0  0  0
    3.4079  -49.2120   10.8269 C   0  0  2  0  0  0  0  0  0  0  0  0
    4.0942  -49.9230    9.7585 O   0  0  0  0  0  0  0  0  0  0  0  0
    0.9761  -49.8690    7.1111 C   0  0  2  0  0  0  0  0  0  0  0  0
   -0.2624  -49.0453    7.1672 N   0  0  0  0  0  0  0  0  0  0  0  0
   -3.4760  -50.6423    6.5444 C   0  0  1  0  0  0  0  0  0  0  0  0
   -2.8858  -49.3188    6.5361 O   0  0  0  0  0  0  0  0  0  0  0  0
    4.6251  -50.0900   17.4457 C   0  0  0  0  0  0  0  0  0  0  0  0
    7.3946  -46.9167   14.9033 C   0  0  2  0  0  0  0  0  0  0  0  0
    8.0622  -47.6283   16.0032 N   0  0  0  0  0  0  0  0  0  0  0  0
    1.9880  -48.7631   10.5255 C   0  0  2  0  0  0  0  0  0  0  0  0
    1.7147  -48.8134    9.1516 O   0  0  0  0  0  0  0  0  0  0  0  0
    0.8100  -51.3308    6.4429 C   0  0  1  0  0  0  0  0  0  0  0  0
    2.0964  -51.9757    6.4604 O   0  0  0  0  0  0  0  0  0  0  0  0
   -4.8917  -50.5427    5.9143 C   0  0  1  0  0  0  0  0  0  0  0  0
   -4.8702  -49.4874    4.9447 O   0  0  0  0  0  0  0  0  0  0  0  0
    5.5911  -51.3021   17.2399 C   0  0  2  0  0  0  0  0  0  0  0  0
    6.3229  -51.5582   18.4345 O   0  0  0  0  0  0  0  0  0  0  0  0
    6.4652  -47.8885   14.1240 C   0  0  2  0  0  0  0  0  0  0  0  0
    1.8464  -47.2722   10.9148 C   0  0  2  0  0  0  0  0  0  0  0  0
    3.0814  -47.0052   11.5637 O   0  0  0  0  0  0  0  0  0  0  0  0
   -0.1881  -52.2736    7.2968 C   0  0  2  0  0  0  0  0  0  0  0  0
   -1.4597  -51.6005    7.2371 O   0  0  0  0  0  0  0  0  0  0  0  0
   -5.4278  -51.8269    5.2404 C   0  0  2  0  0  0  0  0  0  0  0  0
   -6.8215  -51.9109    5.6105 O   0  0  0  0  0  0  0  0  0  0  0  0
    6.5723  -50.9896   16.0740 C   0  0  2  0  0  0  0  0  0  0  0  0
    5.7746  -50.7467   14.8516 O   0  0  0  0  0  0  0  0  0  0  0  0
    5.7499  -47.2041   12.9195 C   0  0  2  0  0  0  0  0  0  0  0  0
    4.9554  -48.2145   12.2532 O   0  0  0  0  0  0  0  0  0  0  0  0
    0.7160  -46.9628   11.8900 C   0  0  0  0  0  0  0  0  0  0  0  0
    0.9796  -47.7067   13.0893 O   0  0  0  0  0  0  0  0  0  0  0  0
    0.3203  -52.2198    8.7251 C   0  0  1  0  0  0  0  0  0  0  0  0
    0.6825  -51.0094    9.4222 O   0  0  0  0  0  0  0  0  0  0  0  0
   -4.6108  -53.0468    5.6574 C   0  0  2  0  0  0  0  0  0  0  0  0
   -3.1724  -52.8993    5.5003 O   0  0  0  0  0  0  0  0  0  0  0  0
    7.5032  -52.1283   15.8018 C   0  0  0  0  0  0  0  0  0  0  0  0
    8.2714  -52.3457   16.9544 O   0  0  0  0  0  0  0  0  0  0  0  0
    6.8129  -46.5765   11.9454 C   0  0  1  0  0  0  0  0  0  0  0  0
    6.1023  -45.8974   10.8530 O   0  0  0  0  0  0  0  0  0  0  0  0
   -0.5592  -53.0488    9.7269 C   0  0  0  0  0  0  0  0  0  0  0  0
   -0.5120  -54.5119    9.4895 N   0  0  0  0  0  0  0  0  0  0  0  0
   -4.9195  -54.4459    5.1291 C   0  0  0  0  0  0  0  0  0  0  0  0
   -6.2530  -54.8664    5.5529 O   0  0  0  0  0  0  0  0  0  0  0  0
  1  2  1  1  0  0  0
  1  8  1  0  0  0  0
  1 36  1  0  0  0  0
  3  4  1  6  0  0  0
  3 10  1  0  0  0  0
  3 47  1  0  0  0  0
  5 11  1  0  0  0  0
  5 30  1  0  0  0  0
  5 38  1  1  0  0  0
  6 21  1  1  0  0  0
  6 42  1  0  0  0  0
  7 15  1  0  0  0  0
  7 44  1  0  0  0  0
  7 32  1  1  0  0  0
  8  9  1  1  0  0  0
  8 17  1  0  0  0  0
 11 12  1  6  0  0  0
 11 20  1  0  0  0  0
 13  6  1  0  0  0  0
 13 14  1  1  0  0  0
 15 16  1  6  0  0  0
 15 24  1  0  0  0  0
 17 26  1  0  0  0  0
 18 10  1  0  0  0  0
 18 19  1  1  0  0  0
 20 21  1  6  0  0  0
 20 29  1  0  0  0  0
 22 13  1  0  0  0  0
 22 23  1  1  0  0  0
 24 25  1  6  0  0  0
 24 33  1  0  0  0  0
 26 27  1  1  0  0  0
 26 35  1  0  0  0  0
 28  2  1  1  0  0  0
 28 18  1  0  0  0  0
 29 30  1  0  0  0  0
 29 39  1  1  0  0  0
 31 22  1  0  0  0  0
 31 32  1  1  0  0  0
 31 41  1  0  0  0  0
 33 34  1  1  0  0  0
 33 43  1  0  0  0  0
 35 36  1  0  0  0  0
 35 45  1  6  0  0  0
 37 28  1  0  0  0  0
 37 38  1  6  0  0  0
 39 40  1  0  0  0  0
 41 42  1  0  0  0  0
 41 49  1  1  0  0  0
 43 44  1  0  0  0  0
 43 51  1  6  0  0  0
 45 46  1  0  0  0  0
 47 37  1  0  0  0  0
 47 48  1  6  0  0  0
 49 50  1  0  0  0  0
 51 52  1  0  0  0  0
M  END
>  <CHROM.1>
-176.94387484,-177.10532706,168.42344589,-175.08190696,71.76847870,-157.13404798
60.20716826,77.88058521,-61.67831006,174.85138669,66.68911232,-62.80126974
2.03445919,-49.90783000,10.74195147,0.25131824,0.72044748,2.41868164

>  <Name>
2fd0_lig

>  <RI>
2.89522e+07

>  <Rbt.Current_Directory>
/home/itssahil/PROJECTS/Mol_Feturizer/New_Systems/rnas/2fd0

>  <Rbt.Executable>
rbdock ($Id: //depot/dev/client3/rdock/2013.1/src/exe/rbdock.cxx#4 $)

>  <Rbt.Library>
libRbt.so (2013.1, Build901 2013/11/27)

>  <Rbt.Parameter_File>
/export/apps/rDock/src/rDock_2013.1_src/data/scripts/dock_solv.prm

>  <Rbt.Receptor>
prm/pocket_docking_2.prm

>  <SCORE>
-27.0923

>  <SCORE.INTER>
-19.42

>  <SCORE.INTER.CONST>
1

>  <SCORE.INTER.POLAR>
-1.83251

>  <SCORE.INTER.ROT>
12

>  <SCORE.INTER.SOLV>
16.5936

>  <SCORE.INTER.VDW>
-23.9695

>  <SCORE.INTER.norm>
-0.373462

>  <SCORE.INTRA>
-7.67629

>  <SCORE.INTRA.DIHEDRAL>
-16.8717

>  <SCORE.INTRA.DIHEDRAL.0>
23.9727

>  <SCORE.INTRA.POLAR>
0

>  <SCORE.INTRA.POLAR.0>
0

>  <SCORE.INTRA.REPUL>
0

>  <SCORE.INTRA.REPUL.0>
0

>  <SCORE.INTRA.SOLV>
-2.12037

>  <SCORE.INTRA.SOLV.lig_0>
-115.028

>  <SCORE.INTRA.VDW>
1.81973

>  <SCORE.INTRA.VDW.0>
-6.82393

>  <SCORE.INTRA.norm>
-0.147621

>  <SCORE.RESTR>
0.00404737

>  <SCORE.RESTR.CAVITY>
0.00404737

>  <SCORE.RESTR.norm>
7.78341e-05

>  <SCORE.SYSTEM>
0

>  <SCORE.SYSTEM.CONST>
0

>  <SCORE.SYSTEM.DIHEDRAL>
0

>  <SCORE.SYSTEM.SOLV>
0

>  <SCORE.SYSTEM.norm>
0

>  <SCORE.heavy>
52

>  <SCORE.norm>
-0.521005

>  <RMSD>
1.174

$$$$
2fd0_lig
 OpenBabel11021811433D
libRbt.so/2013.1/901 2013/11/27
 52 56  0  0  0  0  0  0  0  0999 V2000
    5.0128  -49.7914   14.9516 C   0  0  2  0  0  0  0  0  0  0  0  0
    5.6566  -48.5322   15.1904 O   0  0  0  0  0  0  0  0  0  0  0  0
    7.9519  -45.5533   13.0110 C   0  0  2  0  0  0  0  0  0  0  0  0
    8.9796  -44.9267   12.1635 N   0  0  0  0  0  0  0  0  0  0  0  0
    4.3992  -47.9907   11.3098 C   0  0  1  0  0  0  0  0  0  0  0  0
    1.7623  -50.1380    8.7802 C   0  0  1  0  0  0  0  0  0  0  0  0
   -2.0067  -51.4656    5.5098 C   0  0  1  0  0  0  0  0  0  0  0  0
    3.8141  -49.9389   15.9580 C   0  0  2  0  0  0  0  0  0  0  0  0
    2.8712  -48.8349   15.8442 N   0  0  0  0  0  0  0  0  0  0  0  0
    8.6320  -46.3127   14.2332 C   0  0  0  0  0  0  0  0  0  0  0  0
    3.6974  -49.2887   10.9545 C   0  0  2  0  0  0  0  0  0  0  0  0
    4.3403  -49.9776    9.8454 O   0  0  0  0  0  0  0  0  0  0  0  0
    1.4478  -49.8993    7.2299 C   0  0  2  0  0  0  0  0  0  0  0  0
    0.3071  -48.9570    7.0680 N   0  0  0  0  0  0  0  0  0  0  0  0
   -2.8948  -50.2586    5.8871 C   0  0  1  0  0  0  0  0  0  0  0  0
   -2.1092  -49.0450    5.7874 O   0  0  0  0  0  0  0  0  0  0  0  0
    4.3500  -50.0855   17.4304 C   0  0  0  0  0  0  0  0  0  0  0  0
    7.5106  -46.9848   15.1607 C   0  0  2  0  0  0  0  0  0  0  0  0
    8.1134  -47.6962   16.2975 N   0  0  0  0  0  0  0  0  0  0  0  0
    2.2620  -48.8470   10.7242 C   0  0  2  0  0  0  0  0  0  0  0  0
    1.9277  -48.8784    9.3633 O   0  0  0  0  0  0  0  0  0  0  0  0
    1.2529  -51.3516    6.5487 C   0  0  1  0  0  0  0  0  0  0  0  0
    2.4459  -52.1192    6.7907 O   0  0  0  0  0  0  0  0  0  0  0  0
   -4.2041  -50.0534    5.0781 C   0  0  1  0  0  0  0  0  0  0  0  0
   -3.9180  -49.1597    3.9946 O   0  0  0  0  0  0  0  0  0  0  0  0
    5.3450  -51.2905   17.4790 C   0  0  2  0  0  0  0  0  0  0  0  0
    5.8400  -51.4687   18.8024 O   0  0  0  0  0  0  0  0  0  0  0  0
    6.6627  -47.9665   14.3045 C   0  0  2  0  0  0  0  0  0  0  0  0
    2.1269  -47.3635   11.1428 C   0  0  2  0  0  0  0  0  0  0  0  0
    3.3878  -47.0963   11.7398 O   0  0  0  0  0  0  0  0  0  0  0  0
    0.0336  -52.1735    7.2210 C   0  0  2  0  0  0  0  0  0  0  0  0
   -1.1349  -51.3802    6.9399 O   0  0  0  0  0  0  0  0  0  0  0  0
   -4.8588  -51.3329    4.5082 C   0  0  2  0  0  0  0  0  0  0  0  0
   -6.2798  -51.1686    4.7093 O   0  0  0  0  0  0  0  0  0  0  0  0
    6.5265  -51.0257   16.5024 C   0  0  2  0  0  0  0  0  0  0  0  0
    5.9721  -50.8635   15.1402 O   0  0  0  0  0  0  0  0  0  0  0  0
    6.0205  -47.2819   13.0596 C   0  0  2  0  0  0  0  0  0  0  0  0
    5.2999  -48.3007   12.3255 O   0  0  0  0  0  0  0  0  0  0  0  0
    1.0392  -47.0783   12.1724 C   0  0  0  0  0  0  0  0  0  0  0  0
   -0.2173  -47.4015   11.5575 O   0  0  0  0  0  0  0  0  0  0  0  0
    0.2923  -52.1397    8.7155 C   0  0  1  0  0  0  0  0  0  0  0  0
    0.6492  -50.9563    9.4600 O   0  0  0  0  0  0  0  0  0  0  0  0
   -4.2887  -52.5830    5.1727 C   0  0  2  0  0  0  0  0  0  0  0  0
   -2.8363  -52.6611    5.1790 O   0  0  0  0  0  0  0  0  0  0  0  0
    7.4991  -52.1617   16.4752 C   0  0  0  0  0  0  0  0  0  0  0  0
    8.6325  -51.7455   15.7626 O   0  0  0  0  0  0  0  0  0  0  0  0
    7.1361  -46.6176   12.1726 C   0  0  1  0  0  0  0  0  0  0  0  0
    6.4906  -45.9397   11.0398 O   0  0  0  0  0  0  0  0  0  0  0  0
   -0.8247  -52.8570    9.5534 C   0  0  0  0  0  0  0  0  0  0  0  0
   -0.8895  -54.3213    9.3277 N   0  0  0  0  0  0  0  0  0  0  0  0
   -4.7532  -53.9862    4.7889 C   0  0  0  0  0  0  0  0  0  0  0  0
   -4.0997  -54.9858    5.6304 O   0  0  0  0  0  0  0  0  0  0  0  0
  1  2  1  1  0  0  0
  1  8  1  0  0  0  0
  1 36  1  0  0  0  0
  3  4  1  6  0  0  0
  3 10  1  0  0  0  0
  3 47  1  0  0  0  0
  5 11  1  0  0  0  0
  5 30  1  0  0  0  0
  5 38  1  1  0  0  0
  6 21  1  1  0  0  0
  6 42  1  0  0  0  0
  7 15  1  0  0  0  0
  7 44  1  0  0  0  0
  7 32  1  1  0  0  0
  8  9  1  1  0  0  0
  8 17  1  0  0  0  0
 11 12  1  6  0  0  0
 11 20  1  0  0  0  0
 13  6  1  0  0  0  0
 13 14  1  1  0  0  0
 15 16  1  6  0  0  0
 15 24  1  0  0  0  0
 17 26  1  0  0  0  0
 18 10  1  0  0  0  0
 18 19  1  1  0  0  0
 20 21  1  6  0  0  0
 20 29  1  0  0  0  0
 22 13  1  0  0  0  0
 22 23  1  1  0  0  0
 24 25  1  6  0  0  0
 24 33  1  0  0  0  0
 26 27  1  1  0  0  0
 26 35  1  0  0  0  0
 28  2  1  1  0  0  0
 28 18  1  0  0  0  0
 29 30  1  0  0  0  0
 29 39  1  1  0  0  0
 31 22  1  0  0  0  0
 31 32  1  1  0  0  0
 31 41  1  0  0  0  0
 33 34  1  1  0  0  0
 33 43  1  0  0  0  0
 35 36  1  0  0  0  0
 35 45  1  6  0  0  0
 37 28  1  0  0  0  0
 37 38  1  6  0  0  0
 39 40  1  0  0  0  0
 41 42  1  0  0  0  0
 41 49  1  1  0  0  0
 43 44  1  0  0  0  0
 43 51  1  6  0  0  0
 45 46  1  0  0  0  0
 47 37  1  0  0  0  0
 47 48  1  6  0  0  0
 49 50  1  0  0  0  0
 51 52  1  0  0  0  0
M  END
>  <CHROM.1>
-169.54951599,-170.98503121,-177.76449991,-172.67471946,72.25099479,-156.42360266
-63.99533786,84.48203181,-169.82981570,167.18993130,66.36569042,-176.84404388
2.28135241,-49.83165934,10.66305731,0.31458219,0.74715272,2.39457961

>  <Name>
2fd0_lig

>  <RI>
1.29864e+07

>  <Rbt.Current_Directory>
/home/itssahil/PROJECTS/Mol_Feturizer/New_Systems/rnas/2fd0

>  <Rbt.Executable>
rbdock ($Id: //depot/dev/client3/rdock/2013.1/src/exe/rbdock.cxx#4 $)

>  <Rbt.Library>
libRbt.so (2013.1, Build901 2013/11/27)

>  <Rbt.Parameter_File>
/export/apps/rDock/src/rDock_2013.1_src/data/scripts/dock_solv.prm

>  <Rbt.Receptor>
prm/pocket_docking_3.prm

>  <SCORE>
-25.925

>  <SCORE.INTER>
-18.2595

>  <SCORE.INTER.CONST>
1

>  <SCORE.INTER.POLAR>
-1.82675

>  <SCORE.INTER.ROT>
12

>  <SCORE.INTER.SOLV>
17.5501

>  <SCORE.INTER.VDW>
-23.5339

>  <SCORE.INTER.norm>
-0.351145

>  <SCORE.INTRA>
-7.66553

>  <SCORE.INTRA.DIHEDRAL>
-14.2029

>  <SCORE.INTRA.DIHEDRAL.0>
23.9727

>  <SCORE.INTRA.POLAR>
0

>  <SCORE.INTRA.POLAR.0>
0

>  <SCORE.INTRA.REPUL>
0

>  <SCORE.INTRA.REPUL.0>
0

>  <SCORE.INTRA.SOLV>
-3.2064

>  <SCORE.INTRA.SOLV.lig_0>
-115.028

>  <SCORE.INTRA.VDW>
1.03911

>  <SCORE.INTRA.VDW.0>
-6.82393

>  <SCORE.INTRA.norm>
-0.147414

>  <SCORE.RESTR>
0

>  <SCORE.RESTR.CAVITY>
0

>  <SCORE.RESTR.norm>
0

>  <SCORE.SYSTEM>
0

>  <SCORE.SYSTEM.CONST>
0

>  <SCORE.SYSTEM.DIHEDRAL>
0

>  <SCORE.SYSTEM.SOLV>
0

>  <SCORE.SYSTEM.norm>
0

>  <SCORE.heavy>
52

>  <SCORE.norm>
-0.498559

>  <RMSD>
1.189

$$$$
2fd0_lig
 OpenBabel11021811433D
libRbt.so/2013.1/901 2013/11/27
 52 56  0  0  0  0  0  0  0  0999 V2000
    4.9146  -49.9007   14.9408 C   0  0  2  0  0  0  0  0  0  0  0  0
    5.5622  -48.6303   15.0943 O   0  0  0  0  0  0  0  0  0  0  0  0
    7.5278  -45.6290   12.6405 C   0  0  2  0  0  0  0  0  0  0  0  0
    8.4344  -44.9916   11.6715 N   0  0  0  0  0  0  0  0  0  0  0  0
    3.8944  -48.1333   11.3263 C   0  0  1  0  0  0  0  0  0  0  0  0
    1.4432  -50.3531    8.5120 C   0  0  1  0  0  0  0  0  0  0  0  0
   -2.6800  -51.6720    5.5545 C   0  0  1  0  0  0  0  0  0  0  0  0
    3.8882  -50.0839   16.1175 C   0  0  2  0  0  0  0  0  0  0  0  0
    2.9172  -48.9996   16.1642 N   0  0  0  0  0  0  0  0  0  0  0  0
    8.3638  -46.3719   13.7728 C   0  0  0  0  0  0  0  0  0  0  0  0
    3.4499  -49.4704   10.7622 C   0  0  2  0  0  0  0  0  0  0  0  0
    4.1953  -49.8405    9.5682 O   0  0  0  0  0  0  0  0  0  0  0  0
    0.9767  -49.9482    7.0362 C   0  0  2  0  0  0  0  0  0  0  0  0
   -0.2127  -49.0551    7.0916 N   0  0  0  0  0  0  0  0  0  0  0  0
   -3.5847  -50.5604    6.1321 C   0  0  1  0  0  0  0  0  0  0  0  0
   -2.9492  -49.2757    5.9181 O   0  0  0  0  0  0  0  0  0  0  0  0
    4.6470  -50.2334   17.4880 C   0  0  0  0  0  0  0  0  0  0  0  0
    7.3747  -47.0557   14.8328 C   0  0  2  0  0  0  0  0  0  0  0  0
    8.1229  -47.7522   15.8896 N   0  0  0  0  0  0  0  0  0  0  0  0
    1.9528  -49.2830   10.5833 C   0  0  2  0  0  0  0  0  0  0  0  0
    1.6087  -49.1651    9.2296 O   0  0  0  0  0  0  0  0  0  0  0  0
    0.7810  -51.3171    6.2003 C   0  0  1  0  0  0  0  0  0  0  0  0
    2.0225  -52.0437    6.2411 O   0  0  0  0  0  0  0  0  0  0  0  0
   -5.0401  -50.4732    5.5983 C   0  0  1  0  0  0  0  0  0  0  0  0
   -5.0551  -49.5443    4.5069 O   0  0  0  0  0  0  0  0  0  0  0  0
    5.6615  -51.4170   17.3675 C   0  0  2  0  0  0  0  0  0  0  0  0
    6.3577  -51.5973   18.5967 O   0  0  0  0  0  0  0  0  0  0  0  0
    6.4436  -48.0543   14.0901 C   0  0  2  0  0  0  0  0  0  0  0  0
    1.5415  -47.9373   11.2270 C   0  0  2  0  0  0  0  0  0  0  0  0
    2.7368  -47.5290   11.8765 O   0  0  0  0  0  0  0  0  0  0  0  0
   -0.3352  -52.2769    6.8690 C   0  0  2  0  0  0  0  0  0  0  0  0
   -1.5570  -51.5188    6.7906 O   0  0  0  0  0  0  0  0  0  0  0  0
   -5.6728  -51.8034    5.1283 C   0  0  2  0  0  0  0  0  0  0  0  0
   -7.0359  -51.7790    5.6055 O   0  0  0  0  0  0  0  0  0  0  0  0
    6.6732  -51.1171   16.2245 C   0  0  2  0  0  0  0  0  0  0  0  0
    5.9126  -50.9535   14.9658 O   0  0  0  0  0  0  0  0  0  0  0  0
    5.6436  -47.3857   12.9308 C   0  0  2  0  0  0  0  0  0  0  0  0
    4.8543  -48.4189   12.2938 O   0  0  0  0  0  0  0  0  0  0  0  0
    0.4361  -48.0316   12.2728 C   0  0  0  0  0  0  0  0  0  0  0  0
    0.0704  -46.6876   12.6208 O   0  0  0  0  0  0  0  0  0  0  0  0
    0.0591  -52.4079    8.3281 C   0  0  1  0  0  0  0  0  0  0  0  0
    0.4332  -51.3045    9.1793 O   0  0  0  0  0  0  0  0  0  0  0  0
   -4.8708  -53.0002    5.6326 C   0  0  2  0  0  0  0  0  0  0  0  0
   -3.4444  -52.9381    5.3552 O   0  0  0  0  0  0  0  0  0  0  0  0
    7.6524  -52.2314   16.0335 C   0  0  0  0  0  0  0  0  0  0  0  0
    8.5942  -52.1637   17.0698 O   0  0  0  0  0  0  0  0  0  0  0  0
    6.6320  -46.7096   11.9118 C   0  0  1  0  0  0  0  0  0  0  0  0
    5.8425  -46.0473   10.8642 O   0  0  0  0  0  0  0  0  0  0  0  0
   -0.9443  -53.2783    9.1647 C   0  0  0  0  0  0  0  0  0  0  0  0
   -0.4986  -53.5262   10.5573 N   0  0  0  0  0  0  0  0  0  0  0  0
   -5.2699  -54.4372    5.3046 C   0  0  0  0  0  0  0  0  0  0  0  0
   -4.9725  -54.7408    3.9068 O   0  0  0  0  0  0  0  0  0  0  0  0
  1  2  1  1  0  0  0
  1  8  1  0  0  0  0
  1 36  1  0  0  0  0
  3  4  1  6  0  0  0
  3 10  1  0  0  0  0
  3 47  1  0  0  0  0
  5 11  1  0  0  0  0
  5 30  1  0  0  0  0
  5 38  1  1  0  0  0
  6 21  1  1  0  0  0
  6 42  1  0  0  0  0
  7 15  1  0  0  0  0
  7 44  1  0  0  0  0
  7 32  1  1  0  0  0
  8  9  1  1  0  0  0
  8 17  1  0  0  0  0
 11 12  1  6  0  0  0
 11 20  1  0  0  0  0
 13  6  1  0  0  0  0
 13 14  1  1  0  0  0
 15 16  1  6  0  0  0
 15 24  1  0  0  0  0
 17 26  1  0  0  0  0
 18 10  1  0  0  0  0
 18 19  1  1  0  0  0
 20 21  1  6  0  0  0
 20 29  1  0  0  0  0
 22 13  1  0  0  0  0
 22 23  1  1  0  0  0
 24 25  1  6  0  0  0
 24 33  1  0  0  0  0
 26 27  1  1  0  0  0
 26 35  1  0  0  0  0
 28  2  1  1  0  0  0
 28 18  1  0  0  0  0
 29 30  1  0  0  0  0
 29 39  1  1  0  0  0
 31 22  1  0  0  0  0
 31 32  1  1  0  0  0
 31 41  1  0  0  0  0
 33 34  1  1  0  0  0
 33 43  1  0  0  0  0
 35 36  1  0  0  0  0
 35 45  1  6  0  0  0
 37 28  1  0  0  0  0
 37 38  1  6  0  0  0
 39 40  1  0  0  0  0
 41 42  1  0  0  0  0
 41 49  1  1  0  0  0
 43 44  1  0  0  0  0
 43 51  1  6  0  0  0
 45 46  1  0  0  0  0
 47 37  1  0  0  0  0
 47 48  1  6  0  0  0
 49 50  1  0  0  0  0
 51 52  1  0  0  0  0
M  END
>  <CHROM.1>
-171.63911667,171.54956345,176.81772622,-177.72383627,83.51869066,-156.35727573
-172.47544223,95.08695225,-75.99176667,171.73362246,174.19472130,73.15545322
1.95524863,-49.99923404,10.64807397,0.29489545,0.72225033,2.40341841

>  <Name>
2fd0_lig

>  <RI>
2.89522e+07

>  <Rbt.Current_Directory>
/home/itssahil/PROJECTS/Mol_Feturizer/New_Systems/rnas/2fd0

>  <Rbt.Executable>
rbdock ($Id: //depot/dev/client3/rdock/2013.1/src/exe/rbdock.cxx#4 $)

>  <Rbt.Library>
libRbt.so (2013.1, Build901 2013/11/27)

>  <Rbt.Parameter_File>
/export/apps/rDock/src/rDock_2013.1_src/data/scripts/dock_solv.prm

>  <Rbt.Receptor>
prm/pocket_docking_2.prm

>  <SCORE>
-22.7827

>  <SCORE.INTER>
-17.1999

>  <SCORE.INTER.CONST>
1

>  <SCORE.INTER.POLAR>
-1.63211

>  <SCORE.INTER.ROT>
12

>  <SCORE.INTER.SOLV>
17.3365

>  <SCORE.INTER.VDW>
-23.405

>  <SCORE.INTER.norm>
-0.330767

>  <SCORE.INTRA>
-6.14816

>  <SCORE.INTRA.DIHEDRAL>
-10.3311

>  <SCORE.INTRA.DIHEDRAL.0>
23.9727

>  <SCORE.INTRA.POLAR>
0

>  <SCORE.INTRA.POLAR.0>
0

>  <SCORE.INTRA.REPUL>
0

>  <SCORE.INTRA.REPUL.0>
0

>  <SCORE.INTRA.SOLV>
-3.71844

>  <SCORE.INTRA.SOLV.lig_0>
-115.028

>  <SCORE.INTRA.VDW>
0.876605

>  <SCORE.INTRA.VDW.0>
-6.82393

>  <SCORE.INTRA.norm>
-0.118234

>  <SCORE.RESTR>
0.565287

>  <SCORE.RESTR.CAVITY>
0.565287

>  <SCORE.RESTR.norm>
0.0108709

>  <SCORE.SYSTEM>
0

>  <SCORE.SYSTEM.CONST>
0

>  <SCORE.SYSTEM.DIHEDRAL>
0

>  <SCORE.SYSTEM.SOLV>
0

>  <SCORE.SYSTEM.norm>
0

>  <SCORE.heavy>
52

>  <SCORE.norm>
-0.438129

>  <RMSD>
1.193

$$$$
2fd0_lig
 OpenBabel11021811433D
libRbt.so/2013.1/901 2013/11/27
 52 56  0  0  0  0  0  0  0  0999 V2000
    5.0406  -49.7739   15.3929 C   0  0  2  0  0  0  0  0  0  0  0  0
    5.7124  -48.5128   15.5172 O   0  0  0  0  0  0  0  0  0  0  0  0
    7.0143  -45.1251   13.1255 C   0  0  2  0  0  0  0  0  0  0  0  0
    7.5728  -44.3259   12.0226 N   0  0  0  0  0  0  0  0  0  0  0  0
    3.4427  -47.4183   12.0842 C   0  0  1  0  0  0  0  0  0  0  0  0
    2.9518  -49.1377    7.8603 C   0  0  1  0  0  0  0  0  0  0  0  0
   -1.4861  -50.3006    5.1654 C   0  0  1  0  0  0  0  0  0  0  0  0
    4.2183  -50.0340   16.7073 C   0  0  2  0  0  0  0  0  0  0  0  0
    3.2745  -48.9587   16.9785 N   0  0  0  0  0  0  0  0  0  0  0  0
    8.1014  -46.1532   13.6679 C   0  0  0  0  0  0  0  0  0  0  0  0
    4.1698  -48.3225   11.1058 C   0  0  2  0  0  0  0  0  0  0  0  0
    5.2517  -47.6337   10.4179 O   0  0  0  0  0  0  0  0  0  0  0  0
    2.2600  -48.3067    6.6812 C   0  0  2  0  0  0  0  0  0  0  0  0
    1.0017  -47.6716    7.1592 N   0  0  0  0  0  0  0  0  0  0  0  0
   -2.3600  -49.4071    6.0740 C   0  0  1  0  0  0  0  0  0  0  0  0
   -2.0103  -48.0191    5.8485 O   0  0  0  0  0  0  0  0  0  0  0  0
    5.1891  -50.2652   17.9240 C   0  0  0  0  0  0  0  0  0  0  0  0
    7.4947  -47.0145   14.8760 C   0  0  2  0  0  0  0  0  0  0  0  0
    8.4795  -47.9754   15.3943 N   0  0  0  0  0  0  0  0  0  0  0  0
    3.0462  -48.8457   10.2270 C   0  0  2  0  0  0  0  0  0  0  0  0
    3.0844  -48.2711    8.9490 O   0  0  0  0  0  0  0  0  0  0  0  0
    2.1010  -49.3028    5.4189 C   0  0  1  0  0  0  0  0  0  0  0  0
    3.4060  -49.8108    5.0871 O   0  0  0  0  0  0  0  0  0  0  0  0
   -3.9011  -49.5436    5.9423 C   0  0  1  0  0  0  0  0  0  0  0  0
   -4.3523  -48.5619    5.0005 O   0  0  0  0  0  0  0  0  0  0  0  0
    6.1632  -51.4349   17.5669 C   0  0  2  0  0  0  0  0  0  0  0  0
    7.0490  -51.6884   18.6528 O   0  0  0  0  0  0  0  0  0  0  0  0
    6.2262  -47.7637   14.3806 C   0  0  2  0  0  0  0  0  0  0  0  0
    1.6942  -48.4001   10.8338 C   0  0  2  0  0  0  0  0  0  0  0  0
    2.0868  -47.8298   12.0740 O   0  0  0  0  0  0  0  0  0  0  0  0
    1.1855  -50.5866    5.7762 C   0  0  2  0  0  0  0  0  0  0  0  0
   -0.1081  -50.0334    6.0832 O   0  0  0  0  0  0  0  0  0  0  0  0
   -4.4260  -50.9307    5.5052 C   0  0  2  0  0  0  0  0  0  0  0  0
   -5.5967  -51.1792    6.3140 O   0  0  0  0  0  0  0  0  0  0  0  0
    6.9772  -51.0605   16.2953 C   0  0  2  0  0  0  0  0  0  0  0  0
    6.0230  -50.8222   15.1898 O   0  0  0  0  0  0  0  0  0  0  0  0
    5.1518  -46.8034   13.7853 C   0  0  2  0  0  0  0  0  0  0  0  0
    4.0481  -47.6180   13.3222 O   0  0  0  0  0  0  0  0  0  0  0  0
    0.7085  -49.5285   11.1158 C   0  0  0  0  0  0  0  0  0  0  0  0
   -0.2810  -49.0075   12.0162 O   0  0  0  0  0  0  0  0  0  0  0  0
    1.7756  -51.1690    7.0467 C   0  0  1  0  0  0  0  0  0  0  0  0
    2.1399  -50.3981    8.2108 O   0  0  0  0  0  0  0  0  0  0  0  0
   -3.3444  -51.9974    5.6526 C   0  0  2  0  0  0  0  0  0  0  0  0
   -2.0729  -51.6659    5.0290 O   0  0  0  0  0  0  0  0  0  0  0  0
    7.9055  -52.1568   15.8787 C   0  0  0  0  0  0  0  0  0  0  0  0
    8.8856  -52.2961   16.8715 O   0  0  0  0  0  0  0  0  0  0  0  0
    5.7721  -45.9589   12.6128 C   0  0  1  0  0  0  0  0  0  0  0  0
    4.7482  -45.0313   12.1123 O   0  0  0  0  0  0  0  0  0  0  0  0
    0.9835  -52.4137    7.5832 C   0  0  0  0  0  0  0  0  0  0  0  0
   -0.4621  -52.1550    7.7894 N   0  0  0  0  0  0  0  0  0  0  0  0
   -3.5925  -53.4575    5.2804 C   0  0  0  0  0  0  0  0  0  0  0  0
   -4.8676  -53.9124    5.8297 O   0  0  0  0  0  0  0  0  0  0  0  0
  1  2  1  1  0  0  0
  1  8  1  0  0  0  0
  1 36  1  0  0  0  0
  3  4  1  6  0  0  0
  3 10  1  0  0  0  0
  3 47  1  0  0  0  0
  5 11  1  0  0  0  0
  5 30  1  0  0  0  0
  5 38  1  1  0  0  0
  6 21  1  1  0  0  0
  6 42  1  0  0  0  0
  7 15  1  0  0  0  0
  7 44  1  0  0  0  0
  7 32  1  1  0  0  0
  8  9  1  1  0  0  0
  8 17  1  0  0  0  0
 11 12  1  6  0  0  0
 11 20  1  0  0  0  0
 13  6  1  0  0  0  0
 13 14  1  1  0  0  0
 15 16  1  6  0  0  0
 15 24  1  0  0  0  0
 17 26  1  0  0  0  0
 18 10  1  0  0  0  0
 18 19  1  6  0  0  0
 20 21  1  6  0  0  0
 20 29  1  0  0  0  0
 22 13  1  0  0  0  0
 22 23  1  1  0  0  0
 24 25  1  6  0  0  0
 24 33  1  0  0  0  0
 26 27  1  1  0  0  0
 26 35  1  0  0  0  0
 28  2  1  1  0  0  0
 28 18  1  0  0  0  0
 29 30  1  0  0  0  0
 29 39  1  1  0  0  0
 31 22  1  0  0  0  0
 31 32  1  1  0  0  0
 31 41  1  0  0  0  0
 33 34  1  1  0  0  0
 33 43  1  0  0  0  0
 35 36  1  0  0  0  0
 35 45  1  6  0  0  0
 37 28  1  0  0  0  0
 37 38  1  6  0  0  0
 39 40  1  0  0  0  0
 41 42  1  0  0  0  0
 41 49  1  1  0  0  0
 43 44  1  0  0  0  0
 43 51  1  6  0  0  0
 45 46  1  0  0  0  0
 47 37  1  0  0  0  0
 47 48  1  1  0  0  0
 49 50  1  0  0  0  0
 51 52  1  0  0  0  0
M  END
>  <CHROM.1>
-160.89936165,91.87949760,150.30166193,-178.89138744,133.23545278,-147.64412506
163.06342811,114.33034786,-66.35931127,-134.67071517,-54.58508631,-46.37037922
2.52902007,-49.36552739,10.62511291,0.48714031,0.71956388,2.28577704

>  <Name>
2fd0_lig

>  <RI>
2.89522e+07

>  <Rbt.Current_Directory>
/home/itssahil/PROJECTS/Mol_Feturizer/New_Systems/rnas/2fd0

>  <Rbt.Executable>
rbdock ($Id: //depot/dev/client3/rdock/2013.1/src/exe/rbdock.cxx#4 $)

>  <Rbt.Library>
libRbt.so (2013.1, Build901 2013/11/27)

>  <Rbt.Parameter_File>
/export/apps/rDock/src/rDock_2013.1_src/data/scripts/dock_solv.prm

>  <Rbt.Receptor>
prm/pocket_docking_2.prm

>  <SCORE>
-1.5954

>  <SCORE.INTER>
-12.8579

>  <SCORE.INTER.CONST>
1

>  <SCORE.INTER.POLAR>
-0.938083

>  <SCORE.INTER.ROT>
12

>  <SCORE.INTER.SOLV>
17.1872

>  <SCORE.INTER.VDW>
-22.7741

>  <SCORE.INTER.norm>
-0.247267

>  <SCORE.INTRA>
9.37788

>  <SCORE.INTRA.DIHEDRAL>
11.7772

>  <SCORE.INTRA.DIHEDRAL.0>
23.9727

>  <SCORE.INTRA.POLAR>
0

>  <SCORE.INTRA.POLAR.0>
0

>  <SCORE.INTRA.REPUL>
0

>  <SCORE.INTRA.REPUL.0>
0

>  <SCORE.INTRA.SOLV>
2.85385

>  <SCORE.INTRA.SOLV.lig_0>
-115.028

>  <SCORE.INTRA.VDW>
2.06238

>  <SCORE.INTRA.VDW.0>
-6.82393

>  <SCORE.INTRA.norm>
0.180344

>  <SCORE.RESTR>
1.88461

>  <SCORE.RESTR.CAVITY>
1.88461

>  <SCORE.RESTR.norm>
0.0362426

>  <SCORE.SYSTEM>
0

>  <SCORE.SYSTEM.CONST>
0

>  <SCORE.SYSTEM.DIHEDRAL>
0

>  <SCORE.SYSTEM.SOLV>
0

>  <SCORE.SYSTEM.norm>
0

>  <SCORE.heavy>
52

>  <SCORE.norm>
-0.0306809

>  <RMSD>
1.316

$$$$
2fd0_lig
 OpenBabel11021811433D
libRbt.so/2013.1/901 2013/11/27
 52 56  0  0  0  0  0  0  0  0999 V2000
    4.9265  -49.7695   14.9662 C   0  0  2  0  0  0  0  0  0  0  0  0
    5.6315  -48.5342   15.1510 O   0  0  0  0  0  0  0  0  0  0  0  0
    7.5851  -45.5531   12.6632 C   0  0  2  0  0  0  0  0  0  0  0  0
    8.5000  -44.9202   11.6992 N   0  0  0  0  0  0  0  0  0  0  0  0
    4.0328  -48.1790   11.3448 C   0  0  1  0  0  0  0  0  0  0  0  0
    1.5120  -50.5401    8.7615 C   0  0  1  0  0  0  0  0  0  0  0  0
   -2.5101  -51.9116    5.8959 C   0  0  1  0  0  0  0  0  0  0  0  0
    3.8909  -49.9342   16.1375 C   0  0  2  0  0  0  0  0  0  0  0  0
    2.9706  -48.8079   16.2102 N   0  0  0  0  0  0  0  0  0  0  0  0
    8.4103  -46.2444   13.8355 C   0  0  0  0  0  0  0  0  0  0  0  0
    3.5158  -49.5408   10.9186 C   0  0  2  0  0  0  0  0  0  0  0  0
    4.2280  -50.0639    9.7622 O   0  0  0  0  0  0  0  0  0  0  0  0
    0.9864  -50.2653    7.2757 C   0  0  2  0  0  0  0  0  0  0  0  0
   -0.2207  -49.3949    7.3020 N   0  0  0  0  0  0  0  0  0  0  0  0
   -3.4777  -50.8699    6.5013 C   0  0  1  0  0  0  0  0  0  0  0  0
   -2.8355  -49.5709    6.4976 O   0  0  0  0  0  0  0  0  0  0  0  0
    4.6399  -50.1516   17.5043 C   0  0  0  0  0  0  0  0  0  0  0  0
    7.4118  -46.9233   14.8898 C   0  0  2  0  0  0  0  0  0  0  0  0
    8.1499  -47.5723   15.9833 N   0  0  0  0  0  0  0  0  0  0  0  0
    2.0279  -49.2963   10.7318 C   0  0  2  0  0  0  0  0  0  0  0  0
    1.6745  -49.2949    9.3754 O   0  0  0  0  0  0  0  0  0  0  0  0
    0.7938  -51.7009    6.5596 C   0  0  1  0  0  0  0  0  0  0  0  0
    2.0524  -52.3966    6.6140 O   0  0  0  0  0  0  0  0  0  0  0  0
   -4.8734  -50.7196    5.8376 C   0  0  1  0  0  0  0  0  0  0  0  0
   -4.7877  -49.6736    4.8615 O   0  0  0  0  0  0  0  0  0  0  0  0
    5.5992  -51.3773   17.3554 C   0  0  2  0  0  0  0  0  0  0  0  0
    6.2844  -51.6193   18.5802 O   0  0  0  0  0  0  0  0  0  0  0  0
    6.5235  -47.9642   14.1528 C   0  0  2  0  0  0  0  0  0  0  0  0
    1.6915  -47.8747   11.2420 C   0  0  2  0  0  0  0  0  0  0  0  0
    2.9132  -47.4655   11.8401 O   0  0  0  0  0  0  0  0  0  0  0  0
   -0.2766  -52.6258    7.3427 C   0  0  2  0  0  0  0  0  0  0  0  0
   -1.5175  -51.9014    7.2476 O   0  0  0  0  0  0  0  0  0  0  0  0
   -5.4442  -51.9868    5.1602 C   0  0  2  0  0  0  0  0  0  0  0  0
   -6.8483  -52.0129    5.4982 O   0  0  0  0  0  0  0  0  0  0  0  0
    6.6254  -51.0962   16.2206 C   0  0  2  0  0  0  0  0  0  0  0  0
    5.8752  -50.8673   14.9659 O   0  0  0  0  0  0  0  0  0  0  0  0
    5.7367  -47.3471   12.9565 C   0  0  2  0  0  0  0  0  0  0  0  0
    4.9884  -48.4162   12.3294 O   0  0  0  0  0  0  0  0  0  0  0  0
    0.5950  -47.8094   12.2992 C   0  0  0  0  0  0  0  0  0  0  0  0
    0.3100  -46.4205   12.5247 O   0  0  0  0  0  0  0  0  0  0  0  0
    0.1702  -52.6306    8.7924 C   0  0  1  0  0  0  0  0  0  0  0  0
    0.5475  -51.4546    9.5387 O   0  0  0  0  0  0  0  0  0  0  0  0
   -4.6860  -53.2347    5.6046 C   0  0  2  0  0  0  0  0  0  0  0  0
   -3.2396  -53.1453    5.4802 O   0  0  0  0  0  0  0  0  0  0  0  0
    7.5529  -52.2493   16.0028 C   0  0  0  0  0  0  0  0  0  0  0  0
    8.3429  -52.3936   17.1520 O   0  0  0  0  0  0  0  0  0  0  0  0
    6.7337  -46.6747   11.9433 C   0  0  1  0  0  0  0  0  0  0  0  0
    5.9548  -46.0606   10.8590 O   0  0  0  0  0  0  0  0  0  0  0  0
   -0.7839  -53.4506    9.7315 C   0  0  0  0  0  0  0  0  0  0  0  0
   -0.8052  -54.9036    9.4353 N   0  0  0  0  0  0  0  0  0  0  0  0
   -5.0376  -54.6246    5.0790 C   0  0  0  0  0  0  0  0  0  0  0  0
   -6.4499  -54.9150    5.3150 O   0  0  0  0  0  0  0  0  0  0  0  0
  1  2  1  1  0  0  0
  1  8  1  0  0  0  0
  1 36  1  0  0  0  0
  3  4  1  6  0  0  0
  3 10  1  0  0  0  0
  3 47  1  0  0  0  0
  5 11  1  0  0  0  0
  5 30  1  0  0  0  0
  5 38  1  1  0  0  0
  6 21  1  1  0  0  0
  6 42  1  0  0  0  0
  7 15  1  0  0  0  0
  7 44  1  0  0  0  0
  7 32  1  1  0  0  0
  8  9  1  1  0  0  0
  8 17  1  0  0  0  0
 11 12  1  6  0  0  0
 11 20  1  0  0  0  0
 13  6  1  0  0  0  0
 13 14  1  1  0  0  0
 15 16  1  6  0  0  0
 15 24  1  0  0  0  0
 17 26  1  0  0  0  0
 18 10  1  0  0  0  0
 18 19  1  1  0  0  0
 20 21  1  6  0  0  0
 20 29  1  0  0  0  0
 22 13  1  0  0  0  0
 22 23  1  1  0  0  0
 24 25  1  6  0  0  0
 24 33  1  0  0  0  0
 26 27  1  1  0  0  0
 26 35  1  0  0  0  0
 28  2  1  1  0  0  0
 28 18  1  0  0  0  0
 29 30  1  0  0  0  0
 29 39  1  1  0  0  0
 31 22  1  0  0  0  0
 31 32  1  1  0  0  0
 31 41  1  0  0  0  0
 33 34  1  1  0  0  0
 33 43  1  0  0  0  0
 35 36  1  0  0  0  0
 35 45  1  6  0  0  0
 37 28  1  0  0  0  0
 37 38  1  6  0  0  0
 39 40  1  0  0  0  0
 41 42  1  0  0  0  0
 41 49  1  1  0  0  0
 43 44  1  0  0  0  0
 43 51  1  6  0  0  0
 45 46  1  0  0  0  0
 47 37  1  0  0  0  0
 47 48  1  6  0  0  0
 49 50  1  0  0  0  0
 51 52  1  0  0  0  0
M  END
>  <CHROM.1>
-170.62406227,178.21554760,174.94979694,-175.21292680,80.17921223,-162.01834312
-173.03798915,80.27251700,-65.80301716,170.81131445,65.42207233,-55.11484633
1.99221196,-50.10161321,10.78428872,0.20991763,0.73612493,2.47000521

>  <Name>
2fd0_lig

>  <RI>
1.29864e+07

>  <Rbt.Current_Directory>
/home/itssahil/PROJECTS/Mol_Feturizer/New_Systems/rnas/2fd0

>  <Rbt.Executable>
rbdock ($Id: //depot/dev/client3/rdock/2013.1/src/exe/rbdock.cxx#4 $)

>  <Rbt.Library>
libRbt.so (2013.1, Build901 2013/11/27)

>  <Rbt.Parameter_File>
/export/apps/rDock/src/rDock_2013.1_src/data/scripts/dock_solv.prm

>  <Rbt.Receptor>
prm/pocket_docking_3.prm

>  <SCORE>
-27.9321

>  <SCORE.INTER>
-19.5923

>  <SCORE.INTER.CONST>
1

>  <SCORE.INTER.POLAR>
-1.83251

>  <SCORE.INTER.ROT>
12

>  <SCORE.INTER.SOLV>
17.6404

>  <SCORE.INTER.VDW>
-24.4333

>  <SCORE.INTER.norm>
-0.376776

>  <SCORE.INTRA>
-8.33975

>  <SCORE.INTRA.DIHEDRAL>
-15.717

>  <SCORE.INTRA.DIHEDRAL.0>
23.9727

>  <SCORE.INTRA.POLAR>
0

>  <SCORE.INTRA.POLAR.0>
0

>  <SCORE.INTRA.REPUL>
0

>  <SCORE.INTRA.REPUL.0>
0

>  <SCORE.INTRA.SOLV>
-3.43321

>  <SCORE.INTRA.SOLV.lig_0>
-115.028

>  <SCORE.INTRA.VDW>
1.23534

>  <SCORE.INTRA.VDW.0>
-6.82393

>  <SCORE.INTRA.norm>
-0.16038

>  <SCORE.RESTR>
0

>  <SCORE.RESTR.CAVITY>
0

>  <SCORE.RESTR.norm>
0

>  <SCORE.SYSTEM>
0

>  <SCORE.SYSTEM.CONST>
0

>  <SCORE.SYSTEM.DIHEDRAL>
0

>  <SCORE.SYSTEM.SOLV>
0

>  <SCORE.SYSTEM.norm>
0

>  <SCORE.heavy>
52

>  <SCORE.norm>
-0.537156

>  <RMSD>
1.339

$$$$
2fd0_lig
 OpenBabel11021811433D
libRbt.so/2013.1/901 2013/11/27
 52 56  0  0  0  0  0  0  0  0999 V2000
    4.5709  -49.9664   15.2194 C   0  0  2  0  0  0  0  0  0  0  0  0
    5.2439  -48.7007   15.1758 O   0  0  0  0  0  0  0  0  0  0  0  0
    6.5988  -45.5732   12.4784 C   0  0  2  0  0  0  0  0  0  0  0  0
    7.0441  -44.8733   11.2623 N   0  0  0  0  0  0  0  0  0  0  0  0
    2.7991  -47.6909   12.0991 C   0  0  1  0  0  0  0  0  0  0  0  0
    2.0539  -50.5668    8.6263 C   0  0  1  0  0  0  0  0  0  0  0  0
   -2.1327  -50.3294    5.6044 C   0  0  1  0  0  0  0  0  0  0  0  0
    3.8636  -50.1088   16.6162 C   0  0  2  0  0  0  0  0  0  0  0  0
    2.9401  -49.0119   16.8709 N   0  0  0  0  0  0  0  0  0  0  0  0
    7.5705  -46.7916   12.8015 C   0  0  0  0  0  0  0  0  0  0  0  0
    3.5430  -48.8755   11.5104 C   0  0  2  0  0  0  0  0  0  0  0  0
    4.6764  -48.4650   10.6949 O   0  0  0  0  0  0  0  0  0  0  0  0
    1.7122  -49.9627    7.1848 C   0  0  2  0  0  0  0  0  0  0  0  0
    0.8320  -48.7695    7.3145 N   0  0  0  0  0  0  0  0  0  0  0  0
   -2.8941  -49.2360    6.3871 C   0  0  1  0  0  0  0  0  0  0  0  0
   -2.0199  -48.0959    6.5769 O   0  0  0  0  0  0  0  0  0  0  0  0
    4.9346  -50.2342   17.7623 C   0  0  0  0  0  0  0  0  0  0  0  0
    7.0901  -47.5453   14.1320 C   0  0  2  0  0  0  0  0  0  0  0  0
    7.9708  -48.6785   14.4517 N   0  0  0  0  0  0  0  0  0  0  0  0
    2.4461  -49.6424   10.7912 C   0  0  2  0  0  0  0  0  0  0  0  0
    2.5615  -49.5189    9.3997 O   0  0  0  0  0  0  0  0  0  0  0  0
    1.1225  -51.1681    6.2848 C   0  0  1  0  0  0  0  0  0  0  0  0
    2.1015  -52.2226    6.2585 O   0  0  0  0  0  0  0  0  0  0  0  0
   -4.2302  -48.7240    5.7843 C   0  0  1  0  0  0  0  0  0  0  0  0
   -3.9405  -47.5699    4.9852 O   0  0  0  0  0  0  0  0  0  0  0  0
    5.8816  -51.4327   17.4280 C   0  0  2  0  0  0  0  0  0  0  0  0
    6.8571  -51.5917   18.4534 O   0  0  0  0  0  0  0  0  0  0  0  0
    5.6300  -48.0412   13.9376 C   0  0  2  0  0  0  0  0  0  0  0  0
    1.0816  -49.0042   11.1452 C   0  0  2  0  0  0  0  0  0  0  0  0
    1.4331  -48.0644   12.1505 O   0  0  0  0  0  0  0  0  0  0  0  0
   -0.2178  -51.8017    6.9301 C   0  0  2  0  0  0  0  0  0  0  0  0
   -1.1691  -50.7207    6.9200 O   0  0  0  0  0  0  0  0  0  0  0  0
   -5.0215  -49.7377    4.9259 C   0  0  2  0  0  0  0  0  0  0  0  0
   -6.4089  -49.5553    5.2839 O   0  0  0  0  0  0  0  0  0  0  0  0
    6.5836  -51.1728   16.0644 C   0  0  2  0  0  0  0  0  0  0  0  0
    5.5384  -51.0304   15.0267 O   0  0  0  0  0  0  0  0  0  0  0  0
    4.6467  -46.8910   13.5618 C   0  0  2  0  0  0  0  0  0  0  0  0
    3.3397  -47.4820   13.3653 O   0  0  0  0  0  0  0  0  0  0  0  0
    0.0497  -49.9643   11.7265 C   0  0  0  0  0  0  0  0  0  0  0  0
    0.6082  -50.5006   12.9355 O   0  0  0  0  0  0  0  0  0  0  0  0
    0.1338  -52.1223    8.3706 C   0  0  1  0  0  0  0  0  0  0  0  0
    0.8177  -51.2228    9.2681 O   0  0  0  0  0  0  0  0  0  0  0  0
   -4.5148  -51.1598    5.1508 C   0  0  2  0  0  0  0  0  0  0  0  0
   -3.0761  -51.3228    5.0128 O   0  0  0  0  0  0  0  0  0  0  0  0
    7.4795  -52.3032   15.6686 C   0  0  0  0  0  0  0  0  0  0  0  0
    8.5583  -52.3356   16.5635 O   0  0  0  0  0  0  0  0  0  0  0  0
    5.1447  -46.1570   12.2634 C   0  0  1  0  0  0  0  0  0  0  0  0
    4.2243  -45.0496   11.9704 O   0  0  0  0  0  0  0  0  0  0  0  0
   -1.0714  -52.7122    9.1854 C   0  0  0  0  0  0  0  0  0  0  0  0
   -1.2615  -54.1705    8.9942 N   0  0  0  0  0  0  0  0  0  0  0  0
   -5.1153  -52.3576    4.4182 C   0  0  0  0  0  0  0  0  0  0  0  0
   -4.5345  -53.6019    4.9171 O   0  0  0  0  0  0  0  0  0  0  0  0
  1  2  1  1  0  0  0
  1  8  1  0  0  0  0
  1 36  1  0  0  0  0
  3  4  1  6  0  0  0
  3 10  1  0  0  0  0
  3 47  1  0  0  0  0
  5 11  1  0  0  0  0
  5 30  1  0  0  0  0
  5 38  1  1  0  0  0
  6 21  1  1  0  0  0
  6 42  1  0  0  0  0
  7 15  1  0  0  0  0
  7 44  1  0  0  0  0
  7 32  1  1  0  0  0
  8  9  1  1  0  0  0
  8 17  1  0  0  0  0
 11 12  1  6  0  0  0
 11 20  1  0  0  0  0
 13  6  1  0  0  0  0
 13 14  1  1  0  0  0
 15 16  1  6  0  0  0
 15 24  1  0  0  0  0
 17 26  1  0  0  0  0
 18 10  1  0  0  0  0
 18 19  1  6  0  0  0
 20 21  1  6  0  0  0
 20 29  1  0  0  0  0
 22 13  1  0  0  0  0
 22 23  1  1  0  0  0
 24 25  1  6  0  0  0
 24 33  1  0  0  0  0
 26 27  1  1  0  0  0
 26 35  1  0  0  0  0
 28  2  1  1  0  0  0
 28 18  1  0  0  0  0
 29 30  1  0  0  0  0
 29 39  1  1  0  0  0
 31 22  1  0  0  0  0
 31 32  1  1  0  0  0
 31 41  1  0  0  0  0
 33 34  1  1  0  0  0
 33 43  1  0  0  0  0
 35 36  1  0  0  0  0
 35 45  1  6  0  0  0
 37 28  1  0  0  0  0
 37 38  1  6  0  0  0
 39 40  1  0  0  0  0
 41 42  1  0  0  0  0
 41 49  1  1  0  0  0
 43 44  1  0  0  0  0
 43 51  1  6  0  0  0
 45 46  1  0  0  0  0
 47 37  1  0  0  0  0
 47 48  1  1  0  0  0
 49 50  1  0  0  0  0
 51 52  1  0  0  0  0
M  END
>  <CHROM.1>
-159.50585487,74.20536701,155.79288432,175.43246125,152.60862975,-134.48938292
60.31195484,85.08203017,-67.82951593,-103.81240864,83.00768912,-174.46791904
1.93377586,-49.70418590,10.71299194,0.28012664,0.76595875,2.60141098

>  <Name>
2fd0_lig

>  <RI>
2.89522e+07

>  <Rbt.Current_Directory>
/home/itssahil/PROJECTS/Mol_Feturizer/New_Systems/rnas/2fd0

>  <Rbt.Executable>
rbdock ($Id: //depot/dev/client3/rdock/2013.1/src/exe/rbdock.cxx#4 $)

>  <Rbt.Library>
libRbt.so (2013.1, Build901 2013/11/27)

>  <Rbt.Parameter_File>
/export/apps/rDock/src/rDock_2013.1_src/data/scripts/dock_solv.prm

>  <Rbt.Receptor>
prm/pocket_docking_2.prm

>  <SCORE>
-4.34135

>  <SCORE.INTER>
-8.63314

>  <SCORE.INTER.CONST>
1

>  <SCORE.INTER.POLAR>
-1.463

>  <SCORE.INTER.ROT>
12

>  <SCORE.INTER.SOLV>
17.0483

>  <SCORE.INTER.VDW>
-18.1615

>  <SCORE.INTER.norm>
-0.166022

>  <SCORE.INTRA>
2.711

>  <SCORE.INTRA.DIHEDRAL>
2.28789

>  <SCORE.INTRA.DIHEDRAL.0>
23.9727

>  <SCORE.INTRA.POLAR>
0

>  <SCORE.INTRA.POLAR.0>
0

>  <SCORE.INTRA.REPUL>
0

>  <SCORE.INTRA.REPUL.0>
0

>  <SCORE.INTRA.SOLV>
-0.460049

>  <SCORE.INTRA.SOLV.lig_0>
-115.028

>  <SCORE.INTRA.VDW>
1.79708

>  <SCORE.INTRA.VDW.0>
-6.82393

>  <SCORE.INTRA.norm>
0.0521347

>  <SCORE.RESTR>
1.58079

>  <SCORE.RESTR.CAVITY>
1.58079

>  <SCORE.RESTR.norm>
0.0303997

>  <SCORE.SYSTEM>
0

>  <SCORE.SYSTEM.CONST>
0

>  <SCORE.SYSTEM.DIHEDRAL>
0

>  <SCORE.SYSTEM.SOLV>
0

>  <SCORE.SYSTEM.norm>
0

>  <SCORE.heavy>
52

>  <SCORE.norm>
-0.0834875

>  <RMSD>
1.473

$$$$
2fd0_lig
 OpenBabel11021811433D
libRbt.so/2013.1/901 2013/11/27
 52 56  0  0  0  0  0  0  0  0999 V2000
    5.5615  -49.3174   14.1170 C   0  0  2  0  0  0  0  0  0  0  0  0
    5.2579  -47.9491   13.8128 O   0  0  0  0  0  0  0  0  0  0  0  0
    7.0147  -44.2730   12.2987 C   0  0  2  0  0  0  0  0  0  0  0  0
    7.9334  -43.3335   11.6351 N   0  0  0  0  0  0  0  0  0  0  0  0
    3.7160  -47.2280   10.4108 C   0  0  1  0  0  0  0  0  0  0  0  0
    1.2021  -49.7144    7.8561 C   0  0  1  0  0  0  0  0  0  0  0  0
   -3.0949  -51.3615    5.5071 C   0  0  1  0  0  0  0  0  0  0  0  0
    4.2212  -50.1390   14.1164 C   0  0  2  0  0  0  0  0  0  0  0  0
    3.5157  -50.0253   12.8475 N   0  0  0  0  0  0  0  0  0  0  0  0
    7.7814  -45.0889   13.4298 C   0  0  0  0  0  0  0  0  0  0  0  0
    3.5193  -48.5303    9.6566 C   0  0  2  0  0  0  0  0  0  0  0  0
    3.9174  -48.4249    8.2607 O   0  0  0  0  0  0  0  0  0  0  0  0
    0.3023  -49.2197    6.6293 C   0  0  2  0  0  0  0  0  0  0  0  0
   -1.0002  -48.6902    7.1178 N   0  0  0  0  0  0  0  0  0  0  0  0
   -4.0231  -50.6084    6.4864 C   0  0  1  0  0  0  0  0  0  0  0  0
   -3.6060  -49.2227    6.5611 O   0  0  0  0  0  0  0  0  0  0  0  0
    3.3089  -49.6995   15.3210 C   0  0  0  0  0  0  0  0  0  0  0  0
    6.7766  -46.1033   14.1583 C   0  0  2  0  0  0  0  0  0  0  0  0
    7.4615  -46.8725   15.2076 N   0  0  0  0  0  0  0  0  0  0  0  0
    2.0564  -48.8528    9.9111 C   0  0  2  0  0  0  0  0  0  0  0  0
    1.2795  -48.6525    8.7617 O   0  0  0  0  0  0  0  0  0  0  0  0
    0.2061  -50.4432    5.5783 C   0  0  1  0  0  0  0  0  0  0  0  0
    1.5455  -50.8157    5.2067 O   0  0  0  0  0  0  0  0  0  0  0  0
   -5.5476  -50.6379    6.1927 C   0  0  1  0  0  0  0  0  0  0  0  0
   -5.8704  -49.4762    5.4179 O   0  0  0  0  0  0  0  0  0  0  0  0
    4.1252  -49.8562   16.6453 C   0  0  2  0  0  0  0  0  0  0  0  0
    3.3264  -49.4848   17.7643 O   0  0  0  0  0  0  0  0  0  0  0  0
    6.1687  -47.0659   13.1003 C   0  0  2  0  0  0  0  0  0  0  0  0
    1.5035  -47.8542   10.9558 C   0  0  2  0  0  0  0  0  0  0  0  0
    2.6727  -47.1605   11.3672 O   0  0  0  0  0  0  0  0  0  0  0  0
   -0.4683  -51.7548    6.2409 C   0  0  2  0  0  0  0  0  0  0  0  0
   -1.8055  -51.3414    6.5793 O   0  0  0  0  0  0  0  0  0  0  0  0
   -6.0737  -51.8905    5.4544 C   0  0  2  0  0  0  0  0  0  0  0  0
   -7.3259  -52.2240    6.0924 O   0  0  0  0  0  0  0  0  0  0  0  0
    5.3948  -48.9599   16.5796 C   0  0  2  0  0  0  0  0  0  0  0  0
    6.2030  -49.3884   15.4165 O   0  0  0  0  0  0  0  0  0  0  0  0
    5.4545  -46.3117   11.9375 C   0  0  2  0  0  0  0  0  0  0  0  0
    4.9739  -47.3073   11.0028 O   0  0  0  0  0  0  0  0  0  0  0  0
    0.8666  -48.4913   12.1858 C   0  0  0  0  0  0  0  0  0  0  0  0
    0.4539  -47.4204   13.0484 O   0  0  0  0  0  0  0  0  0  0  0  0
    0.2995  -52.0051    7.5252 C   0  0  1  0  0  0  0  0  0  0  0  0
    0.6256  -50.9900    8.4974 O   0  0  0  0  0  0  0  0  0  0  0  0
   -5.0486  -53.0206    5.4934 C   0  0  2  0  0  0  0  0  0  0  0  0
   -3.7114  -52.6453    5.0614 O   0  0  0  0  0  0  0  0  0  0  0  0
    6.2406  -49.0920   17.8061 C   0  0  0  0  0  0  0  0  0  0  0  0
    6.6464  -50.4299   17.9112 O   0  0  0  0  0  0  0  0  0  0  0  0
    6.4536  -45.3127   11.2473 C   0  0  1  0  0  0  0  0  0  0  0  0
    5.7332  -44.5846   10.1936 O   0  0  0  0  0  0  0  0  0  0  0  0
   -0.2459  -53.2284    8.3440 C   0  0  0  0  0  0  0  0  0  0  0  0
   -0.4400  -54.4514    7.5279 N   0  0  0  0  0  0  0  0  0  0  0  0
   -5.3083  -54.3712    4.8297 C   0  0  0  0  0  0  0  0  0  0  0  0
   -6.5368  -54.9658    5.3510 O   0  0  0  0  0  0  0  0  0  0  0  0
  1  2  1  1  0  0  0
  1  8  1  0  0  0  0
  1 36  1  0  0  0  0
  3  4  1  6  0  0  0
  3 10  1  0  0  0  0
  3 47  1  0  0  0  0
  5 11  1  0  0  0  0
  5 30  1  0  0  0  0
  5 38  1  1  0  0  0
  6 21  1  1  0  0  0
  6 42  1  0  0  0  0
  7 15  1  0  0  0  0
  7 44  1  0  0  0  0
  7 32  1  1  0  0  0
  8  9  1  6  0  0  0
  8 17  1  0  0  0  0
 11 12  1  6  0  0  0
 11 20  1  0  0  0  0
 13  6  1  0  0  0  0
 13 14  1  1  0  0  0
 15 16  1  6  0  0  0
 15 24  1  0  0  0  0
 17 26  1  0  0  0  0
 18 10  1  0  0  0  0
 18 19  1  1  0  0  0
 20 21  1  6  0  0  0
 20 29  1  0  0  0  0
 22 13  1  0  0  0  0
 22 23  1  1  0  0  0
 24 25  1  6  0  0  0
 24 33  1  0  0  0  0
 26 27  1  1  0  0  0
 26 35  1  0  0  0  0
 28  2  1  1  0  0  0
 28 18  1  0  0  0  0
 29 30  1  0  0  0  0
 29 39  1  1  0  0  0
 31 22  1  0  0  0  0
 31 32  1  1  0  0  0
 31 41  1  0  0  0  0
 33 34  1  1  0  0  0
 33 43  1  0  0  0  0
 35 36  1  0  0  0  0
 35 45  1  1  0  0  0
 37 28  1  0  0  0  0
 37 38  1  6  0  0  0
 39 40  1  0  0  0  0
 41 42  1  0  0  0  0
 41 49  1  1  0  0  0
 43 44  1  0  0  0  0
 43 51  1  6  0  0  0
 45 46  1  0  0  0  0
 47 37  1  0  0  0  0
 47 48  1  6  0  0  0
 49 50  1  0  0  0  0
 51 52  1  0  0  0  0
M  END
>  <CHROM.1>
-148.60535245,-172.63525263,-178.41498879,-171.53037910,85.85707888,-104.89234590
178.30586041,84.84255623,60.55997285,137.86256209,48.83256131,-56.54172857
1.56362209,-49.36912228,10.19421325,0.38833831,0.68780816,2.08421120

>  <Name>
2fd0_lig

>  <RI>
2.89522e+07

>  <Rbt.Current_Directory>
/home/itssahil/PROJECTS/Mol_Feturizer/New_Systems/rnas/2fd0

>  <Rbt.Executable>
rbdock ($Id: //depot/dev/client3/rdock/2013.1/src/exe/rbdock.cxx#4 $)

>  <Rbt.Library>
libRbt.so (2013.1, Build901 2013/11/27)

>  <Rbt.Parameter_File>
/export/apps/rDock/src/rDock_2013.1_src/data/scripts/dock_solv.prm

>  <Rbt.Receptor>
prm/pocket_docking_2.prm

>  <SCORE>
-4.09282

>  <SCORE.INTER>
-5.69398

>  <SCORE.INTER.CONST>
1

>  <SCORE.INTER.POLAR>
-0.45115

>  <SCORE.INTER.ROT>
12

>  <SCORE.INTER.SOLV>
11.8758

>  <SCORE.INTER.VDW>
-17.8507

>  <SCORE.INTER.norm>
-0.1095

>  <SCORE.INTRA>
1.24037

>  <SCORE.INTRA.DIHEDRAL>
-0.253705

>  <SCORE.INTRA.DIHEDRAL.0>
23.9727

>  <SCORE.INTRA.POLAR>
0

>  <SCORE.INTRA.POLAR.0>
0

>  <SCORE.INTRA.REPUL>
0.000858281

>  <SCORE.INTRA.REPUL.0>
0

>  <SCORE.INTRA.SOLV>
3.68745

>  <SCORE.INTRA.SOLV.lig_0>
-115.028

>  <SCORE.INTRA.VDW>
-0.480795

>  <SCORE.INTRA.VDW.0>
-6.82393

>  <SCORE.INTRA.norm>
0.0238532

>  <SCORE.RESTR>
0.360793

>  <SCORE.RESTR.CAVITY>
0.360793

>  <SCORE.RESTR.norm>
0.00693834

>  <SCORE.SYSTEM>
0

>  <SCORE.SYSTEM.CONST>
0

>  <SCORE.SYSTEM.DIHEDRAL>
0

>  <SCORE.SYSTEM.SOLV>
0

>  <SCORE.SYSTEM.norm>
0

>  <SCORE.heavy>
52

>  <SCORE.norm>
-0.078708

>  <RMSD>
1.491

$$$$
2fd0_lig
 OpenBabel11021811433D
libRbt.so/2013.1/901 2013/11/27
 52 56  0  0  0  0  0  0  0  0999 V2000
    4.9394  -49.7552   14.9835 C   0  0  2  0  0  0  0  0  0  0  0  0
    5.6848  -48.5475   15.1903 O   0  0  0  0  0  0  0  0  0  0  0  0
    7.6077  -45.5490   12.6996 C   0  0  2  0  0  0  0  0  0  0  0  0
    8.5133  -44.9085   11.7318 N   0  0  0  0  0  0  0  0  0  0  0  0
    4.0181  -48.1854   11.4399 C   0  0  1  0  0  0  0  0  0  0  0  0
    1.3490  -50.5422    8.9979 C   0  0  1  0  0  0  0  0  0  0  0  0
   -2.7733  -51.7466    6.3546 C   0  0  1  0  0  0  0  0  0  0  0  0
    3.9328  -49.9322   16.1781 C   0  0  2  0  0  0  0  0  0  0  0  0
    3.0480  -48.7839   16.3167 N   0  0  0  0  0  0  0  0  0  0  0  0
    8.4436  -46.2396   13.8646 C   0  0  0  0  0  0  0  0  0  0  0  0
    3.4763  -49.5464   11.0426 C   0  0  2  0  0  0  0  0  0  0  0  0
    4.1255  -50.0720    9.8508 O   0  0  0  0  0  0  0  0  0  0  0  0
    0.7221  -50.2668    7.5520 C   0  0  2  0  0  0  0  0  0  0  0  0
   -0.4779  -49.3931    7.6613 N   0  0  0  0  0  0  0  0  0  0  0  0
   -3.8470  -50.9567    7.1362 C   0  0  1  0  0  0  0  0  0  0  0  0
   -3.3517  -49.6207    7.4000 O   0  0  0  0  0  0  0  0  0  0  0  0
    4.7134  -50.2189   17.5141 C   0  0  0  0  0  0  0  0  0  0  0  0
    7.4552  -46.9267   14.9230 C   0  0  2  0  0  0  0  0  0  0  0  0
    8.2035  -47.5752   16.0099 N   0  0  0  0  0  0  0  0  0  0  0  0
    1.9812  -49.2984   10.9340 C   0  0  2  0  0  0  0  0  0  0  0  0
    1.5571  -49.2971    9.5980 O   0  0  0  0  0  0  0  0  0  0  0  0
    0.4764  -51.7024    6.8521 C   0  0  1  0  0  0  0  0  0  0  0  0
    1.7338  -52.4016    6.8196 O   0  0  0  0  0  0  0  0  0  0  0  0
   -5.2536  -50.8307    6.4907 C   0  0  1  0  0  0  0  0  0  0  0  0
   -5.2877  -49.6093    5.7415 O   0  0  0  0  0  0  0  0  0  0  0  0
    5.6322  -51.4649   17.2949 C   0  0  2  0  0  0  0  0  0  0  0  0
    6.3443  -51.7693   18.4901 O   0  0  0  0  0  0  0  0  0  0  0  0
    6.5677  -47.9699   14.1883 C   0  0  2  0  0  0  0  0  0  0  0  0
    1.6755  -47.8756   11.4600 C   0  0  2  0  0  0  0  0  0  0  0  0
    2.9278  -47.4689   11.9927 O   0  0  0  0  0  0  0  0  0  0  0  0
   -0.5395  -52.6239    7.7084 C   0  0  2  0  0  0  0  0  0  0  0  0
   -1.7820  -51.8961    7.6991 O   0  0  0  0  0  0  0  0  0  0  0  0
   -5.6843  -51.9934    5.5669 C   0  0  2  0  0  0  0  0  0  0  0  0
   -7.0756  -52.2383    5.8683 O   0  0  0  0  0  0  0  0  0  0  0  0
    6.6337  -51.1727   16.1411 C   0  0  2  0  0  0  0  0  0  0  0  0
    5.8554  -50.8785   14.9175 O   0  0  0  0  0  0  0  0  0  0  0  0
    5.7703  -47.3533   12.9988 C   0  0  2  0  0  0  0  0  0  0  0  0
    5.0236  -48.4243   12.3732 O   0  0  0  0  0  0  0  0  0  0  0  0
    0.6361  -47.8070   12.5733 C   0  0  0  0  0  0  0  0  0  0  0  0
    0.4409  -46.4185   12.8817 O   0  0  0  0  0  0  0  0  0  0  0  0
    0.0068  -52.6290    9.1236 C   0  0  1  0  0  0  0  0  0  0  0  0
    0.4383  -51.4536    9.8409 O   0  0  0  0  0  0  0  0  0  0  0  0
   -4.7915  -53.2145    5.7700 C   0  0  2  0  0  0  0  0  0  0  0  0
   -3.3643  -52.9455    5.6912 O   0  0  0  0  0  0  0  0  0  0  0  0
    7.5208  -52.3428   15.8565 C   0  0  0  0  0  0  0  0  0  0  0  0
    8.3917  -52.5016   16.9437 O   0  0  0  0  0  0  0  0  0  0  0  0
    6.7575  -46.6728   11.9815 C   0  0  1  0  0  0  0  0  0  0  0  0
    5.9688  -46.0594   10.9040 O   0  0  0  0  0  0  0  0  0  0  0  0
   -0.8820  -53.4457   10.1273 C   0  0  0  0  0  0  0  0  0  0  0  0
   -1.0240  -54.8772    9.7668 N   0  0  0  0  0  0  0  0  0  0  0  0
   -4.9903  -54.5028    4.9746 C   0  0  0  0  0  0  0  0  0  0  0  0
   -4.8562  -54.2423    3.5433 O   0  0  0  0  0  0  0  0  0  0  0  0
  1  2  1  1  0  0  0
  1  8  1  0  0  0  0
  1 36  1  0  0  0  0
  3  4  1  6  0  0  0
  3 10  1  0  0  0  0
  3 47  1  0  0  0  0
  5 11  1  0  0  0  0
  5 30  1  0  0  0  0
  5 38  1  1  0  0  0
  6 21  1  1  0  0  0
  6 42  1  0  0  0  0
  7 15  1  0  0  0  0
  7 44  1  0  0  0  0
  7 32  1  1  0  0  0
  8  9  1  1  0  0  0
  8 17  1  0  0  0  0
 11 12  1  6  0  0  0
 11 20  1  0  0  0  0
 13  6  1  0  0  0  0
 13 14  1  1  0  0  0
 15 16  1  6  0  0  0
 15 24  1  0  0  0  0
 17 26  1  0  0  0  0
 18 10  1  0  0  0  0
 18 19  1  1  0  0  0
 20 21  1  6  0  0  0
 20 29  1  0  0  0  0
 22 13  1  0  0  0  0
 22 23  1  1  0  0  0
 24 25  1  6  0  0  0
 24 33  1  0  0  0  0
 26 27  1  1  0  0  0
 26 35  1  0  0  0  0
 28  2  1  1  0  0  0
 28 18  1  0  0  0  0
 29 30  1  0  0  0  0
 29 39  1  1  0  0  0
 31 22  1  0  0  0  0
 31 32  1  1  0  0  0
 31 41  1  0  0  0  0
 33 34  1  1  0  0  0
 33 43  1  0  0  0  0
 35 36  1  0  0  0  0
 35 45  1  6  0  0  0
 37 28  1  0  0  0  0
 37 38  1  6  0  0  0
 39 40  1  0  0  0  0
 41 42  1  0  0  0  0
 41 49  1  1  0  0  0
 43 44  1  0  0  0  0
 43 51  1  6  0  0  0
 45 46  1  0  0  0  0
 47 37  1  0  0  0  0
 47 48  1  6  0  0  0
 49 50  1  0  0  0  0
 51 52  1  0  0  0  0
M  END
>  <CHROM.1>
-170.81916778,-179.27081098,173.85956256,177.11284812,80.69315441,-164.86363728
-177.28190073,72.25071377,-69.19734218,167.80245763,60.37063576,59.50468222
1.93780550,-50.09655549,10.93569587,0.16427828,0.72731658,2.53043366

>  <Name>
2fd0_lig

>  <RI>
1.29864e+07

>  <Rbt.Current_Directory>
/home/itssahil/PROJECTS/Mol_Feturizer/New_Systems/rnas/2fd0

>  <Rbt.Executable>
rbdock ($Id: //depot/dev/client3/rdock/2013.1/src/exe/rbdock.cxx#4 $)

>  <Rbt.Library>
libRbt.so (2013.1, Build901 2013/11/27)

>  <Rbt.Parameter_File>
/export/apps/rDock/src/rDock_2013.1_src/data/scripts/dock_solv.prm

>  <Rbt.Receptor>
prm/pocket_docking_3.prm

>  <SCORE>
-28.2865

>  <SCORE.INTER>
-19.0541

>  <SCORE.INTER.CONST>
1

>  <SCORE.INTER.POLAR>
-1.83244

>  <SCORE.INTER.ROT>
12

>  <SCORE.INTER.SOLV>
18.7045

>  <SCORE.INTER.VDW>
-24.4295

>  <SCORE.INTER.norm>
-0.366425

>  <SCORE.INTRA>
-9.23237

>  <SCORE.INTRA.DIHEDRAL>
-16.9362

>  <SCORE.INTRA.DIHEDRAL.0>
23.9727

>  <SCORE.INTRA.POLAR>
0

>  <SCORE.INTRA.POLAR.0>
0

>  <SCORE.INTRA.REPUL>
0

>  <SCORE.INTRA.REPUL.0>
0

>  <SCORE.INTRA.SOLV>
-3.50416

>  <SCORE.INTRA.SOLV.lig_0>
-115.028

>  <SCORE.INTRA.VDW>
0.98779

>  <SCORE.INTRA.VDW.0>
-6.82393

>  <SCORE.INTRA.norm>
-0.177546

>  <SCORE.RESTR>
0

>  <SCORE.RESTR.CAVITY>
0

>  <SCORE.RESTR.norm>
0

>  <SCORE.SYSTEM>
0

>  <SCORE.SYSTEM.CONST>
0

>  <SCORE.SYSTEM.DIHEDRAL>
0

>  <SCORE.SYSTEM.SOLV>
0

>  <SCORE.SYSTEM.norm>
0

>  <SCORE.heavy>
52

>  <SCORE.norm>
-0.543971

>  <RMSD>
1.522

$$$$
2fd0_lig
 OpenBabel11021811433D
libRbt.so/2013.1/901 2013/11/27
 52 56  0  0  0  0  0  0  0  0999 V2000
    5.3290  -49.1238   14.4293 C   0  0  2  0  0  0  0  0  0  0  0  0
    5.7504  -47.7708   14.6502 O   0  0  0  0  0  0  0  0  0  0  0  0
    7.1307  -44.5097   12.1298 C   0  0  2  0  0  0  0  0  0  0  0  0
    7.9618  -43.6985   11.2251 N   0  0  0  0  0  0  0  0  0  0  0  0
    4.2698  -48.2932   11.2216 C   0  0  1  0  0  0  0  0  0  0  0  0
    1.7796  -49.6835    9.5619 C   0  0  1  0  0  0  0  0  0  0  0  0
   -1.6063  -50.3263    5.5182 C   0  0  1  0  0  0  0  0  0  0  0  0
    4.2187  -49.4802   15.4837 C   0  0  2  0  0  0  0  0  0  0  0  0
    3.0921  -48.5598   15.4172 N   0  0  0  0  0  0  0  0  0  0  0  0
    7.9365  -44.8562   13.4578 C   0  0  0  0  0  0  0  0  0  0  0  0
    4.0017  -49.7638   11.4843 C   0  0  2  0  0  0  0  0  0  0  0  0
    4.4110  -50.6066   10.3706 O   0  0  0  0  0  0  0  0  0  0  0  0
    0.3918  -48.8980    9.4329 C   0  0  2  0  0  0  0  0  0  0  0  0
   -0.7535  -49.8227    9.6535 N   0  0  0  0  0  0  0  0  0  0  0  0
   -2.5901  -49.1793    5.8411 C   0  0  1  0  0  0  0  0  0  0  0  0
   -1.9581  -47.9133    5.5286 O   0  0  0  0  0  0  0  0  0  0  0  0
    4.8338  -49.5297   16.9313 C   0  0  0  0  0  0  0  0  0  0  0  0
    7.0258  -45.7301   14.4459 C   0  0  2  0  0  0  0  0  0  0  0  0
    7.7487  -46.0665   15.6813 N   0  0  0  0  0  0  0  0  0  0  0  0
    2.5218  -49.7835   11.8278 C   0  0  2  0  0  0  0  0  0  0  0  0
    1.7623  -50.3460   10.7926 O   0  0  0  0  0  0  0  0  0  0  0  0
    0.4030  -48.1308    8.0108 C   0  0  1  0  0  0  0  0  0  0  0  0
    1.5617  -47.2781    7.9754 O   0  0  0  0  0  0  0  0  0  0  0  0
   -3.9779  -49.2101    5.1453 C   0  0  1  0  0  0  0  0  0  0  0  0
   -3.8873  -48.4321    3.9450 O   0  0  0  0  0  0  0  0  0  0  0  0
    6.0269  -50.5404   16.9297 C   0  0  2  0  0  0  0  0  0  0  0  0
    6.6010  -50.6281   18.2300 O   0  0  0  0  0  0  0  0  0  0  0  0
    6.5824  -47.0284   13.7155 C   0  0  2  0  0  0  0  0  0  0  0  0
    2.0228  -48.3241   11.9527 C   0  0  2  0  0  0  0  0  0  0  0  0
    3.2281  -47.5781   11.8631 O   0  0  0  0  0  0  0  0  0  0  0  0
    0.5519  -49.1597    6.7725 C   0  0  2  0  0  0  0  0  0  0  0  0
   -0.6320  -49.9769    6.8377 O   0  0  0  0  0  0  0  0  0  0  0  0
   -4.5296  -50.6102    4.7904 C   0  0  2  0  0  0  0  0  0  0  0  0
   -5.9379  -50.5686    5.1090 O   0  0  0  0  0  0  0  0  0  0  0  0
    7.1008  -50.0715   15.9067 C   0  0  2  0  0  0  0  0  0  0  0  0
    6.4694  -50.0098   14.5699 O   0  0  0  0  0  0  0  0  0  0  0  0
    5.8373  -46.7430   12.3759 C   0  0  2  0  0  0  0  0  0  0  0  0
    5.5186  -48.0206   11.7740 O   0  0  0  0  0  0  0  0  0  0  0  0
    1.3453  -47.9831   13.2753 C   0  0  0  0  0  0  0  0  0  0  0  0
    0.8940  -46.6236   13.1785 O   0  0  0  0  0  0  0  0  0  0  0  0
    1.7543  -50.0243    7.1012 C   0  0  1  0  0  0  0  0  0  0  0  0
    1.9913  -50.6481    8.3806 O   0  0  0  0  0  0  0  0  0  0  0  0
   -3.7676  -51.7042    5.5335 C   0  0  2  0  0  0  0  0  0  0  0  0
   -2.3205  -51.6320    5.4071 O   0  0  0  0  0  0  0  0  0  0  0  0
    8.2563  -51.0181   15.8308 C   0  0  0  0  0  0  0  0  0  0  0  0
    7.7508  -52.3000   15.5724 O   0  0  0  0  0  0  0  0  0  0  0  0
    6.7424  -45.8732   11.4289 C   0  0  1  0  0  0  0  0  0  0  0  0
    5.9894  -45.5814   10.2012 O   0  0  0  0  0  0  0  0  0  0  0  0
    2.0352  -51.1299    6.0227 C   0  0  0  0  0  0  0  0  0  0  0  0
    0.8280  -51.5442    5.2674 N   0  0  0  0  0  0  0  0  0  0  0  0
   -4.1012  -53.1840    5.3580 C   0  0  0  0  0  0  0  0  0  0  0  0
   -3.9871  -53.5676    3.9529 O   0  0  0  0  0  0  0  0  0  0  0  0
  1  2  1  1  0  0  0
  1  8  1  0  0  0  0
  1 36  1  0  0  0  0
  3  4  1  6  0  0  0
  3 10  1  0  0  0  0
  3 47  1  0  0  0  0
  5 11  1  0  0  0  0
  5 30  1  0  0  0  0
  5 38  1  1  0  0  0
  6 21  1  1  0  0  0
  6 42  1  0  0  0  0
  7 15  1  0  0  0  0
  7 44  1  0  0  0  0
  7 32  1  1  0  0  0
  8  9  1  1  0  0  0
  8 17  1  0  0  0  0
 11 12  1  6  0  0  0
 11 20  1  0  0  0  0
 13  6  1  0  0  0  0
 13 14  1  6  0  0  0
 15 16  1  6  0  0  0
 15 24  1  0  0  0  0
 17 26  1  0  0  0  0
 18 10  1  0  0  0  0
 18 19  1  1  0  0  0
 20 21  1  6  0  0  0
 20 29  1  0  0  0  0
 22 13  1  0  0  0  0
 22 23  1  1  0  0  0
 24 25  1  6  0  0  0
 24 33  1  0  0  0  0
 26 27  1  1  0  0  0
 26 35  1  0  0  0  0
 28  2  1  1  0  0  0
 28 18  1  0  0  0  0
 29 30  1  0  0  0  0
 29 39  1  1  0  0  0
 31 22  1  0  0  0  0
 31 32  1  1  0  0  0
 31 41  1  0  0  0  0
 33 34  1  1  0  0  0
 33 43  1  0  0  0  0
 35 36  1  0  0  0  0
 35 45  1  6  0  0  0
 37 28  1  0  0  0  0
 37 38  1  6  0  0  0
 39 40  1  0  0  0  0
 41 42  1  0  0  0  0
 41 49  1  6  0  0  0
 43 44  1  0  0  0  0
 43 51  1  6  0  0  0
 45 46  1  0  0  0  0
 47 37  1  0  0  0  0
 47 48  1  6  0  0  0
 49 50  1  0  0  0  0
 51 52  1  0  0  0  0
M  END
>  <CHROM.1>
-168.37578001,-145.99379586,-103.55133756,-95.77078227,-62.49209503,-169.39508809
-177.08974118,132.45188956,53.85641743,135.28924558,-26.33812658,57.67271068
2.46140006,-49.04674426,10.50048332,0.31362182,0.75574427,2.45144922

>  <Name>
2fd0_lig

>  <RI>
2.89522e+07

>  <Rbt.Current_Directory>
/home/itssahil/PROJECTS/Mol_Feturizer/New_Systems/rnas/2fd0

>  <Rbt.Executable>
rbdock ($Id: //depot/dev/client3/rdock/2013.1/src/exe/rbdock.cxx#4 $)

>  <Rbt.Library>
libRbt.so (2013.1, Build901 2013/11/27)

>  <Rbt.Parameter_File>
/export/apps/rDock/src/rDock_2013.1_src/data/scripts/dock_solv.prm

>  <Rbt.Receptor>
prm/pocket_docking_2.prm

>  <SCORE>
0.469312

>  <SCORE.INTER>
-10.2683

>  <SCORE.INTER.CONST>
1

>  <SCORE.INTER.POLAR>
-1.27875

>  <SCORE.INTER.ROT>
12

>  <SCORE.INTER.SOLV>
11.7616

>  <SCORE.INTER.VDW>
-18.1035

>  <SCORE.INTER.norm>
-0.197467

>  <SCORE.INTRA>
8.11932

>  <SCORE.INTRA.DIHEDRAL>
8.152

>  <SCORE.INTRA.DIHEDRAL.0>
23.9727

>  <SCORE.INTRA.POLAR>
0

>  <SCORE.INTRA.POLAR.0>
0

>  <SCORE.INTRA.REPUL>
0

>  <SCORE.INTRA.REPUL.0>
0

>  <SCORE.INTRA.SOLV>
3.2463

>  <SCORE.INTRA.SOLV.lig_0>
-115.028

>  <SCORE.INTRA.VDW>
2.42017

>  <SCORE.INTRA.VDW.0>
-6.82393

>  <SCORE.INTRA.norm>
0.156141

>  <SCORE.RESTR>
2.61826

>  <SCORE.RESTR.CAVITY>
2.61826

>  <SCORE.RESTR.norm>
0.0503512

>  <SCORE.SYSTEM>
0

>  <SCORE.SYSTEM.CONST>
0

>  <SCORE.SYSTEM.DIHEDRAL>
0

>  <SCORE.SYSTEM.SOLV>
0

>  <SCORE.SYSTEM.norm>
0

>  <SCORE.heavy>
52

>  <SCORE.norm>
0.00902523

>  <RMSD>
1.658

$$$$
2fd0_lig
 OpenBabel11021811433D
libRbt.so/2013.1/901 2013/11/27
 52 56  0  0  0  0  0  0  0  0999 V2000
    4.3909  -49.7196   14.2721 C   0  0  2  0  0  0  0  0  0  0  0  0
    4.7127  -48.3258   14.3759 O   0  0  0  0  0  0  0  0  0  0  0  0
    6.7676  -45.1822   12.1880 C   0  0  2  0  0  0  0  0  0  0  0  0
    7.7789  -44.4622   11.3967 N   0  0  0  0  0  0  0  0  0  0  0  0
    3.4845  -48.3423   10.7184 C   0  0  1  0  0  0  0  0  0  0  0  0
    0.6291  -51.0182    8.3406 C   0  0  1  0  0  0  0  0  0  0  0  0
   -2.3671  -50.9447    4.1926 C   0  0  1  0  0  0  0  0  0  0  0  0
    3.2827  -50.0574   15.3348 C   0  0  2  0  0  0  0  0  0  0  0  0
    2.0974  -49.2287   15.1647 N   0  0  0  0  0  0  0  0  0  0  0  0
    7.4117  -45.7372   13.5334 C   0  0  0  0  0  0  0  0  0  0  0  0
    3.4326  -49.6785   10.0006 C   0  0  2  0  0  0  0  0  0  0  0  0
    4.0172  -49.6125    8.6694 O   0  0  0  0  0  0  0  0  0  0  0  0
    1.3120  -51.4647    6.9645 C   0  0  2  0  0  0  0  0  0  0  0  0
    1.4076  -50.3097    6.0306 N   0  0  0  0  0  0  0  0  0  0  0  0
   -2.6445  -49.6895    5.0501 C   0  0  1  0  0  0  0  0  0  0  0  0
   -1.6334  -48.6910    4.7663 O   0  0  0  0  0  0  0  0  0  0  0  0
    3.8648  -49.9331   16.7915 C   0  0  0  0  0  0  0  0  0  0  0  0
    6.3062  -46.5111   14.3984 C   0  0  2  0  0  0  0  0  0  0  0  0
    6.8768  -47.0370   15.6472 N   0  0  0  0  0  0  0  0  0  0  0  0
    1.9588  -50.0421   10.0652 C   0  0  2  0  0  0  0  0  0  0  0  0
    1.3431  -49.9131    8.8126 O   0  0  0  0  0  0  0  0  0  0  0  0
    0.4904  -52.7412    6.4109 C   0  0  1  0  0  0  0  0  0  0  0  0
    0.5106  -53.7578    7.4293 O   0  0  0  0  0  0  0  0  0  0  0  0
   -4.0377  -49.0191    4.9070 C   0  0  1  0  0  0  0  0  0  0  0  0
   -3.9320  -47.9882    3.9170 O   0  0  0  0  0  0  0  0  0  0  0  0
    5.1243  -50.8529   16.9033 C   0  0  2  0  0  0  0  0  0  0  0  0
    5.6717  -50.7827   18.2162 O   0  0  0  0  0  0  0  0  0  0  0  0
    5.7162  -47.6719   13.5498 C   0  0  2  0  0  0  0  0  0  0  0  0
    1.2372  -49.0244   10.9807 C   0  0  2  0  0  0  0  0  0  0  0  0
    2.3171  -48.2750   11.5188 O   0  0  0  0  0  0  0  0  0  0  0  0
   -1.0648  -52.3876    6.1456 C   0  0  2  0  0  0  0  0  0  0  0  0
   -1.0359  -51.3842    5.1131 O   0  0  0  0  0  0  0  0  0  0  0  0
   -5.2073  -49.9562    4.5268 C   0  0  2  0  0  0  0  0  0  0  0  0
   -6.3281  -49.5306    5.3326 O   0  0  0  0  0  0  0  0  0  0  0  0
    6.1877  -50.4031   15.8609 C   0  0  2  0  0  0  0  0  0  0  0  0
    5.5858  -50.5066   14.5131 O   0  0  0  0  0  0  0  0  0  0  0  0
    5.1230  -47.1862   12.1921 C   0  0  2  0  0  0  0  0  0  0  0  0
    4.6499  -48.3549   11.4804 O   0  0  0  0  0  0  0  0  0  0  0  0
    0.4549  -49.6361   12.1375 C   0  0  0  0  0  0  0  0  0  0  0  0
   -0.1022  -48.5481   12.8906 O   0  0  0  0  0  0  0  0  0  0  0  0
   -1.5632  -51.7473    7.4275 C   0  0  1  0  0  0  0  0  0  0  0  0
   -0.8677  -50.7108    8.1514 O   0  0  0  0  0  0  0  0  0  0  0  0
   -4.8269  -51.4197    4.7344 C   0  0  2  0  0  0  0  0  0  0  0  0
   -3.5746  -51.8179    4.1111 O   0  0  0  0  0  0  0  0  0  0  0  0
    7.4071  -51.2687   15.8922 C   0  0  0  0  0  0  0  0  0  0  0  0
    7.0458  -52.5439   15.4351 O   0  0  0  0  0  0  0  0  0  0  0  0
    6.2195  -46.4180   11.3673 C   0  0  1  0  0  0  0  0  0  0  0  0
    5.6115  -45.9317   10.1210 O   0  0  0  0  0  0  0  0  0  0  0  0
   -3.0621  -51.2874    7.3476 C   0  0  0  0  0  0  0  0  0  0  0  0
   -3.5220  -50.5479    8.5480 N   0  0  0  0  0  0  0  0  0  0  0  0
   -5.7960  -52.5587    4.4255 C   0  0  0  0  0  0  0  0  0  0  0  0
   -7.0239  -52.4062    5.2023 O   0  0  0  0  0  0  0  0  0  0  0  0
  1  2  1  1  0  0  0
  1  8  1  0  0  0  0
  1 36  1  0  0  0  0
  3  4  1  6  0  0  0
  3 10  1  0  0  0  0
  3 47  1  0  0  0  0
  5 11  1  0  0  0  0
  5 30  1  0  0  0  0
  5 38  1  1  0  0  0
  6 21  1  6  0  0  0
  6 42  1  0  0  0  0
  7 15  1  0  0  0  0
  7 44  1  0  0  0  0
  7 32  1  1  0  0  0
  8  9  1  1  0  0  0
  8 17  1  0  0  0  0
 11 12  1  6  0  0  0
 11 20  1  0  0  0  0
 13  6  1  0  0  0  0
 13 14  1  6  0  0  0
 15 16  1  6  0  0  0
 15 24  1  0  0  0  0
 17 26  1  0  0  0  0
 18 10  1  0  0  0  0
 18 19  1  1  0  0  0
 20 21  1  6  0  0  0
 20 29  1  0  0  0  0
 22 13  1  0  0  0  0
 22 23  1  1  0  0  0
 24 25  1  6  0  0  0
 24 33  1  0  0  0  0
 26 27  1  1  0  0  0
 26 35  1  0  0  0  0
 28  2  1  1  0  0  0
 28 18  1  0  0  0  0
 29 30  1  0  0  0  0
 29 39  1  1  0  0  0
 31 22  1  0  0  0  0
 31 32  1  6  0  0  0
 31 41  1  0  0  0  0
 33 34  1  1  0  0  0
 33 43  1  0  0  0  0
 35 36  1  0  0  0  0
 35 45  1  6  0  0  0
 37 28  1  0  0  0  0
 37 38  1  6  0  0  0
 39 40  1  0  0  0  0
 41 42  1  0  0  0  0
 41 49  1  6  0  0  0
 43 44  1  0  0  0  0
 43 51  1  6  0  0  0
 45 46  1  0  0  0  0
 47 37  1  0  0  0  0
 47 48  1  6  0  0  0
 49 50  1  0  0  0  0
 51 52  1  0  0  0  0
M  END
>  <CHROM.1>
179.19775706,172.85196446,-119.73321572,99.46309860,127.45200134,-149.96861720
178.17656756,163.89987712,67.50862864,142.21764561,-174.62504940,-57.99491102
1.53829464,-49.67962295,10.04433140,0.47670223,0.66613327,2.20979400

>  <Name>
2fd0_lig

>  <RI>
2.89522e+07

>  <Rbt.Current_Directory>
/home/itssahil/PROJECTS/Mol_Feturizer/New_Systems/rnas/2fd0

>  <Rbt.Executable>
rbdock ($Id: //depot/dev/client3/rdock/2013.1/src/exe/rbdock.cxx#4 $)

>  <Rbt.Library>
libRbt.so (2013.1, Build901 2013/11/27)

>  <Rbt.Parameter_File>
/export/apps/rDock/src/rDock_2013.1_src/data/scripts/dock_solv.prm

>  <Rbt.Receptor>
prm/pocket_docking_2.prm

>  <SCORE>
-2.74847

>  <SCORE.INTER>
-9.57547

>  <SCORE.INTER.CONST>
1

>  <SCORE.INTER.POLAR>
-1.09625

>  <SCORE.INTER.ROT>
12

>  <SCORE.INTER.SOLV>
13.9744

>  <SCORE.INTER.VDW>
-18.9876

>  <SCORE.INTER.norm>
-0.184144

>  <SCORE.INTRA>
4.47253

>  <SCORE.INTRA.DIHEDRAL>
7.32214

>  <SCORE.INTRA.DIHEDRAL.0>
23.9727

>  <SCORE.INTRA.POLAR>
0

>  <SCORE.INTRA.POLAR.0>
0

>  <SCORE.INTRA.REPUL>
0

>  <SCORE.INTRA.REPUL.0>
0

>  <SCORE.INTRA.SOLV>
1.03977

>  <SCORE.INTRA.SOLV.lig_0>
-115.028

>  <SCORE.INTRA.VDW>
0.291582

>  <SCORE.INTRA.VDW.0>
-6.82393

>  <SCORE.INTRA.norm>
0.0860103

>  <SCORE.RESTR>
2.35446

>  <SCORE.RESTR.CAVITY>
2.35446

>  <SCORE.RESTR.norm>
0.0452781

>  <SCORE.SYSTEM>
0

>  <SCORE.SYSTEM.CONST>
0

>  <SCORE.SYSTEM.DIHEDRAL>
0

>  <SCORE.SYSTEM.SOLV>
0

>  <SCORE.SYSTEM.norm>
0

>  <SCORE.heavy>
52

>  <SCORE.norm>
-0.0528553

>  <RMSD>
1.726

$$$$
2fd0_lig
 OpenBabel11021811433D
libRbt.so/2013.1/901 2013/11/27
 52 56  0  0  0  0  0  0  0  0999 V2000
    5.3000  -49.6060   15.2358 C   0  0  2  0  0  0  0  0  0  0  0  0
    5.8731  -48.3583   15.6500 O   0  0  0  0  0  0  0  0  0  0  0  0
    7.5357  -44.7839   13.8191 C   0  0  2  0  0  0  0  0  0  0  0  0
    8.3747  -43.8960   12.9976 N   0  0  0  0  0  0  0  0  0  0  0  0
    4.1491  -47.3386   12.0197 C   0  0  1  0  0  0  0  0  0  0  0  0
    2.6108  -48.8761    8.4688 C   0  0  1  0  0  0  0  0  0  0  0  0
   -0.3685  -51.0853    4.7638 C   0  0  1  0  0  0  0  0  0  0  0  0
    4.2221  -50.0375   16.2957 C   0  0  2  0  0  0  0  0  0  0  0  0
    3.1963  -49.0189   16.4717 N   0  0  0  0  0  0  0  0  0  0  0  0
    8.4416  -45.6397   14.8089 C   0  0  0  0  0  0  0  0  0  0  0  0
    4.0061  -48.5019   11.0554 C   0  0  2  0  0  0  0  0  0  0  0  0
    4.8207  -48.3317    9.8614 O   0  0  0  0  0  0  0  0  0  0  0  0
    2.2482  -48.0545    7.1448 C   0  0  2  0  0  0  0  0  0  0  0  0
    0.8008  -47.7083    7.1256 N   0  0  0  0  0  0  0  0  0  0  0  0
   -1.6242  -50.4084    5.3578 C   0  0  1  0  0  0  0  0  0  0  0  0
   -1.7725  -49.0914    4.7717 O   0  0  0  0  0  0  0  0  0  0  0  0
    4.9122  -50.3982   17.6632 C   0  0  0  0  0  0  0  0  0  0  0  0
    7.5251  -46.5976   15.7099 C   0  0  2  0  0  0  0  0  0  0  0  0
    8.3391  -47.4024   16.6328 N   0  0  0  0  0  0  0  0  0  0  0  0
    2.5048  -48.5774   10.8342 C   0  0  2  0  0  0  0  0  0  0  0  0
    2.1514  -48.1259    9.5551 O   0  0  0  0  0  0  0  0  0  0  0  0
    2.7744  -48.9167    5.8836 C   0  0  1  0  0  0  0  0  0  0  0  0
    4.1841  -49.1466    6.0601 O   0  0  0  0  0  0  0  0  0  0  0  0
   -2.9769  -51.1564    5.2114 C   0  0  1  0  0  0  0  0  0  0  0  0
   -3.6166  -50.6827    4.0195 O   0  0  0  0  0  0  0  0  0  0  0  0
    5.9905  -51.4994   17.4000 C   0  0  2  0  0  0  0  0  0  0  0  0
    6.6274  -51.8679   18.6194 O   0  0  0  0  0  0  0  0  0  0  0  0
    6.6929  -47.5263   14.7823 C   0  0  2  0  0  0  0  0  0  0  0  0
    1.8098  -47.6043   11.8162 C   0  0  2  0  0  0  0  0  0  0  0  0
    2.8854  -47.1788   12.6405 O   0  0  0  0  0  0  0  0  0  0  0  0
    2.0763  -50.3735    5.8166 C   0  0  2  0  0  0  0  0  0  0  0  0
    0.6769  -50.0947    5.6232 O   0  0  0  0  0  0  0  0  0  0  0  0
   -2.8979  -52.6995    5.1542 C   0  0  2  0  0  0  0  0  0  0  0  0
   -3.9999  -53.1782    5.9560 O   0  0  0  0  0  0  0  0  0  0  0  0
    7.0460  -50.9600   16.3928 C   0  0  2  0  0  0  0  0  0  0  0  0
    6.3474  -50.6054   15.1375 O   0  0  0  0  0  0  0  0  0  0  0  0
    5.8298  -46.7350   13.7529 C   0  0  2  0  0  0  0  0  0  0  0  0
    5.1423  -47.7035   12.9250 O   0  0  0  0  0  0  0  0  0  0  0  0
    0.7444  -48.2348   12.7062 C   0  0  0  0  0  0  0  0  0  0  0  0
    1.3788  -49.2979   13.4332 O   0  0  0  0  0  0  0  0  0  0  0  0
    2.2620  -50.9800    7.1947 C   0  0  1  0  0  0  0  0  0  0  0  0
    2.0044  -50.2909    8.4360 O   0  0  0  0  0  0  0  0  0  0  0  0
   -1.5355  -53.1966    5.6301 C   0  0  2  0  0  0  0  0  0  0  0  0
   -0.3964  -52.5605    4.9872 O   0  0  0  0  0  0  0  0  0  0  0  0
    8.0894  -51.9819   16.0702 C   0  0  0  0  0  0  0  0  0  0  0  0
    7.4630  -53.0476   15.4087 O   0  0  0  0  0  0  0  0  0  0  0  0
    6.7465  -45.7921   12.8907 C   0  0  1  0  0  0  0  0  0  0  0  0
    5.8946  -45.0264   11.9700 O   0  0  0  0  0  0  0  0  0  0  0  0
    1.6017  -52.3966    7.3417 C   0  0  0  0  0  0  0  0  0  0  0  0
    1.8323  -53.0259    8.6646 N   0  0  0  0  0  0  0  0  0  0  0  0
   -1.1840  -54.6822    5.6656 C   0  0  0  0  0  0  0  0  0  0  0  0
   -2.0536  -55.3879    6.6038 O   0  0  0  0  0  0  0  0  0  0  0  0
  1  2  1  1  0  0  0
  1  8  1  0  0  0  0
  1 36  1  0  0  0  0
  3  4  1  6  0  0  0
  3 10  1  0  0  0  0
  3 47  1  0  0  0  0
  5 11  1  0  0  0  0
  5 30  1  0  0  0  0
  5 38  1  1  0  0  0
  6 21  1  1  0  0  0
  6 42  1  0  0  0  0
  7 15  1  0  0  0  0
  7 44  1  0  0  0  0
  7 32  1  1  0  0  0
  8  9  1  1  0  0  0
  8 17  1  0  0  0  0
 11 12  1  6  0  0  0
 11 20  1  0  0  0  0
 13  6  1  0  0  0  0
 13 14  1  6  0  0  0
 15 16  1  6  0  0  0
 15 24  1  0  0  0  0
 17 26  1  0  0  0  0
 18 10  1  0  0  0  0
 18 19  1  1  0  0  0
 20 21  1  6  0  0  0
 20 29  1  0  0  0  0
 22 13  1  0  0  0  0
 22 23  1  1  0  0  0
 24 25  1  6  0  0  0
 24 33  1  0  0  0  0
 26 27  1  1  0  0  0
 26 35  1  0  0  0  0
 28  2  1  1  0  0  0
 28 18  1  0  0  0  0
 29 30  1  0  0  0  0
 29 39  1  1  0  0  0
 31 22  1  0  0  0  0
 31 32  1  1  0  0  0
 31 41  1  0  0  0  0
 33 34  1  1  0  0  0
 33 43  1  0  0  0  0
 35 36  1  0  0  0  0
 35 45  1  6  0  0  0
 37 28  1  0  0  0  0
 37 38  1  6  0  0  0
 39 40  1  0  0  0  0
 41 42  1  0  0  0  0
 41 49  1  6  0  0  0
 43 44  1  0  0  0  0
 43 51  1  6  0  0  0
 45 46  1  0  0  0  0
 47 37  1  0  0  0  0
 47 48  1  6  0  0  0
 49 50  1  0  0  0  0
 51 52  1  0  0  0  0
M  END
>  <CHROM.1>
-166.67014366,161.96295447,-172.49612982,163.80651457,64.97375056,-159.29311261
57.35159693,148.28632580,64.62870950,171.16028503,177.27006144,-63.24990630
3.05680897,-49.56537942,10.75173358,0.32665319,0.89554688,2.42965563

>  <Name>
2fd0_lig

>  <RI>
2.00683e+07

>  <Rbt.Current_Directory>
/home/itssahil/PROJECTS/Mol_Feturizer/New_Systems/rnas/2fd0

>  <Rbt.Executable>
rbdock ($Id: //depot/dev/client3/rdock/2013.1/src/exe/rbdock.cxx#4 $)

>  <Rbt.Library>
libRbt.so (2013.1, Build901 2013/11/27)

>  <Rbt.Parameter_File>
/export/apps/rDock/src/rDock_2013.1_src/data/scripts/dock_solv.prm

>  <Rbt.Receptor>
prm/pocket_docking_4.prm

>  <SCORE>
-24.9402

>  <SCORE.INTER>
-18.685

>  <SCORE.INTER.CONST>
1

>  <SCORE.INTER.POLAR>
-1.26922

>  <SCORE.INTER.ROT>
12

>  <SCORE.INTER.SOLV>
17.884

>  <SCORE.INTER.VDW>
-25.7873

>  <SCORE.INTER.norm>
-0.359326

>  <SCORE.INTRA>
-6.25524

>  <SCORE.INTRA.DIHEDRAL>
-12.1864

>  <SCORE.INTRA.DIHEDRAL.0>
23.9727

>  <SCORE.INTRA.POLAR>
0

>  <SCORE.INTRA.POLAR.0>
0

>  <SCORE.INTRA.REPUL>
0

>  <SCORE.INTRA.REPUL.0>
0

>  <SCORE.INTRA.SOLV>
-2.74855

>  <SCORE.INTRA.SOLV.lig_0>
-115.028

>  <SCORE.INTRA.VDW>
1.21222

>  <SCORE.INTRA.VDW.0>
-6.82393

>  <SCORE.INTRA.norm>
-0.120293

>  <SCORE.RESTR>
0

>  <SCORE.RESTR.CAVITY>
0

>  <SCORE.RESTR.norm>
0

>  <SCORE.SYSTEM>
0

>  <SCORE.SYSTEM.CONST>
0

>  <SCORE.SYSTEM.DIHEDRAL>
0

>  <SCORE.SYSTEM.SOLV>
0

>  <SCORE.SYSTEM.norm>
0

>  <SCORE.heavy>
52

>  <SCORE.norm>
-0.479619

>  <RMSD>
1.738

$$$$
2fd0_lig
 OpenBabel11021811433D
libRbt.so/2013.1/901 2013/11/27
 52 56  0  0  0  0  0  0  0  0999 V2000
    5.2624  -49.2613   14.8879 C   0  0  2  0  0  0  0  0  0  0  0  0
    5.8989  -48.0047   15.1575 O   0  0  0  0  0  0  0  0  0  0  0  0
    8.0725  -44.8800   13.0588 C   0  0  2  0  0  0  0  0  0  0  0  0
    9.0481  -44.1958   12.1946 N   0  0  0  0  0  0  0  0  0  0  0  0
    4.3511  -47.1741   11.4669 C   0  0  1  0  0  0  0  0  0  0  0  0
    1.8729  -49.0795    8.5776 C   0  0  1  0  0  0  0  0  0  0  0  0
   -2.4263  -51.1638    6.2663 C   0  0  1  0  0  0  0  0  0  0  0  0
    4.1134  -49.4756   15.9393 C   0  0  2  0  0  0  0  0  0  0  0  0
    3.1511  -48.3828   15.9215 N   0  0  0  0  0  0  0  0  0  0  0  0
    8.8241  -45.7305   14.1745 C   0  0  0  0  0  0  0  0  0  0  0  0
    3.8386  -48.4497   10.8236 C   0  0  2  0  0  0  0  0  0  0  0  0
    4.5016  -48.7350    9.5598 O   0  0  0  0  0  0  0  0  0  0  0  0
    1.2908  -48.5603    7.1808 C   0  0  2  0  0  0  0  0  0  0  0  0
    0.0008  -47.8467    7.3861 N   0  0  0  0  0  0  0  0  0  0  0  0
   -1.9907  -51.0774    4.7862 C   0  0  1  0  0  0  0  0  0  0  0  0
   -0.9233  -52.0291    4.5519 O   0  0  0  0  0  0  0  0  0  0  0  0
    4.7185  -49.6833   17.3771 C   0  0  0  0  0  0  0  0  0  0  0  0
    7.7598  -46.4657   15.1211 C   0  0  2  0  0  0  0  0  0  0  0  0
    8.4292  -47.2616   16.1604 N   0  0  0  0  0  0  0  0  0  0  0  0
    2.3389  -48.2159   10.7529 C   0  0  2  0  0  0  0  0  0  0  0  0
    1.9183  -47.9781    9.4371 O   0  0  0  0  0  0  0  0  0  0  0  0
    1.2330  -49.8289    6.1816 C   0  0  1  0  0  0  0  0  0  0  0  0
    2.5578  -50.3838    6.0916 O   0  0  0  0  0  0  0  0  0  0  0  0
   -3.0824  -51.3014    3.7050 C   0  0  1  0  0  0  0  0  0  0  0  0
   -3.0705  -52.6890    3.3466 O   0  0  0  0  0  0  0  0  0  0  0  0
    5.7314  -50.8731   17.3226 C   0  0  2  0  0  0  0  0  0  0  0  0
    6.2892  -51.1058   18.6121 O   0  0  0  0  0  0  0  0  0  0  0  0
    6.8500  -47.3782   14.2520 C   0  0  2  0  0  0  0  0  0  0  0  0
    2.0025  -46.9199   11.5286 C   0  0  2  0  0  0  0  0  0  0  0  0
    3.2448  -46.5929   12.1347 O   0  0  0  0  0  0  0  0  0  0  0  0
    0.2808  -51.0036    6.7539 C   0  0  2  0  0  0  0  0  0  0  0  0
   -1.0301  -50.4105    6.8102 O   0  0  0  0  0  0  0  0  0  0  0  0
   -4.5228  -50.9018    4.1002 C   0  0  2  0  0  0  0  0  0  0  0  0
   -5.0854  -50.2613    2.9342 O   0  0  0  0  0  0  0  0  0  0  0  0
    6.8629  -50.5433   16.3073 C   0  0  2  0  0  0  0  0  0  0  0  0
    6.2442  -50.3256   14.9809 O   0  0  0  0  0  0  0  0  0  0  0  0
    6.1340  -46.6009   13.1057 C   0  0  2  0  0  0  0  0  0  0  0  0
    5.3589  -47.5599   12.3470 O   0  0  0  0  0  0  0  0  0  0  0  0
    0.9591  -47.0772   12.6291 C   0  0  0  0  0  0  0  0  0  0  0  0
    1.4147  -48.1289   13.4937 O   0  0  0  0  0  0  0  0  0  0  0  0
    0.7558  -51.2610    8.1716 C   0  0  1  0  0  0  0  0  0  0  0  0
    1.0248  -50.2317    9.1464 O   0  0  0  0  0  0  0  0  0  0  0  0
   -4.5245  -50.0166    5.3436 C   0  0  2  0  0  0  0  0  0  0  0  0
   -3.7691  -50.5450    6.4686 O   0  0  0  0  0  0  0  0  0  0  0  0
    7.8489  -51.6610   16.1815 C   0  0  0  0  0  0  0  0  0  0  0  0
    7.2217  -52.7192   15.5088 O   0  0  0  0  0  0  0  0  0  0  0  0
    7.1952  -45.8764   12.1992 C   0  0  1  0  0  0  0  0  0  0  0  0
    6.4831  -45.1141   11.1641 O   0  0  0  0  0  0  0  0  0  0  0  0
   -0.0885  -52.3536    8.9185 C   0  0  0  0  0  0  0  0  0  0  0  0
   -1.5220  -52.0021    9.0622 N   0  0  0  0  0  0  0  0  0  0  0  0
   -5.8186  -49.4865    5.9570 C   0  0  0  0  0  0  0  0  0  0  0  0
   -5.5261  -48.4464    6.9405 O   0  0  0  0  0  0  0  0  0  0  0  0
  1  2  1  1  0  0  0
  1  8  1  0  0  0  0
  1 36  1  0  0  0  0
  3  4  1  6  0  0  0
  3 10  1  0  0  0  0
  3 47  1  0  0  0  0
  5 11  1  0  0  0  0
  5 30  1  0  0  0  0
  5 38  1  1  0  0  0
  6 21  1  1  0  0  0
  6 42  1  0  0  0  0
  7 15  1  0  0  0  0
  7 44  1  0  0  0  0
  7 32  1  1  0  0  0
  8  9  1  1  0  0  0
  8 17  1  0  0  0  0
 11 12  1  6  0  0  0
 11 20  1  0  0  0  0
 13  6  1  0  0  0  0
 13 14  1  1  0  0  0
 15 16  1  1  0  0  0
 15 24  1  0  0  0  0
 17 26  1  0  0  0  0
 18 10  1  0  0  0  0
 18 19  1  1  0  0  0
 20 21  1  6  0  0  0
 20 29  1  0  0  0  0
 22 13  1  0  0  0  0
 22 23  1  1  0  0  0
 24 25  1  1  0  0  0
 24 33  1  0  0  0  0
 26 27  1  1  0  0  0
 26 35  1  0  0  0  0
 28  2  1  1  0  0  0
 28 18  1  0  0  0  0
 29 30  1  0  0  0  0
 29 39  1  1  0  0  0
 31 22  1  0  0  0  0
 31 32  1  1  0  0  0
 31 41  1  0  0  0  0
 33 34  1  6  0  0  0
 33 43  1  0  0  0  0
 35 36  1  0  0  0  0
 35 45  1  6  0  0  0
 37 28  1  0  0  0  0
 37 38  1  6  0  0  0
 39 40  1  0  0  0  0
 41 42  1  0  0  0  0
 41 49  1  1  0  0  0
 43 44  1  0  0  0  0
 43 51  1  1  0  0  0
 45 46  1  0  0  0  0
 47 37  1  0  0  0  0
 47 48  1  6  0  0  0
 49 50  1  0  0  0  0
 51 52  1  0  0  0  0
M  END
>  <CHROM.1>
-169.22236481,177.08558955,176.91669739,-68.77832801,74.15066722,-154.39323784
54.32186165,134.43261326,70.87710149,163.92990359,-60.82608337,-167.61612713
2.42122515,-49.12502433,10.59990075,0.43729169,0.70574619,2.27660133

>  <Name>
2fd0_lig

>  <RI>
2.89522e+07

>  <Rbt.Current_Directory>
/home/itssahil/PROJECTS/Mol_Feturizer/New_Systems/rnas/2fd0

>  <Rbt.Executable>
rbdock ($Id: //depot/dev/client3/rdock/2013.1/src/exe/rbdock.cxx#4 $)

>  <Rbt.Library>
libRbt.so (2013.1, Build901 2013/11/27)

>  <Rbt.Parameter_File>
/export/apps/rDock/src/rDock_2013.1_src/data/scripts/dock_solv.prm

>  <Rbt.Receptor>
prm/pocket_docking_2.prm

>  <SCORE>
-11.0876

>  <SCORE.INTER>
-9.54998

>  <SCORE.INTER.CONST>
1

>  <SCORE.INTER.POLAR>
-1.14914

>  <SCORE.INTER.ROT>
12

>  <SCORE.INTER.SOLV>
12.4867

>  <SCORE.INTER.VDW>
-18.2984

>  <SCORE.INTER.norm>
-0.183653

>  <SCORE.INTRA>
-3.0878

>  <SCORE.INTRA.DIHEDRAL>
-9.40138

>  <SCORE.INTRA.DIHEDRAL.0>
23.9727

>  <SCORE.INTRA.POLAR>
0

>  <SCORE.INTRA.POLAR.0>
0

>  <SCORE.INTRA.REPUL>
0

>  <SCORE.INTRA.REPUL.0>
0

>  <SCORE.INTRA.SOLV>
0.151061

>  <SCORE.INTRA.SOLV.lig_0>
-115.028

>  <SCORE.INTRA.VDW>
1.53736

>  <SCORE.INTRA.VDW.0>
-6.82393

>  <SCORE.INTRA.norm>
-0.0593808

>  <SCORE.RESTR>
1.55014

>  <SCORE.RESTR.CAVITY>
1.55014

>  <SCORE.RESTR.norm>
0.0298104

>  <SCORE.SYSTEM>
0

>  <SCORE.SYSTEM.CONST>
0

>  <SCORE.SYSTEM.DIHEDRAL>
0

>  <SCORE.SYSTEM.SOLV>
0

>  <SCORE.SYSTEM.norm>
0

>  <SCORE.heavy>
52

>  <SCORE.norm>
-0.213224

>  <RMSD>
1.772

$$$$
2fd0_lig
 OpenBabel11021811433D
libRbt.so/2013.1/901 2013/11/27
 52 56  0  0  0  0  0  0  0  0999 V2000
    4.8841  -49.7852   14.8295 C   0  0  2  0  0  0  0  0  0  0  0  0
    5.4636  -48.4894   15.0341 O   0  0  0  0  0  0  0  0  0  0  0  0
    7.5045  -45.5143   12.6099 C   0  0  2  0  0  0  0  0  0  0  0  0
    8.5019  -44.8607   11.7467 N   0  0  0  0  0  0  0  0  0  0  0  0
    4.3019  -48.6272   11.1767 C   0  0  1  0  0  0  0  0  0  0  0  0
    1.8901  -49.4118    9.0510 C   0  0  1  0  0  0  0  0  0  0  0  0
   -0.3934  -50.7385    4.6440 C   0  0  1  0  0  0  0  0  0  0  0  0
    3.6932  -49.9655   15.8399 C   0  0  2  0  0  0  0  0  0  0  0  0
    2.6962  -48.9137   15.6964 N   0  0  0  0  0  0  0  0  0  0  0  0
    8.1839  -46.0108   13.9608 C   0  0  0  0  0  0  0  0  0  0  0  0
    3.1288  -49.4113   11.7358 C   0  0  2  0  0  0  0  0  0  0  0  0
    3.1440  -50.8036   11.3121 O   0  0  0  0  0  0  0  0  0  0  0  0
    1.4381  -48.2185    8.0859 C   0  0  2  0  0  0  0  0  0  0  0  0
   -0.0463  -48.1487    8.0026 N   0  0  0  0  0  0  0  0  0  0  0  0
   -1.7577  -50.0806    4.9501 C   0  0  1  0  0  0  0  0  0  0  0  0
   -1.7865  -48.7571    4.3605 O   0  0  0  0  0  0  0  0  0  0  0  0
    4.2341  -50.0452   17.3155 C   0  0  0  0  0  0  0  0  0  0  0  0
    7.0938  -46.7122   14.9037 C   0  0  2  0  0  0  0  0  0  0  0  0
    7.6971  -47.1830   16.1591 N   0  0  0  0  0  0  0  0  0  0  0  0
    1.9293  -48.5913   11.2916 C   0  0  2  0  0  0  0  0  0  0  0  0
    1.2215  -49.2320   10.2653 O   0  0  0  0  0  0  0  0  0  0  0  0
    2.2054  -48.4205    6.6783 C   0  0  1  0  0  0  0  0  0  0  0  0
    3.6194  -48.4524    6.9440 O   0  0  0  0  0  0  0  0  0  0  0  0
   -3.0350  -50.8382    4.4967 C   0  0  1  0  0  0  0  0  0  0  0  0
   -3.3977  -50.3540    3.1974 O   0  0  0  0  0  0  0  0  0  0  0  0
    5.2883  -51.1971   17.3965 C   0  0  2  0  0  0  0  0  0  0  0  0
    5.7901  -51.3143   18.7241 O   0  0  0  0  0  0  0  0  0  0  0  0
    6.4506  -47.9033   14.1399 C   0  0  2  0  0  0  0  0  0  0  0  0
    2.4364  -47.2673   10.6719 C   0  0  2  0  0  0  0  0  0  0  0  0
    3.8287  -47.3110   10.9495 O   0  0  0  0  0  0  0  0  0  0  0  0
    1.8357  -49.8352    5.9882 C   0  0  2  0  0  0  0  0  0  0  0  0
    0.4223  -49.7506    5.7263 O   0  0  0  0  0  0  0  0  0  0  0  0
   -2.9274  -52.3796    4.4412 C   0  0  2  0  0  0  0  0  0  0  0  0
   -4.1751  -52.8786    4.9711 O   0  0  0  0  0  0  0  0  0  0  0  0
    6.4561  -50.8997   16.4128 C   0  0  2  0  0  0  0  0  0  0  0  0
    5.8959  -50.8023   15.0468 O   0  0  0  0  0  0  0  0  0  0  0  0
    5.8202  -47.4779   12.7788 C   0  0  2  0  0  0  0  0  0  0  0  0
    5.2985  -48.6722   12.1483 O   0  0  0  0  0  0  0  0  0  0  0  0
    1.8630  -45.9997   11.2956 C   0  0  0  0  0  0  0  0  0  0  0  0
    2.2992  -45.9693   12.6631 O   0  0  0  0  0  0  0  0  0  0  0  0
    2.0666  -50.8852    7.0586 C   0  0  1  0  0  0  0  0  0  0  0  0
    1.5991  -50.7857    8.4201 O   0  0  0  0  0  0  0  0  0  0  0  0
   -1.7001  -52.8713    5.2038 C   0  0  2  0  0  0  0  0  0  0  0  0
   -0.4536  -52.2168    4.8389 O   0  0  0  0  0  0  0  0  0  0  0  0
    7.4845  -51.9858   16.4161 C   0  0  0  0  0  0  0  0  0  0  0  0
    8.5836  -51.5449   15.6655 O   0  0  0  0  0  0  0  0  0  0  0  0
    6.9025  -46.7798   11.8767 C   0  0  1  0  0  0  0  0  0  0  0  0
    6.2612  -46.3475   10.6273 O   0  0  0  0  0  0  0  0  0  0  0  0
    1.7131  -52.3397    6.5854 C   0  0  0  0  0  0  0  0  0  0  0  0
    1.9754  -53.3788    7.6105 N   0  0  0  0  0  0  0  0  0  0  0  0
   -1.3485  -54.3542    5.3002 C   0  0  0  0  0  0  0  0  0  0  0  0
   -2.3386  -55.0597    6.1105 O   0  0  0  0  0  0  0  0  0  0  0  0
  1  2  1  1  0  0  0
  1  8  1  0  0  0  0
  1 36  1  0  0  0  0
  3  4  1  6  0  0  0
  3 10  1  0  0  0  0
  3 47  1  0  0  0  0
  5 11  1  0  0  0  0
  5 30  1  0  0  0  0
  5 38  1  1  0  0  0
  6 21  1  1  0  0  0
  6 42  1  0  0  0  0
  7 15  1  0  0  0  0
  7 44  1  0  0  0  0
  7 32  1  1  0  0  0
  8  9  1  1  0  0  0
  8 17  1  0  0  0  0
 11 12  1  6  0  0  0
 11 20  1  0  0  0  0
 13  6  1  0  0  0  0
 13 14  1  6  0  0  0
 15 16  1  6  0  0  0
 15 24  1  0  0  0  0
 17 26  1  0  0  0  0
 18 10  1  0  0  0  0
 18 19  1  1  0  0  0
 20 21  1  6  0  0  0
 20 29  1  0  0  0  0
 22 13  1  0  0  0  0
 22 23  1  1  0  0  0
 24 25  1  6  0  0  0
 24 33  1  0  0  0  0
 26 27  1  1  0  0  0
 26 35  1  0  0  0  0
 28  2  1  1  0  0  0
 28 18  1  0  0  0  0
 29 30  1  0  0  0  0
 29 39  1  1  0  0  0
 31 22  1  0  0  0  0
 31 32  1  1  0  0  0
 31 41  1  0  0  0  0
 33 34  1  1  0  0  0
 33 43  1  0  0  0  0
 35 36  1  0  0  0  0
 35 45  1  6  0  0  0
 37 28  1  0  0  0  0
 37 38  1  6  0  0  0
 39 40  1  0  0  0  0
 41 42  1  0  0  0  0
 41 49  1  6  0  0  0
 43 44  1  0  0  0  0
 43 51  1  6  0  0  0
 45 46  1  0  0  0  0
 47 37  1  0  0  0  0
 47 48  1  6  0  0  0
 49 50  1  0  0  0  0
 51 52  1  0  0  0  0
M  END
>  <CHROM.1>
-170.16005687,-119.11827875,-97.45658981,178.87575301,-64.35758717,-164.75168345
63.36705659,161.75665298,-171.21184208,157.86465067,178.19401431,-68.11131669
2.85237612,-49.56064254,10.42500742,0.37347330,0.87390876,2.40579602

>  <Name>
2fd0_lig

>  <RI>
1.29864e+07

>  <Rbt.Current_Directory>
/home/itssahil/PROJECTS/Mol_Feturizer/New_Systems/rnas/2fd0

>  <Rbt.Executable>
rbdock ($Id: //depot/dev/client3/rdock/2013.1/src/exe/rbdock.cxx#4 $)

>  <Rbt.Library>
libRbt.so (2013.1, Build901 2013/11/27)

>  <Rbt.Parameter_File>
/export/apps/rDock/src/rDock_2013.1_src/data/scripts/dock_solv.prm

>  <Rbt.Receptor>
prm/pocket_docking_3.prm

>  <SCORE>
-17.5964

>  <SCORE.INTER>
-17.463

>  <SCORE.INTER.CONST>
1

>  <SCORE.INTER.POLAR>
-0.985111

>  <SCORE.INTER.ROT>
12

>  <SCORE.INTER.SOLV>
17.3374

>  <SCORE.INTER.VDW>
-25.7374

>  <SCORE.INTER.norm>
-0.335827

>  <SCORE.INTRA>
-0.133425

>  <SCORE.INTRA.DIHEDRAL>
-4.48476

>  <SCORE.INTRA.DIHEDRAL.0>
23.9727

>  <SCORE.INTRA.POLAR>
0

>  <SCORE.INTRA.POLAR.0>
0

>  <SCORE.INTRA.REPUL>
0.0351268

>  <SCORE.INTRA.REPUL.0>
0

>  <SCORE.INTRA.SOLV>
-1.5706

>  <SCORE.INTRA.SOLV.lig_0>
-115.028

>  <SCORE.INTRA.VDW>
2.71862

>  <SCORE.INTRA.VDW.0>
-6.82393

>  <SCORE.INTRA.norm>
-0.00256586

>  <SCORE.RESTR>
0

>  <SCORE.RESTR.CAVITY>
0

>  <SCORE.RESTR.norm>
0

>  <SCORE.SYSTEM>
0

>  <SCORE.SYSTEM.CONST>
0

>  <SCORE.SYSTEM.DIHEDRAL>
0

>  <SCORE.SYSTEM.SOLV>
0

>  <SCORE.SYSTEM.norm>
0

>  <SCORE.heavy>
52

>  <SCORE.norm>
-0.338392

>  <RMSD>
1.830

$$$$
2fd0_lig
 OpenBabel11021811433D
libRbt.so/2013.1/901 2013/11/27
 52 56  0  0  0  0  0  0  0  0999 V2000
    5.4242  -49.8636   15.3053 C   0  0  2  0  0  0  0  0  0  0  0  0
    6.0713  -48.6326   15.6558 O   0  0  0  0  0  0  0  0  0  0  0  0
    7.7094  -45.1813   13.5826 C   0  0  2  0  0  0  0  0  0  0  0  0
    8.5349  -44.3478   12.6933 N   0  0  0  0  0  0  0  0  0  0  0  0
    4.1504  -47.8496   12.1624 C   0  0  1  0  0  0  0  0  0  0  0  0
    2.3018  -49.3752    8.6568 C   0  0  1  0  0  0  0  0  0  0  0  0
   -1.1602  -51.8758    6.1619 C   0  0  1  0  0  0  0  0  0  0  0  0
    4.3237  -50.1746   16.3841 C   0  0  2  0  0  0  0  0  0  0  0  0
    3.3607  -49.0889   16.5053 N   0  0  0  0  0  0  0  0  0  0  0  0
    8.6320  -45.9810   14.6036 C   0  0  0  0  0  0  0  0  0  0  0  0
    4.0644  -48.9226   11.0924 C   0  0  2  0  0  0  0  0  0  0  0  0
    4.6951  -48.5113    9.8469 O   0  0  0  0  0  0  0  0  0  0  0  0
    1.6453  -48.5311    7.4668 C   0  0  2  0  0  0  0  0  0  0  0  0
    0.2008  -48.2905    7.7329 N   0  0  0  0  0  0  0  0  0  0  0  0
   -1.1405  -52.0033    4.6220 C   0  0  1  0  0  0  0  0  0  0  0  0
    0.1151  -52.6005    4.2137 O   0  0  0  0  0  0  0  0  0  0  0  0
    4.9927  -50.5049   17.7696 C   0  0  0  0  0  0  0  0  0  0  0  0
    7.7304  -46.8792   15.5780 C   0  0  2  0  0  0  0  0  0  0  0  0
    8.5599  -47.6315   16.5308 N   0  0  0  0  0  0  0  0  0  0  0  0
    2.5748  -49.2138   11.0221 C   0  0  2  0  0  0  0  0  0  0  0  0
    2.0072  -48.7032    9.8465 O   0  0  0  0  0  0  0  0  0  0  0  0
    1.9797  -49.3031    6.0872 C   0  0  1  0  0  0  0  0  0  0  0  0
    3.4092  -49.4367    5.9884 O   0  0  0  0  0  0  0  0  0  0  0  0
   -2.2935  -52.8018    3.9556 C   0  0  1  0  0  0  0  0  0  0  0  0
   -1.8599  -54.1594    3.8035 O   0  0  0  0  0  0  0  0  0  0  0  0
    6.0029  -51.6807   17.5656 C   0  0  2  0  0  0  0  0  0  0  0  0
    6.6181  -52.0231   18.8036 O   0  0  0  0  0  0  0  0  0  0  0  0
    6.8765  -47.8575   14.7240 C   0  0  2  0  0  0  0  0  0  0  0  0
    1.8681  -48.4624   12.1755 C   0  0  2  0  0  0  0  0  0  0  0  0
    2.9612  -47.9528   12.9259 O   0  0  0  0  0  0  0  0  0  0  0  0
    1.3762  -50.8030    6.0747 C   0  0  2  0  0  0  0  0  0  0  0  0
   -0.0496  -50.6192    6.1575 O   0  0  0  0  0  0  0  0  0  0  0  0
   -3.6473  -52.7924    4.7024 C   0  0  2  0  0  0  0  0  0  0  0  0
   -4.6576  -52.6488    3.6800 O   0  0  0  0  0  0  0  0  0  0  0  0
    7.0875  -51.2579   16.5339 C   0  0  2  0  0  0  0  0  0  0  0  0
    6.4099  -50.9274   15.2607 O   0  0  0  0  0  0  0  0  0  0  0  0
    5.9957  -47.1248   13.6666 C   0  0  2  0  0  0  0  0  0  0  0  0
    5.2883  -48.1376   12.9116 O   0  0  0  0  0  0  0  0  0  0  0  0
    1.0221  -49.3366   13.0945 C   0  0  0  0  0  0  0  0  0  0  0  0
    0.3659  -48.4596   14.0227 O   0  0  0  0  0  0  0  0  0  0  0  0
    1.8557  -51.4476    7.3616 C   0  0  1  0  0  0  0  0  0  0  0  0
    1.7919  -50.8279    8.6632 O   0  0  0  0  0  0  0  0  0  0  0  0
   -3.6843  -51.6892    5.7565 C   0  0  2  0  0  0  0  0  0  0  0  0
   -2.5504  -51.6788    6.6674 O   0  0  0  0  0  0  0  0  0  0  0  0
    8.0676  -52.3556   16.2665 C   0  0  0  0  0  0  0  0  0  0  0  0
    9.2235  -51.7813   15.7188 O   0  0  0  0  0  0  0  0  0  0  0  0
    6.8982  -46.2392   12.7318 C   0  0  1  0  0  0  0  0  0  0  0  0
    6.0308  -45.5256   11.7842 O   0  0  0  0  0  0  0  0  0  0  0  0
    1.3268  -52.9131    7.5543 C   0  0  0  0  0  0  0  0  0  0  0  0
    1.5752  -53.4616    8.9096 N   0  0  0  0  0  0  0  0  0  0  0  0
   -4.9032  -51.4632    6.6481 C   0  0  0  0  0  0  0  0  0  0  0  0
   -4.7251  -50.2598    7.4571 O   0  0  0  0  0  0  0  0  0  0  0  0
  1  2  1  1  0  0  0
  1  8  1  0  0  0  0
  1 36  1  0  0  0  0
  3  4  1  6  0  0  0
  3 10  1  0  0  0  0
  3 47  1  0  0  0  0
  5 11  1  0  0  0  0
  5 30  1  0  0  0  0
  5 38  1  1  0  0  0
  6 21  1  1  0  0  0
  6 42  1  0  0  0  0
  7 15  1  0  0  0  0
  7 44  1  0  0  0  0
  7 32  1  6  0  0  0
  8  9  1  1  0  0  0
  8 17  1  0  0  0  0
 11 12  1  6  0  0  0
 11 20  1  0  0  0  0
 13  6  1  0  0  0  0
 13 14  1  1  0  0  0
 15 16  1  1  0  0  0
 15 24  1  0  0  0  0
 17 26  1  0  0  0  0
 18 10  1  0  0  0  0
 18 19  1  1  0  0  0
 20 21  1  6  0  0  0
 20 29  1  0  0  0  0
 22 13  1  0  0  0  0
 22 23  1  1  0  0  0
 24 25  1  1  0  0  0
 24 33  1  0  0  0  0
 26 27  1  1  0  0  0
 26 35  1  0  0  0  0
 28  2  1  1  0  0  0
 28 18  1  0  0  0  0
 29 30  1  0  0  0  0
 29 39  1  1  0  0  0
 31 22  1  0  0  0  0
 31 32  1  1  0  0  0
 31 41  1  0  0  0  0
 33 34  1  6  0  0  0
 33 43  1  0  0  0  0
 35 36  1  0  0  0  0
 35 45  1  6  0  0  0
 37 28  1  0  0  0  0
 37 38  1  6  0  0  0
 39 40  1  0  0  0  0
 41 42  1  0  0  0  0
 41 49  1  1  0  0  0
 43 44  1  0  0  0  0
 43 51  1  1  0  0  0
 45 46  1  0  0  0  0
 47 37  1  0  0  0  0
 47 48  1  6  0  0  0
 49 50  1  0  0  0  0
 51 52  1  0  0  0  0
M  END
>  <CHROM.1>
-163.03279185,155.88556842,-175.28009511,-82.43518306,73.10794906,-162.88027131
-175.35211985,179.25854400,-160.17338436,161.21845686,-169.28656216,-173.79735603
2.86214838,-49.82275593,10.84329831,0.49744933,0.76226361,2.18514337

>  <Name>
2fd0_lig

>  <RI>
1.29864e+07

>  <Rbt.Current_Directory>
/home/itssahil/PROJECTS/Mol_Feturizer/New_Systems/rnas/2fd0

>  <Rbt.Executable>
rbdock ($Id: //depot/dev/client3/rdock/2013.1/src/exe/rbdock.cxx#4 $)

>  <Rbt.Library>
libRbt.so (2013.1, Build901 2013/11/27)

>  <Rbt.Parameter_File>
/export/apps/rDock/src/rDock_2013.1_src/data/scripts/dock_solv.prm

>  <Rbt.Receptor>
prm/pocket_docking_3.prm

>  <SCORE>
-21.3386

>  <SCORE.INTER>
-15.8266

>  <SCORE.INTER.CONST>
1

>  <SCORE.INTER.POLAR>
-1.1648

>  <SCORE.INTER.ROT>
12

>  <SCORE.INTER.SOLV>
13.6859

>  <SCORE.INTER.VDW>
-22.8304

>  <SCORE.INTER.norm>
-0.304358

>  <SCORE.INTRA>
-5.52221

>  <SCORE.INTRA.DIHEDRAL>
-10.6781

>  <SCORE.INTRA.DIHEDRAL.0>
23.9727

>  <SCORE.INTRA.POLAR>
0

>  <SCORE.INTRA.POLAR.0>
0

>  <SCORE.INTRA.REPUL>
0

>  <SCORE.INTRA.REPUL.0>
0

>  <SCORE.INTRA.SOLV>
-3.64707

>  <SCORE.INTRA.SOLV.lig_0>
-115.028

>  <SCORE.INTRA.VDW>
1.6404

>  <SCORE.INTRA.VDW.0>
-6.82393

>  <SCORE.INTRA.norm>
-0.106196

>  <SCORE.RESTR>
0.0101694

>  <SCORE.RESTR.CAVITY>
0.0101694

>  <SCORE.RESTR.norm>
0.000195565

>  <SCORE.SYSTEM>
0

>  <SCORE.SYSTEM.CONST>
0

>  <SCORE.SYSTEM.DIHEDRAL>
0

>  <SCORE.SYSTEM.SOLV>
0

>  <SCORE.SYSTEM.norm>
0

>  <SCORE.heavy>
52

>  <SCORE.norm>
-0.410358

>  <RMSD>
1.956

$$$$
2fd0_lig
 OpenBabel11021811433D
libRbt.so/2013.1/901 2013/11/27
 52 56  0  0  0  0  0  0  0  0999 V2000
    3.9702  -49.9399   14.8012 C   0  0  2  0  0  0  0  0  0  0  0  0
    4.3124  -48.5653   14.5764 O   0  0  0  0  0  0  0  0  0  0  0  0
    5.9357  -45.9161   11.5369 C   0  0  2  0  0  0  0  0  0  0  0  0
    6.3001  -45.3484   10.2285 N   0  0  0  0  0  0  0  0  0  0  0  0
    1.8002  -47.6080   12.3152 C   0  0  1  0  0  0  0  0  0  0  0  0
    0.8628  -49.3441    8.2958 C   0  0  1  0  0  0  0  0  0  0  0  0
   -3.1851  -51.3429    5.7143 C   0  0  1  0  0  0  0  0  0  0  0  0
    3.2105  -50.0481   16.1732 C   0  0  2  0  0  0  0  0  0  0  0  0
    2.0283  -49.1984   16.2073 N   0  0  0  0  0  0  0  0  0  0  0  0
    6.5412  -47.3799   11.6916 C   0  0  0  0  0  0  0  0  0  0  0  0
    1.8157  -46.9364   10.9542 C   0  0  2  0  0  0  0  0  0  0  0  0
    0.6444  -46.0998   10.7387 O   0  0  0  0  0  0  0  0  0  0  0  0
   -0.0701  -48.8419    7.0972 C   0  0  2  0  0  0  0  0  0  0  0  0
   -1.4330  -48.5154    7.5984 N   0  0  0  0  0  0  0  0  0  0  0  0
   -4.1624  -50.5657    6.6245 C   0  0  1  0  0  0  0  0  0  0  0  0
   -3.8145  -49.1592    6.5986 O   0  0  0  0  0  0  0  0  0  0  0  0
    4.1845  -49.7232   17.3658 C   0  0  0  0  0  0  0  0  0  0  0  0
    6.1525  -47.9916   13.1213 C   0  0  2  0  0  0  0  0  0  0  0  0
    6.6983  -49.3466   13.2889 N   0  0  0  0  0  0  0  0  0  0  0  0
    1.9852  -48.1064    9.9998 C   0  0  2  0  0  0  0  0  0  0  0  0
    0.8012  -48.3716    9.2979 O   0  0  0  0  0  0  0  0  0  0  0  0
   -0.0060  -49.9625    5.9348 C   0  0  1  0  0  0  0  0  0  0  0  0
    1.3734  -50.1406    5.5654 O   0  0  0  0  0  0  0  0  0  0  0  0
   -5.6794  -50.6928    6.3186 C   0  0  1  0  0  0  0  0  0  0  0  0
   -6.0478  -49.6099    5.4550 O   0  0  0  0  0  0  0  0  0  0  0  0
    5.4208  -50.6758   17.2710 C   0  0  2  0  0  0  0  0  0  0  0  0
    6.3203  -50.4253   18.3463 O   0  0  0  0  0  0  0  0  0  0  0  0
    4.6048  -48.0177   13.2605 C   0  0  2  0  0  0  0  0  0  0  0  0
    2.2635  -49.3842   10.8270 C   0  0  2  0  0  0  0  0  0  0  0  0
    2.4180  -48.8714   12.1425 O   0  0  0  0  0  0  0  0  0  0  0  0
   -0.5317  -51.4004    6.4547 C   0  0  2  0  0  0  0  0  0  0  0  0
   -1.9132  -51.1784    6.7950 O   0  0  0  0  0  0  0  0  0  0  0  0
   -6.1334  -52.0218    5.6718 C   0  0  2  0  0  0  0  0  0  0  0  0
   -7.3766  -52.3685    6.3205 O   0  0  0  0  0  0  0  0  0  0  0  0
    6.1437  -50.4516   15.9120 C   0  0  2  0  0  0  0  0  0  0  0  0
    5.1819  -50.7377   14.8246 O   0  0  0  0  0  0  0  0  0  0  0  0
    3.9568  -46.6139   13.0594 C   0  0  2  0  0  0  0  0  0  0  0  0
    2.5223  -46.7767   13.1676 O   0  0  0  0  0  0  0  0  0  0  0  0
    3.5374  -50.1330   10.4518 C   0  0  0  0  0  0  0  0  0  0  0  0
    4.5538  -49.1453   10.2223 O   0  0  0  0  0  0  0  0  0  0  0  0
    0.2406  -51.6817    7.7298 C   0  0  1  0  0  0  0  0  0  0  0  0
    0.4305  -50.7330    8.8004 O   0  0  0  0  0  0  0  0  0  0  0  0
   -5.0550  -53.0935    5.8063 C   0  0  2  0  0  0  0  0  0  0  0  0
   -3.7320  -52.6856    5.3607 O   0  0  0  0  0  0  0  0  0  0  0  0
    7.3188  -51.3615   15.7433 C   0  0  0  0  0  0  0  0  0  0  0  0
    8.3724  -50.8579   16.5192 O   0  0  0  0  0  0  0  0  0  0  0  0
    4.3628  -46.0271   11.6581 C   0  0  1  0  0  0  0  0  0  0  0  0
    3.7780  -44.6855   11.5260 O   0  0  0  0  0  0  0  0  0  0  0  0
   -0.1697  -53.0323    8.4169 C   0  0  0  0  0  0  0  0  0  0  0  0
   -1.5698  -53.0497    8.9054 N   0  0  0  0  0  0  0  0  0  0  0  0
   -5.2393  -54.5012    5.2440 C   0  0  0  0  0  0  0  0  0  0  0  0
   -5.3962  -54.4521    3.7922 O   0  0  0  0  0  0  0  0  0  0  0  0
  1  2  1  1  0  0  0
  1  8  1  0  0  0  0
  1 36  1  0  0  0  0
  3  4  1  6  0  0  0
  3 10  1  0  0  0  0
  3 47  1  0  0  0  0
  5 11  1  0  0  0  0
  5 30  1  0  0  0  0
  5 38  1  1  0  0  0
  6 21  1  1  0  0  0
  6 42  1  0  0  0  0
  7 15  1  0  0  0  0
  7 44  1  0  0  0  0
  7 32  1  1  0  0  0
  8  9  1  6  0  0  0
  8 17  1  0  0  0  0
 11 12  1  6  0  0  0
 11 20  1  0  0  0  0
 13  6  1  0  0  0  0
 13 14  1  1  0  0  0
 15 16  1  6  0  0  0
 15 24  1  0  0  0  0
 17 26  1  0  0  0  0
 18 10  1  0  0  0  0
 18 19  1  6  0  0  0
 20 21  1  1  0  0  0
 20 29  1  0  0  0  0
 22 13  1  0  0  0  0
 22 23  1  1  0  0  0
 24 25  1  6  0  0  0
 24 33  1  0  0  0  0
 26 27  1  1  0  0  0
 26 35  1  0  0  0  0
 28  2  1  1  0  0  0
 28 18  1  0  0  0  0
 29 30  1  0  0  0  0
 29 39  1  6  0  0  0
 31 22  1  0  0  0  0
 31 32  1  1  0  0  0
 31 41  1  0  0  0  0
 33 34  1  1  0  0  0
 33 43  1  0  0  0  0
 35 36  1  0  0  0  0
 35 45  1  6  0  0  0
 37 28  1  0  0  0  0
 37 38  1  6  0  0  0
 39 40  1  0  0  0  0
 41 42  1  0  0  0  0
 41 49  1  1  0  0  0
 43 44  1  0  0  0  0
 43 51  1  6  0  0  0
 45 46  1  0  0  0  0
 47 37  1  0  0  0  0
 47 48  1  1  0  0  0
 49 50  1  0  0  0  0
 51 52  1  0  0  0  0
M  END
>  <CHROM.1>
-158.66714471,-70.07276548,-142.43527348,-163.96392132,174.10641453,-97.86822479
41.28638283,89.00919517,-76.96227219,-59.89469827,-64.70540425,62.16954138
1.29092020,-49.68527399,10.40204559,0.26488500,0.73313387,2.44415790

>  <Name>
2fd0_lig

>  <RI>
2.89522e+07

>  <Rbt.Current_Directory>
/home/itssahil/PROJECTS/Mol_Feturizer/New_Systems/rnas/2fd0

>  <Rbt.Executable>
rbdock ($Id: //depot/dev/client3/rdock/2013.1/src/exe/rbdock.cxx#4 $)

>  <Rbt.Library>
libRbt.so (2013.1, Build901 2013/11/27)

>  <Rbt.Parameter_File>
/export/apps/rDock/src/rDock_2013.1_src/data/scripts/dock_solv.prm

>  <Rbt.Receptor>
prm/pocket_docking_2.prm

>  <SCORE>
-7.73022

>  <SCORE.INTER>
-13.5153

>  <SCORE.INTER.CONST>
1

>  <SCORE.INTER.POLAR>
-2.23123

>  <SCORE.INTER.ROT>
12

>  <SCORE.INTER.SOLV>
20.4946

>  <SCORE.INTER.VDW>
-20.0043

>  <SCORE.INTER.norm>
-0.25991

>  <SCORE.INTRA>
2.93367

>  <SCORE.INTRA.DIHEDRAL>
-2.97489

>  <SCORE.INTRA.DIHEDRAL.0>
23.9727

>  <SCORE.INTRA.POLAR>
0

>  <SCORE.INTRA.POLAR.0>
0

>  <SCORE.INTRA.REPUL>
0

>  <SCORE.INTRA.REPUL.0>
0

>  <SCORE.INTRA.SOLV>
5.25455

>  <SCORE.INTRA.SOLV.lig_0>
-115.028

>  <SCORE.INTRA.VDW>
1.79384

>  <SCORE.INTRA.VDW.0>
-6.82393

>  <SCORE.INTRA.norm>
0.0564167

>  <SCORE.RESTR>
2.85142

>  <SCORE.RESTR.CAVITY>
2.85142

>  <SCORE.RESTR.norm>
0.054835

>  <SCORE.SYSTEM>
0

>  <SCORE.SYSTEM.CONST>
0

>  <SCORE.SYSTEM.DIHEDRAL>
0

>  <SCORE.SYSTEM.SOLV>
0

>  <SCORE.SYSTEM.norm>
0

>  <SCORE.heavy>
52

>  <SCORE.norm>
-0.148658

>  <RMSD>
1.980

$$$$
2fd0_lig
 OpenBabel11021811433D
libRbt.so/2013.1/901 2013/11/27
 52 56  0  0  0  0  0  0  0  0999 V2000
    4.7526  -49.7930   14.6099 C   0  0  2  0  0  0  0  0  0  0  0  0
    5.1986  -48.4330   14.7026 O   0  0  0  0  0  0  0  0  0  0  0  0
    7.3601  -45.4043   12.4560 C   0  0  2  0  0  0  0  0  0  0  0  0
    8.3511  -44.7543   11.5828 N   0  0  0  0  0  0  0  0  0  0  0  0
    3.8297  -47.9547   10.8603 C   0  0  1  0  0  0  0  0  0  0  0  0
    1.3397  -50.2087    8.2087 C   0  0  1  0  0  0  0  0  0  0  0  0
   -3.0583  -52.0534    6.6620 C   0  0  1  0  0  0  0  0  0  0  0  0
    3.6789  -50.0445   15.7304 C   0  0  2  0  0  0  0  0  0  0  0  0
    2.5620  -49.1155   15.6299 N   0  0  0  0  0  0  0  0  0  0  0  0
    8.0875  -46.1353   13.6682 C   0  0  0  0  0  0  0  0  0  0  0  0
    3.2810  -49.2961   10.4095 C   0  0  2  0  0  0  0  0  0  0  0  0
    3.9850  -49.8175    9.2473 O   0  0  0  0  0  0  0  0  0  0  0  0
    0.9944  -49.8948    6.6784 C   0  0  2  0  0  0  0  0  0  0  0  0
   -0.1915  -49.0003    6.5841 N   0  0  0  0  0  0  0  0  0  0  0  0
   -2.9918  -53.1132    5.5395 C   0  0  1  0  0  0  0  0  0  0  0  0
   -2.0887  -54.1722    5.9429 O   0  0  0  0  0  0  0  0  0  0  0  0
    4.3481  -49.9845   17.1535 C   0  0  0  0  0  0  0  0  0  0  0  0
    7.0059  -46.8329   14.6236 C   0  0  2  0  0  0  0  0  0  0  0  0
    7.6529  -47.5187   15.7518 N   0  0  0  0  0  0  0  0  0  0  0  0
    1.8004  -49.0117   10.2211 C   0  0  2  0  0  0  0  0  0  0  0  0
    1.4529  -48.9791    8.8636 O   0  0  0  0  0  0  0  0  0  0  0  0
    0.8595  -51.3122    5.9144 C   0  0  1  0  0  0  0  0  0  0  0  0
    2.0904  -52.0347    6.0986 O   0  0  0  0  0  0  0  0  0  0  0  0
   -4.3280  -53.7642    5.0903 C   0  0  1  0  0  0  0  0  0  0  0  0
   -4.5085  -54.9684    5.8462 O   0  0  0  0  0  0  0  0  0  0  0  0
    5.5277  -51.0101   17.1913 C   0  0  2  0  0  0  0  0  0  0  0  0
    6.1498  -50.9996   18.4723 O   0  0  0  0  0  0  0  0  0  0  0  0
    6.1689  -47.8446   13.7919 C   0  0  2  0  0  0  0  0  0  0  0  0
    1.4972  -47.5908   10.7536 C   0  0  2  0  0  0  0  0  0  0  0  0
    2.7260  -47.2220   11.3631 O   0  0  0  0  0  0  0  0  0  0  0  0
   -0.3109  -52.2296    6.5491 C   0  0  2  0  0  0  0  0  0  0  0  0
   -1.5190  -51.4780    6.3273 O   0  0  0  0  0  0  0  0  0  0  0  0
   -5.5942  -52.8892    5.2385 C   0  0  2  0  0  0  0  0  0  0  0  0
   -6.3745  -53.1243    4.0459 O   0  0  0  0  0  0  0  0  0  0  0  0
    6.5675  -50.6433   16.0941 C   0  0  2  0  0  0  0  0  0  0  0  0
    5.8865  -50.6819   14.7810 O   0  0  0  0  0  0  0  0  0  0  0  0
    5.4810  -47.1876   12.5566 C   0  0  2  0  0  0  0  0  0  0  0  0
    4.7750  -48.2318   11.8445 O   0  0  0  0  0  0  0  0  0  0  0  0
    0.3981  -47.5159   11.8076 C   0  0  0  0  0  0  0  0  0  0  0  0
    0.9780  -46.9214   12.9787 O   0  0  0  0  0  0  0  0  0  0  0  0
   -0.0349  -52.2712    8.0403 C   0  0  1  0  0  0  0  0  0  0  0  0
    0.2753  -51.1178    8.8499 O   0  0  0  0  0  0  0  0  0  0  0  0
   -5.2258  -51.4229    5.4477 C   0  0  2  0  0  0  0  0  0  0  0  0
   -4.2606  -51.1828    6.5090 O   0  0  0  0  0  0  0  0  0  0  0  0
    7.7076  -51.6107   16.0540 C   0  0  0  0  0  0  0  0  0  0  0  0
    7.2428  -52.8059   15.4874 O   0  0  0  0  0  0  0  0  0  0  0  0
    6.5580  -46.4976   11.6419 C   0  0  1  0  0  0  0  0  0  0  0  0
    5.8694  -45.8466   10.5188 O   0  0  0  0  0  0  0  0  0  0  0  0
   -1.1059  -53.0891    8.8455 C   0  0  0  0  0  0  0  0  0  0  0  0
   -0.6898  -53.4102   10.2322 N   0  0  0  0  0  0  0  0  0  0  0  0
   -6.2873  -50.3410    5.6336 C   0  0  0  0  0  0  0  0  0  0  0  0
   -7.2779  -50.7650    6.6202 O   0  0  0  0  0  0  0  0  0  0  0  0
  1  2  1  1  0  0  0
  1  8  1  0  0  0  0
  1 36  1  0  0  0  0
  3  4  1  6  0  0  0
  3 10  1  0  0  0  0
  3 47  1  0  0  0  0
  5 11  1  0  0  0  0
  5 30  1  0  0  0  0
  5 38  1  1  0  0  0
  6 21  1  1  0  0  0
  6 42  1  0  0  0  0
  7 15  1  0  0  0  0
  7 44  1  0  0  0  0
  7 32  1  6  0  0  0
  8  9  1  1  0  0  0
  8 17  1  0  0  0  0
 11 12  1  6  0  0  0
 11 20  1  0  0  0  0
 13  6  1  0  0  0  0
 13 14  1  1  0  0  0
 15 16  1  1  0  0  0
 15 24  1  0  0  0  0
 17 26  1  0  0  0  0
 18 10  1  0  0  0  0
 18 19  1  1  0  0  0
 20 21  1  6  0  0  0
 20 29  1  0  0  0  0
 22 13  1  0  0  0  0
 22 23  1  1  0  0  0
 24 25  1  1  0  0  0
 24 33  1  0  0  0  0
 26 27  1  1  0  0  0
 26 35  1  0  0  0  0
 28  2  1  1  0  0  0
 28 18  1  0  0  0  0
 29 30  1  0  0  0  0
 29 39  1  1  0  0  0
 31 22  1  0  0  0  0
 31 32  1  1  0  0  0
 31 41  1  0  0  0  0
 33 34  1  6  0  0  0
 33 43  1  0  0  0  0
 35 36  1  0  0  0  0
 35 45  1  6  0  0  0
 37 28  1  0  0  0  0
 37 38  1  6  0  0  0
 39 40  1  0  0  0  0
 41 42  1  0  0  0  0
 41 49  1  1  0  0  0
 43 44  1  0  0  0  0
 43 51  1  1  0  0  0
 45 46  1  0  0  0  0
 47 37  1  0  0  0  0
 47 48  1  6  0  0  0
 49 50  1  0  0  0  0
 51 52  1  0  0  0  0
M  END
>  <CHROM.1>
-178.26249528,-177.46144292,-177.88022289,-67.94746318,76.50617591,-145.75749285
121.89570231,173.65639738,73.25150031,166.19918395,166.32748599,47.80966504
1.81985393,-50.01695188,10.47694565,0.27917014,0.71932390,2.32888946

>  <Name>
2fd0_lig

>  <RI>
2.89522e+07

>  <Rbt.Current_Directory>
/home/itssahil/PROJECTS/Mol_Feturizer/New_Systems/rnas/2fd0

>  <Rbt.Executable>
rbdock ($Id: //depot/dev/client3/rdock/2013.1/src/exe/rbdock.cxx#4 $)

>  <Rbt.Library>
libRbt.so (2013.1, Build901 2013/11/27)

>  <Rbt.Parameter_File>
/export/apps/rDock/src/rDock_2013.1_src/data/scripts/dock_solv.prm

>  <Rbt.Receptor>
prm/pocket_docking_2.prm

>  <SCORE>
-17.7221

>  <SCORE.INTER>
-17.2177

>  <SCORE.INTER.CONST>
1

>  <SCORE.INTER.POLAR>
-1.53282

>  <SCORE.INTER.ROT>
12

>  <SCORE.INTER.SOLV>
18.6111

>  <SCORE.INTER.VDW>
-24.1728

>  <SCORE.INTER.norm>
-0.33111

>  <SCORE.INTRA>
-2.52599

>  <SCORE.INTRA.DIHEDRAL>
-8.59054

>  <SCORE.INTRA.DIHEDRAL.0>
23.9727

>  <SCORE.INTRA.POLAR>
0

>  <SCORE.INTRA.POLAR.0>
0

>  <SCORE.INTRA.REPUL>
0

>  <SCORE.INTRA.REPUL.0>
0

>  <SCORE.INTRA.SOLV>
-2.85064

>  <SCORE.INTRA.SOLV.lig_0>
-115.028

>  <SCORE.INTRA.VDW>
3.1946

>  <SCORE.INTRA.VDW.0>
-6.82393

>  <SCORE.INTRA.norm>
-0.0485767

>  <SCORE.RESTR>
2.02157

>  <SCORE.RESTR.CAVITY>
2.02157

>  <SCORE.RESTR.norm>
0.0388763

>  <SCORE.SYSTEM>
0

>  <SCORE.SYSTEM.CONST>
0

>  <SCORE.SYSTEM.DIHEDRAL>
0

>  <SCORE.SYSTEM.SOLV>
0

>  <SCORE.SYSTEM.norm>
0

>  <SCORE.heavy>
52

>  <SCORE.norm>
-0.34081

>  <RMSD>
1.982

$$$$
2fd0_lig
 OpenBabel11021811433D
libRbt.so/2013.1/901 2013/11/27
 52 56  0  0  0  0  0  0  0  0999 V2000
    6.2706  -47.3434   14.6324 C   0  0  2  0  0  0  0  0  0  0  0  0
    7.1157  -47.6949   13.5283 O   0  0  0  0  0  0  0  0  0  0  0  0
    7.6690  -43.9104   11.4633 C   0  0  2  0  0  0  0  0  0  0  0  0
    8.1020  -42.9076   10.4765 N   0  0  0  0  0  0  0  0  0  0  0  0
    4.3226  -46.8961   10.5265 C   0  0  1  0  0  0  0  0  0  0  0  0
    1.6136  -49.1144    8.1421 C   0  0  1  0  0  0  0  0  0  0  0  0
   -2.5868  -50.8818    5.6452 C   0  0  1  0  0  0  0  0  0  0  0  0
    6.9555  -47.8303   15.9611 C   0  0  2  0  0  0  0  0  0  0  0  0
    8.2904  -47.2704   16.1200 N   0  0  0  0  0  0  0  0  0  0  0  0
    8.9324  -44.6329   12.1072 C   0  0  0  0  0  0  0  0  0  0  0  0
    3.8650  -48.2309    9.9673 C   0  0  2  0  0  0  0  0  0  0  0  0
    4.2798  -48.4212    8.5853 O   0  0  0  0  0  0  0  0  0  0  0  0
    0.7792  -48.6451    6.8603 C   0  0  2  0  0  0  0  0  0  0  0  0
   -0.5438  -48.1000    7.2699 N   0  0  0  0  0  0  0  0  0  0  0  0
   -3.5510  -50.0576    6.5275 C   0  0  1  0  0  0  0  0  0  0  0  0
   -3.1453  -48.6667    6.4986 O   0  0  0  0  0  0  0  0  0  0  0  0
    6.9828  -49.4027   16.0189 C   0  0  0  0  0  0  0  0  0  0  0  0
    8.4588  -45.7165   13.1893 C   0  0  2  0  0  0  0  0  0  0  0  0
    9.6087  -46.4014   13.7981 N   0  0  0  0  0  0  0  0  0  0  0  0
    2.3666  -48.2084   10.2176 C   0  0  2  0  0  0  0  0  0  0  0  0
    1.6500  -48.0320    9.0258 O   0  0  0  0  0  0  0  0  0  0  0  0
    0.7306  -49.8923    5.8341 C   0  0  1  0  0  0  0  0  0  0  0  0
    2.0854  -50.2779    5.5394 O   0  0  0  0  0  0  0  0  0  0  0  0
   -5.0649  -50.1253    6.1890 C   0  0  1  0  0  0  0  0  0  0  0  0
   -5.3697  -49.0356    5.3093 O   0  0  0  0  0  0  0  0  0  0  0  0
    5.5208  -49.9312   15.8517 C   0  0  2  0  0  0  0  0  0  0  0  0
    5.4999  -51.3537   15.9168 O   0  0  0  0  0  0  0  0  0  0  0  0
    7.5246  -46.7499   12.5002 C   0  0  2  0  0  0  0  0  0  0  0  0
    2.0274  -46.9719   11.0838 C   0  0  2  0  0  0  0  0  0  0  0  0
    3.3130  -46.4747   11.4269 O   0  0  0  0  0  0  0  0  0  0  0  0
    0.0176  -51.1860    6.4917 C   0  0  2  0  0  0  0  0  0  0  0  0
   -1.3331  -50.7602    6.7524 O   0  0  0  0  0  0  0  0  0  0  0  0
   -5.5589  -51.4400    5.5425 C   0  0  2  0  0  0  0  0  0  0  0  0
   -6.8291  -51.7300    6.1662 O   0  0  0  0  0  0  0  0  0  0  0  0
    4.9516  -49.4549   14.4847 C   0  0  2  0  0  0  0  0  0  0  0  0
    4.9754  -47.9755   14.4648 O   0  0  0  0  0  0  0  0  0  0  0  0
    6.2987  -46.0848   11.8031 C   0  0  2  0  0  0  0  0  0  0  0  0
    5.5361  -47.1374   11.1655 O   0  0  0  0  0  0  0  0  0  0  0  0
    1.2704  -47.2728   12.3725 C   0  0  0  0  0  0  0  0  0  0  0  0
    0.0478  -47.9265   11.9995 O   0  0  0  0  0  0  0  0  0  0  0  0
    0.7184  -51.4090    7.8186 C   0  0  1  0  0  0  0  0  0  0  0  0
    0.9996  -50.3727    8.7825 O   0  0  0  0  0  0  0  0  0  0  0  0
   -4.5286  -52.5537    5.7091 C   0  0  2  0  0  0  0  0  0  0  0  0
   -3.1805  -52.2040    5.2898 O   0  0  0  0  0  0  0  0  0  0  0  0
    3.5383  -49.8989   14.2785 C   0  0  0  0  0  0  0  0  0  0  0  0
    3.1511  -49.5267   12.9834 O   0  0  0  0  0  0  0  0  0  0  0  0
    6.7859  -45.0163   10.7573 C   0  0  1  0  0  0  0  0  0  0  0  0
    5.6062  -44.3755   10.1597 O   0  0  0  0  0  0  0  0  0  0  0  0
    0.1267  -52.6111    8.6367 C   0  0  0  0  0  0  0  0  0  0  0  0
    0.6860  -52.7320   10.0049 N   0  0  0  0  0  0  0  0  0  0  0  0
   -4.7582  -53.9575    5.1536 C   0  0  0  0  0  0  0  0  0  0  0  0
   -3.7370  -54.8751    5.6531 O   0  0  0  0  0  0  0  0  0  0  0  0
  1  2  1  6  0  0  0
  1  8  1  0  0  0  0
  1 36  1  0  0  0  0
  3  4  1  6  0  0  0
  3 10  1  0  0  0  0
  3 47  1  0  0  0  0
  5 11  1  0  0  0  0
  5 30  1  0  0  0  0
  5 38  1  1  0  0  0
  6 21  1  1  0  0  0
  6 42  1  0  0  0  0
  7 15  1  0  0  0  0
  7 44  1  0  0  0  0
  7 32  1  1  0  0  0
  8  9  1  6  0  0  0
  8 17  1  0  0  0  0
 11 12  1  6  0  0  0
 11 20  1  0  0  0  0
 13  6  1  0  0  0  0
 13 14  1  1  0  0  0
 15 16  1  6  0  0  0
 15 24  1  0  0  0  0
 17 26  1  0  0  0  0
 18 10  1  0  0  0  0
 18 19  1  6  0  0  0
 20 21  1  6  0  0  0
 20 29  1  0  0  0  0
 22 13  1  0  0  0  0
 22 23  1  1  0  0  0
 24 25  1  6  0  0  0
 24 33  1  0  0  0  0
 26 27  1  6  0  0  0
 26 35  1  0  0  0  0
 28  2  1  1  0  0  0
 28 18  1  0  0  0  0
 29 30  1  0  0  0  0
 29 39  1  1  0  0  0
 31 22  1  0  0  0  0
 31 32  1  1  0  0  0
 31 41  1  0  0  0  0
 33 34  1  1  0  0  0
 33 43  1  0  0  0  0
 35 36  1  0  0  0  0
 35 45  1  1  0  0  0
 37 28  1  0  0  0  0
 37 38  1  6  0  0  0
 39 40  1  0  0  0  0
 41 42  1  0  0  0  0
 41 49  1  1  0  0  0
 43 44  1  0  0  0  0
 43 51  1  6  0  0  0
 45 46  1  0  0  0  0
 47 37  1  0  0  0  0
 47 48  1  1  0  0  0
 49 50  1  0  0  0  0
 51 52  1  0  0  0  0
M  END
>  <CHROM.1>
-129.25380073,178.68861331,-178.43733347,-171.39033412,72.03570154,67.32523234
-58.91675792,88.47946862,-174.99626604,175.56284482,-172.67773817,-170.01300041
2.21975090,-48.86838208,10.02573290,0.19407133,0.67739481,2.29257122

>  <Name>
2fd0_lig

>  <RI>
2.89522e+07

>  <Rbt.Current_Directory>
/home/itssahil/PROJECTS/Mol_Feturizer/New_Systems/rnas/2fd0

>  <Rbt.Executable>
rbdock ($Id: //depot/dev/client3/rdock/2013.1/src/exe/rbdock.cxx#4 $)

>  <Rbt.Library>
libRbt.so (2013.1, Build901 2013/11/27)

>  <Rbt.Parameter_File>
/export/apps/rDock/src/rDock_2013.1_src/data/scripts/dock_solv.prm

>  <Rbt.Receptor>
prm/pocket_docking_2.prm

>  <SCORE>
-6.3123

>  <SCORE.INTER>
-2.33879

>  <SCORE.INTER.CONST>
1

>  <SCORE.INTER.POLAR>
-0.182639

>  <SCORE.INTER.ROT>
12

>  <SCORE.INTER.SOLV>
20.2388

>  <SCORE.INTER.VDW>
-19.2967

>  <SCORE.INTER.norm>
-0.0449768

>  <SCORE.INTRA>
-4.3598

>  <SCORE.INTRA.DIHEDRAL>
-10.3816

>  <SCORE.INTRA.DIHEDRAL.0>
23.9727

>  <SCORE.INTRA.POLAR>
0

>  <SCORE.INTRA.POLAR.0>
0

>  <SCORE.INTRA.REPUL>
0

>  <SCORE.INTRA.REPUL.0>
0

>  <SCORE.INTRA.SOLV>
0.86852

>  <SCORE.INTRA.SOLV.lig_0>
-115.028

>  <SCORE.INTRA.VDW>
0.396734

>  <SCORE.INTRA.VDW.0>
-6.82393

>  <SCORE.INTRA.norm>
-0.0838423

>  <SCORE.RESTR>
0.386291

>  <SCORE.RESTR.CAVITY>
0.386291

>  <SCORE.RESTR.norm>
0.00742867

>  <SCORE.SYSTEM>
0

>  <SCORE.SYSTEM.CONST>
0

>  <SCORE.SYSTEM.DIHEDRAL>
0

>  <SCORE.SYSTEM.SOLV>
0

>  <SCORE.SYSTEM.norm>
0

>  <SCORE.heavy>
52

>  <SCORE.norm>
-0.12139

>  <RMSD>
1.989

$$$$
2fd0_lig
 OpenBabel11021811433D
libRbt.so/2013.1/901 2013/11/27
 52 56  0  0  0  0  0  0  0  0999 V2000
    4.1044  -49.5381   14.2201 C   0  0  2  0  0  0  0  0  0  0  0  0
    4.6755  -48.2231   14.2592 O   0  0  0  0  0  0  0  0  0  0  0  0
    6.9769  -45.3268   11.9773 C   0  0  2  0  0  0  0  0  0  0  0  0
    7.7884  -44.7133   10.9133 N   0  0  0  0  0  0  0  0  0  0  0  0
    3.3023  -48.1623   11.4079 C   0  0  1  0  0  0  0  0  0  0  0  0
    1.4529  -51.0176    8.4925 C   0  0  1  0  0  0  0  0  0  0  0  0
   -2.8483  -51.9249    5.6424 C   0  0  1  0  0  0  0  0  0  0  0  0
    2.9341  -49.6064   15.2676 C   0  0  2  0  0  0  0  0  0  0  0  0
    1.9249  -48.5860   15.0208 N   0  0  0  0  0  0  0  0  0  0  0  0
    7.7109  -46.6136   12.5590 C   0  0  0  0  0  0  0  0  0  0  0  0
    1.8595  -48.2657   10.9483 C   0  0  2  0  0  0  0  0  0  0  0  0
    1.0096  -48.9083   11.9398 O   0  0  0  0  0  0  0  0  0  0  0  0
    0.6081  -50.1318    7.4624 C   0  0  2  0  0  0  0  0  0  0  0  0
   -0.6982  -49.7413    8.0593 N   0  0  0  0  0  0  0  0  0  0  0  0
   -3.6058  -50.9621    6.5842 C   0  0  1  0  0  0  0  0  0  0  0  0
   -2.9559  -49.6672    6.5577 O   0  0  0  0  0  0  0  0  0  0  0  0
    3.5030  -49.5077   16.7316 C   0  0  0  0  0  0  0  0  0  0  0  0
    6.8308  -47.2735   13.7249 C   0  0  2  0  0  0  0  0  0  0  0  0
    7.4863  -48.4676   14.2784 N   0  0  0  0  0  0  0  0  0  0  0  0
    1.9790  -48.9759    9.6104 C   0  0  2  0  0  0  0  0  0  0  0  0
    1.5228  -50.2989    9.6894 O   0  0  0  0  0  0  0  0  0  0  0  0
    0.5209  -50.9572    6.0761 C   0  0  1  0  0  0  0  0  0  0  0  0
    1.8637  -51.2370    5.6406 O   0  0  0  0  0  0  0  0  0  0  0  0
   -5.1206  -50.7468    6.3192 C   0  0  1  0  0  0  0  0  0  0  0  0
   -5.2619  -49.5986    5.4731 O   0  0  0  0  0  0  0  0  0  0  0  0
    4.5693  -50.6344   16.9271 C   0  0  2  0  0  0  0  0  0  0  0  0
    5.0967  -50.5907   18.2492 O   0  0  0  0  0  0  0  0  0  0  0  0
    5.4320  -47.6454   13.1587 C   0  0  2  0  0  0  0  0  0  0  0  0
    3.4772  -49.0830    9.2385 C   0  0  2  0  0  0  0  0  0  0  0  0
    4.1009  -48.2990   10.2454 O   0  0  0  0  0  0  0  0  0  0  0  0
   -0.2060  -52.3882    6.2717 C   0  0  2  0  0  0  0  0  0  0  0  0
   -1.5445  -52.0591    6.6887 O   0  0  0  0  0  0  0  0  0  0  0  0
   -5.8739  -51.9343    5.6766 C   0  0  2  0  0  0  0  0  0  0  0  0
   -7.1461  -52.0054    6.3570 O   0  0  0  0  0  0  0  0  0  0  0  0
    5.7158  -50.4469   15.8927 C   0  0  2  0  0  0  0  0  0  0  0  0
    5.1294  -50.5153   14.5359 O   0  0  0  0  0  0  0  0  0  0  0  0
    4.6942  -46.4274   12.5239 C   0  0  2  0  0  0  0  0  0  0  0  0
    3.4340  -46.9076   11.9972 O   0  0  0  0  0  0  0  0  0  0  0  0
    3.8494  -48.5014    7.8792 C   0  0  0  0  0  0  0  0  0  0  0  0
    4.8025  -47.4542    8.1162 O   0  0  0  0  0  0  0  0  0  0  0  0
    0.5104  -53.0560    7.4302 C   0  0  1  0  0  0  0  0  0  0  0  0
    0.8254  -52.4108    8.6819 O   0  0  0  0  0  0  0  0  0  0  0  0
   -5.0565  -53.2196    5.7746 C   0  0  2  0  0  0  0  0  0  0  0  0
   -3.6877  -53.1089    5.2954 O   0  0  0  0  0  0  0  0  0  0  0  0
    6.7542  -51.5177   16.0038 C   0  0  0  0  0  0  0  0  0  0  0  0
    7.8831  -51.1038   15.2826 O   0  0  0  0  0  0  0  0  0  0  0  0
    5.5810  -45.7875   11.3940 C   0  0  1  0  0  0  0  0  0  0  0  0
    4.8779  -44.6146   10.8561 O   0  0  0  0  0  0  0  0  0  0  0  0
   -0.0910  -54.4566    7.8054 C   0  0  0  0  0  0  0  0  0  0  0  0
   -1.4195  -54.3774    8.4598 N   0  0  0  0  0  0  0  0  0  0  0  0
   -5.5622  -54.5446    5.2084 C   0  0  0  0  0  0  0  0  0  0  0  0
   -5.3189  -54.6083    3.7693 O   0  0  0  0  0  0  0  0  0  0  0  0
  1  2  1  1  0  0  0
  1  8  1  0  0  0  0
  1 36  1  0  0  0  0
  3  4  1  6  0  0  0
  3 10  1  0  0  0  0
  3 47  1  0  0  0  0
  5 11  1  0  0  0  0
  5 30  1  0  0  0  0
  5 38  1  6  0  0  0
  6 21  1  1  0  0  0
  6 42  1  0  0  0  0
  7 15  1  0  0  0  0
  7 44  1  0  0  0  0
  7 32  1  1  0  0  0
  8  9  1  6  0  0  0
  8 17  1  0  0  0  0
 11 12  1  1  0  0  0
 11 20  1  0  0  0  0
 13  6  1  0  0  0  0
 13 14  1  1  0  0  0
 15 16  1  6  0  0  0
 15 24  1  0  0  0  0
 17 26  1  0  0  0  0
 18 10  1  0  0  0  0
 18 19  1  6  0  0  0
 20 21  1  1  0  0  0
 20 29  1  0  0  0  0
 22 13  1  0  0  0  0
 22 23  1  1  0  0  0
 24 25  1  6  0  0  0
 24 33  1  0  0  0  0
 26 27  1  1  0  0  0
 26 35  1  0  0  0  0
 28  2  1  1  0  0  0
 28 18  1  0  0  0  0
 29 30  1  0  0  0  0
 29 39  1  6  0  0  0
 31 22  1  0  0  0  0
 31 32  1  1  0  0  0
 31 41  1  0  0  0  0
 33 34  1  1  0  0  0
 33 43  1  0  0  0  0
 35 36  1  0  0  0  0
 35 45  1  6  0  0  0
 37 28  1  0  0  0  0
 37 38  1  6  0  0  0
 39 40  1  0  0  0  0
 41 42  1  0  0  0  0
 41 49  1  1  0  0  0
 43 44  1  0  0  0  0
 43 51  1  6  0  0  0
 45 46  1  0  0  0  0
 47 37  1  0  0  0  0
 47 48  1  1  0  0  0
 49 50  1  0  0  0  0
 51 52  1  0  0  0  0
M  END
>  <CHROM.1>
-157.86261594,-178.09205556,-52.41099702,-154.40191894,173.66168517,-122.49091006
119.64370689,94.48616159,-165.94106545,-36.46090088,-71.45911379,81.20760487
1.67130824,-49.94039370,10.14232342,0.35774462,0.69647564,2.16019048

>  <Name>
2fd0_lig

>  <RI>
2.89522e+07

>  <Rbt.Current_Directory>
/home/itssahil/PROJECTS/Mol_Feturizer/New_Systems/rnas/2fd0

>  <Rbt.Executable>
rbdock ($Id: //depot/dev/client3/rdock/2013.1/src/exe/rbdock.cxx#4 $)

>  <Rbt.Library>
libRbt.so (2013.1, Build901 2013/11/27)

>  <Rbt.Parameter_File>
/export/apps/rDock/src/rDock_2013.1_src/data/scripts/dock_solv.prm

>  <Rbt.Receptor>
prm/pocket_docking_2.prm

>  <SCORE>
-6.64605

>  <SCORE.INTER>
-13.8881

>  <SCORE.INTER.CONST>
1

>  <SCORE.INTER.POLAR>
-1.73031

>  <SCORE.INTER.ROT>
12

>  <SCORE.INTER.SOLV>
18.2258

>  <SCORE.INTER.VDW>
-21.1663

>  <SCORE.INTER.norm>
-0.267079

>  <SCORE.INTRA>
6.79574

>  <SCORE.INTRA.DIHEDRAL>
4.32002

>  <SCORE.INTRA.DIHEDRAL.0>
23.9727

>  <SCORE.INTRA.POLAR>
0

>  <SCORE.INTRA.POLAR.0>
0

>  <SCORE.INTRA.REPUL>
0

>  <SCORE.INTRA.REPUL.0>
0

>  <SCORE.INTRA.SOLV>
4.51877

>  <SCORE.INTRA.SOLV.lig_0>
-115.028

>  <SCORE.INTRA.VDW>
2.37635

>  <SCORE.INTRA.VDW.0>
-6.82393

>  <SCORE.INTRA.norm>
0.130687

>  <SCORE.RESTR>
0.446294

>  <SCORE.RESTR.CAVITY>
0.446294

>  <SCORE.RESTR.norm>
0.00858257

>  <SCORE.SYSTEM>
0

>  <SCORE.SYSTEM.CONST>
0

>  <SCORE.SYSTEM.DIHEDRAL>
0

>  <SCORE.SYSTEM.SOLV>
0

>  <SCORE.SYSTEM.norm>
0

>  <SCORE.heavy>
52

>  <SCORE.norm>
-0.127809

>  <RMSD>
2.007

$$$$
2fd0_lig
 OpenBabel11021811433D
libRbt.so/2013.1/901 2013/11/27
 52 56  0  0  0  0  0  0  0  0999 V2000
    6.4995  -47.8560   15.1229 C   0  0  2  0  0  0  0  0  0  0  0  0
    6.6791  -48.0332   13.7110 O   0  0  0  0  0  0  0  0  0  0  0  0
    7.4589  -44.0868   12.0647 C   0  0  2  0  0  0  0  0  0  0  0  0
    8.0158  -43.0023   11.2397 N   0  0  0  0  0  0  0  0  0  0  0  0
    4.2081  -47.1124   10.6208 C   0  0  1  0  0  0  0  0  0  0  0  0
    1.5114  -49.3950    8.2211 C   0  0  1  0  0  0  0  0  0  0  0  0
   -2.6321  -50.8408    5.2445 C   0  0  1  0  0  0  0  0  0  0  0  0
    6.7510  -49.2344   15.8358 C   0  0  2  0  0  0  0  0  0  0  0  0
    8.0726  -49.7673   15.5355 N   0  0  0  0  0  0  0  0  0  0  0  0
    8.6245  -44.8481   12.8360 C   0  0  0  0  0  0  0  0  0  0  0  0
    3.8332  -48.4342    9.9760 C   0  0  2  0  0  0  0  0  0  0  0  0
    4.1925  -48.4817    8.5664 O   0  0  0  0  0  0  0  0  0  0  0  0
    0.9579  -48.7759    6.8537 C   0  0  2  0  0  0  0  0  0  0  0  0
   -0.3215  -48.0525    7.0886 N   0  0  0  0  0  0  0  0  0  0  0  0
   -3.6214  -49.9343    6.0108 C   0  0  1  0  0  0  0  0  0  0  0  0
   -3.2451  -48.5493    5.8102 O   0  0  0  0  0  0  0  0  0  0  0  0
    5.6196  -50.2609   15.4581 C   0  0  0  0  0  0  0  0  0  0  0  0
    8.0148  -46.0213   13.7421 C   0  0  2  0  0  0  0  0  0  0  0  0
    9.0727  -46.7432   14.4643 N   0  0  0  0  0  0  0  0  0  0  0  0
    2.3522  -48.5585   10.2919 C   0  0  2  0  0  0  0  0  0  0  0  0
    1.5651  -48.3524    9.1506 O   0  0  0  0  0  0  0  0  0  0  0  0
    0.8908  -49.9761    5.7739 C   0  0  1  0  0  0  0  0  0  0  0  0
    2.2063  -50.5492    5.6647 O   0  0  0  0  0  0  0  0  0  0  0  0
   -5.1305  -50.0775    5.6743 C   0  0  1  0  0  0  0  0  0  0  0  0
   -5.4507  -49.1135    4.6631 O   0  0  0  0  0  0  0  0  0  0  0  0
    4.2352  -49.6279   15.8153 C   0  0  2  0  0  0  0  0  0  0  0  0
    3.1827  -50.5356   15.5046 O   0  0  0  0  0  0  0  0  0  0  0  0
    7.2196  -47.0032   12.8370 C   0  0  2  0  0  0  0  0  0  0  0  0
    1.9574  -47.4255   11.2692 C   0  0  2  0  0  0  0  0  0  0  0  0
    3.2138  -46.8488   11.5953 O   0  0  0  0  0  0  0  0  0  0  0  0
   -0.0904  -51.1669    6.2571 C   0  0  2  0  0  0  0  0  0  0  0  0
   -1.3910  -50.5537    6.3352 O   0  0  0  0  0  0  0  0  0  0  0  0
   -5.5907  -51.4735    5.1948 C   0  0  2  0  0  0  0  0  0  0  0  0
   -6.8598  -51.7113    5.8422 O   0  0  0  0  0  0  0  0  0  0  0  0
    4.0488  -48.3065   15.0159 C   0  0  2  0  0  0  0  0  0  0  0  0
    5.1503  -47.3877   15.3792 O   0  0  0  0  0  0  0  0  0  0  0  0
    6.1006  -46.2944   12.0145 C   0  0  2  0  0  0  0  0  0  0  0  0
    5.4676  -47.2981   11.1851 O   0  0  0  0  0  0  0  0  0  0  0  0
    1.2926  -47.8880   12.5610 C   0  0  0  0  0  0  0  0  0  0  0  0
    0.2648  -48.8210   12.1946 O   0  0  0  0  0  0  0  0  0  0  0  0
    0.3603  -51.5241    7.6610 C   0  0  1  0  0  0  0  0  0  0  0  0
    0.6347  -50.5651    8.7036 O   0  0  0  0  0  0  0  0  0  0  0  0
   -4.5383  -52.5343    5.5058 C   0  0  2  0  0  0  0  0  0  0  0  0
   -3.1944  -52.2100    5.0541 O   0  0  0  0  0  0  0  0  0  0  0  0
    2.7547  -47.6306   15.3406 C   0  0  0  0  0  0  0  0  0  0  0  0
    2.6003  -47.6356   16.7341 O   0  0  0  0  0  0  0  0  0  0  0  0
    6.7186  -45.1391   11.1451 C   0  0  1  0  0  0  0  0  0  0  0  0
    5.6304  -44.4623   10.4258 O   0  0  0  0  0  0  0  0  0  0  0  0
   -0.5138  -52.6463    8.3250 C   0  0  0  0  0  0  0  0  0  0  0  0
   -0.0767  -53.0077    9.6953 N   0  0  0  0  0  0  0  0  0  0  0  0
   -4.7331  -54.0014    5.1292 C   0  0  0  0  0  0  0  0  0  0  0  0
   -3.6572  -54.8167    5.6878 O   0  0  0  0  0  0  0  0  0  0  0  0
  1  2  1  6  0  0  0
  1  8  1  0  0  0  0
  1 36  1  0  0  0  0
  3  4  1  6  0  0  0
  3 10  1  0  0  0  0
  3 47  1  0  0  0  0
  5 11  1  0  0  0  0
  5 30  1  0  0  0  0
  5 38  1  1  0  0  0
  6 21  1  1  0  0  0
  6 42  1  0  0  0  0
  7 15  1  0  0  0  0
  7 44  1  0  0  0  0
  7 32  1  1  0  0  0
  8  9  1  6  0  0  0
  8 17  1  0  0  0  0
 11 12  1  6  0  0  0
 11 20  1  0  0  0  0
 13  6  1  0  0  0  0
 13 14  1  1  0  0  0
 15 16  1  6  0  0  0
 15 24  1  0  0  0  0
 17 26  1  0  0  0  0
 18 10  1  0  0  0  0
 18 19  1  6  0  0  0
 20 21  1  6  0  0  0
 20 29  1  0  0  0  0
 22 13  1  0  0  0  0
 22 23  1  1  0  0  0
 24 25  1  6  0  0  0
 24 33  1  0  0  0  0
 26 27  1  6  0  0  0
 26 35  1  0  0  0  0
 28  2  1  1  0  0  0
 28 18  1  0  0  0  0
 29 30  1  0  0  0  0
 29 39  1  1  0  0  0
 31 22  1  0  0  0  0
 31 32  1  1  0  0  0
 31 41  1  0  0  0  0
 33 34  1  1  0  0  0
 33 43  1  0  0  0  0
 35 36  1  0  0  0  0
 35 45  1  1  0  0  0
 37 28  1  0  0  0  0
 37 38  1  6  0  0  0
 39 40  1  0  0  0  0
 41 42  1  0  0  0  0
 41 49  1  1  0  0  0
 43 44  1  0  0  0  0
 43 51  1  6  0  0  0
 45 46  1  0  0  0  0
 47 37  1  0  0  0  0
 47 48  1  1  0  0  0
 49 50  1  0  0  0  0
 51 52  1  0  0  0  0
M  END
>  <CHROM.1>
-146.31075428,-173.34101239,-162.84857285,177.49754297,75.63693983,21.21496226
-48.06596436,107.43954589,45.56531837,161.16719026,179.69859305,-172.98466240
1.98525818,-48.95415972,10.13342612,0.39799305,0.65868945,2.04520331

>  <Name>
2fd0_lig

>  <RI>
2.89522e+07

>  <Rbt.Current_Directory>
/home/itssahil/PROJECTS/Mol_Feturizer/New_Systems/rnas/2fd0

>  <Rbt.Executable>
rbdock ($Id: //depot/dev/client3/rdock/2013.1/src/exe/rbdock.cxx#4 $)

>  <Rbt.Library>
libRbt.so (2013.1, Build901 2013/11/27)

>  <Rbt.Parameter_File>
/export/apps/rDock/src/rDock_2013.1_src/data/scripts/dock_solv.prm

>  <Rbt.Receptor>
prm/pocket_docking_2.prm

>  <SCORE>
3.11671

>  <SCORE.INTER>
0.109857

>  <SCORE.INTER.CONST>
1

>  <SCORE.INTER.POLAR>
-0.238186

>  <SCORE.INTER.ROT>
12

>  <SCORE.INTER.SOLV>
17.4833

>  <SCORE.INTER.VDW>
-16.5606

>  <SCORE.INTER.norm>
0.00211263

>  <SCORE.INTRA>
1.578

>  <SCORE.INTRA.DIHEDRAL>
-1.00813

>  <SCORE.INTRA.DIHEDRAL.0>
23.9727

>  <SCORE.INTRA.POLAR>
0

>  <SCORE.INTRA.POLAR.0>
0

>  <SCORE.INTRA.REPUL>
0

>  <SCORE.INTRA.REPUL.0>
0

>  <SCORE.INTRA.SOLV>
-1.31173

>  <SCORE.INTRA.SOLV.lig_0>
-115.028

>  <SCORE.INTRA.VDW>
2.73792

>  <SCORE.INTRA.VDW.0>
-6.82393

>  <SCORE.INTRA.norm>
0.0303461

>  <SCORE.RESTR>
1.42886

>  <SCORE.RESTR.CAVITY>
1.42886

>  <SCORE.RESTR.norm>
0.0274781

>  <SCORE.SYSTEM>
0

>  <SCORE.SYSTEM.CONST>
0

>  <SCORE.SYSTEM.DIHEDRAL>
0

>  <SCORE.SYSTEM.SOLV>
0

>  <SCORE.SYSTEM.norm>
0

>  <SCORE.heavy>
52

>  <SCORE.norm>
0.0599368

>  <RMSD>
2.031

$$$$
2fd0_lig
 OpenBabel11021811433D
libRbt.so/2013.1/901 2013/11/27
 52 56  0  0  0  0  0  0  0  0999 V2000
    4.5348  -49.5688   14.8823 C   0  0  2  0  0  0  0  0  0  0  0  0
    5.1341  -48.2762   15.0461 O   0  0  0  0  0  0  0  0  0  0  0  0
    7.3383  -45.3530   12.7032 C   0  0  2  0  0  0  0  0  0  0  0  0
    8.3464  -44.7431   11.8208 N   0  0  0  0  0  0  0  0  0  0  0  0
    3.8487  -47.9836   11.1540 C   0  0  1  0  0  0  0  0  0  0  0  0
    0.9559  -50.3038    8.8126 C   0  0  1  0  0  0  0  0  0  0  0  0
   -3.2571  -51.0182    6.0451 C   0  0  1  0  0  0  0  0  0  0  0  0
    3.4907  -49.7858   16.0375 C   0  0  2  0  0  0  0  0  0  0  0  0
    2.4815  -48.7362   16.0608 N   0  0  0  0  0  0  0  0  0  0  0  0
    8.0413  -46.0242   13.9635 C   0  0  0  0  0  0  0  0  0  0  0  0
    3.2070  -49.3259   10.8540 C   0  0  2  0  0  0  0  0  0  0  0  0
    3.8750  -50.0258    9.7668 O   0  0  0  0  0  0  0  0  0  0  0  0
    0.4877  -50.1107    7.2950 C   0  0  2  0  0  0  0  0  0  0  0  0
   -0.4851  -48.9893    7.1879 N   0  0  0  0  0  0  0  0  0  0  0  0
   -4.2650  -52.0743    6.5515 C   0  0  1  0  0  0  0  0  0  0  0  0
   -5.0771  -51.4879    7.5987 O   0  0  0  0  0  0  0  0  0  0  0  0
    4.2251  -49.9059   17.4241 C   0  0  0  0  0  0  0  0  0  0  0  0
    6.9409  -46.6780   14.9284 C   0  0  2  0  0  0  0  0  0  0  0  0
    7.5653  -47.3082   16.1009 N   0  0  0  0  0  0  0  0  0  0  0  0
    1.7509  -48.9615   10.6185 C   0  0  2  0  0  0  0  0  0  0  0  0
    1.4101  -49.0608    9.2624 O   0  0  0  0  0  0  0  0  0  0  0  0
   -0.0412  -51.5437    6.7680 C   0  0  1  0  0  0  0  0  0  0  0  0
    1.0232  -52.4980    6.9334 O   0  0  0  0  0  0  0  0  0  0  0  0
   -5.2166  -52.7147    5.5049 C   0  0  1  0  0  0  0  0  0  0  0  0
   -6.4320  -51.9553    5.4905 O   0  0  0  0  0  0  0  0  0  0  0  0
    5.2829  -51.0534   17.3282 C   0  0  2  0  0  0  0  0  0  0  0  0
    5.9587  -51.2068   18.5723 O   0  0  0  0  0  0  0  0  0  0  0  0
    6.1224  -47.7297   14.1286 C   0  0  2  0  0  0  0  0  0  0  0  0
    1.5482  -47.4709   10.9814 C   0  0  2  0  0  0  0  0  0  0  0  0
    2.7987  -47.1219   11.5577 O   0  0  0  0  0  0  0  0  0  0  0  0
   -1.2855  -52.0866    7.6462 C   0  0  2  0  0  0  0  0  0  0  0  0
   -2.3266  -51.1140    7.4370 O   0  0  0  0  0  0  0  0  0  0  0  0
   -4.6728  -52.8110    4.0607 C   0  0  2  0  0  0  0  0  0  0  0  0
   -5.0838  -54.1070    3.5730 O   0  0  0  0  0  0  0  0  0  0  0  0
    6.3074  -50.7203   16.2061 C   0  0  2  0  0  0  0  0  0  0  0  0
    5.5684  -50.5859   14.9311 O   0  0  0  0  0  0  0  0  0  0  0  0
    5.4594  -47.1333   12.8497 C   0  0  2  0  0  0  0  0  0  0  0  0
    4.7693  -48.2115   12.1735 O   0  0  0  0  0  0  0  0  0  0  0  0
    0.4546  -47.1981   12.0080 C   0  0  0  0  0  0  0  0  0  0  0  0
   -0.7761  -47.6844   11.4511 O   0  0  0  0  0  0  0  0  0  0  0  0
   -0.8322  -52.0058    9.0916 C   0  0  1  0  0  0  0  0  0  0  0  0
   -0.1831  -50.8619    9.6854 O   0  0  0  0  0  0  0  0  0  0  0  0
   -3.1618  -52.5976    4.0286 C   0  0  2  0  0  0  0  0  0  0  0  0
   -2.7009  -51.4005    4.7141 O   0  0  0  0  0  0  0  0  0  0  0  0
    7.3289  -51.7998   16.0387 C   0  0  0  0  0  0  0  0  0  0  0  0
    6.9493  -52.5906   14.9450 O   0  0  0  0  0  0  0  0  0  0  0  0
    6.5543  -46.4852   11.9256 C   0  0  1  0  0  0  0  0  0  0  0  0
    5.8883  -45.8896   10.7590 O   0  0  0  0  0  0  0  0  0  0  0  0
   -1.9370  -52.4541   10.1128 C   0  0  0  0  0  0  0  0  0  0  0  0
   -1.4782  -52.4550   11.5231 N   0  0  0  0  0  0  0  0  0  0  0  0
   -2.3681  -52.6305    2.7244 C   0  0  0  0  0  0  0  0  0  0  0  0
   -0.9478  -52.4123    2.9882 O   0  0  0  0  0  0  0  0  0  0  0  0
  1  2  1  1  0  0  0
  1  8  1  0  0  0  0
  1 36  1  0  0  0  0
  3  4  1  6  0  0  0
  3 10  1  0  0  0  0
  3 47  1  0  0  0  0
  5 11  1  0  0  0  0
  5 30  1  0  0  0  0
  5 38  1  1  0  0  0
  6 21  1  1  0  0  0
  6 42  1  0  0  0  0
  7 15  1  0  0  0  0
  7 44  1  0  0  0  0
  7 32  1  1  0  0  0
  8  9  1  1  0  0  0
  8 17  1  0  0  0  0
 11 12  1  6  0  0  0
 11 20  1  0  0  0  0
 13  6  1  0  0  0  0
 13 14  1  1  0  0  0
 15 16  1  1  0  0  0
 15 24  1  0  0  0  0
 17 26  1  0  0  0  0
 18 10  1  0  0  0  0
 18 19  1  1  0  0  0
 20 21  1  6  0  0  0
 20 29  1  0  0  0  0
 22 13  1  0  0  0  0
 22 23  1  1  0  0  0
 24 25  1  6  0  0  0
 24 33  1  0  0  0  0
 26 27  1  1  0  0  0
 26 35  1  0  0  0  0
 28  2  1  1  0  0  0
 28 18  1  0  0  0  0
 29 30  1  0  0  0  0
 29 39  1  1  0  0  0
 31 22  1  0  0  0  0
 31 32  1  1  0  0  0
 31 41  1  0  0  0  0
 33 34  1  1  0  0  0
 33 43  1  0  0  0  0
 35 36  1  0  0  0  0
 35 45  1  6  0  0  0
 37 28  1  0  0  0  0
 37 38  1  6  0  0  0
 39 40  1  0  0  0  0
 41 42  1  0  0  0  0
 41 49  1  1  0  0  0
 43 44  1  0  0  0  0
 43 51  1  6  0  0  0
 45 46  1  0  0  0  0
 47 37  1  0  0  0  0
 47 48  1  6  0  0  0
 49 50  1  0  0  0  0
 51 52  1  0  0  0  0
M  END
>  <CHROM.1>
-178.24184719,-171.88127700,173.91586915,85.41527560,88.76162645,-155.98949539
-60.27017283,76.77412038,99.61814067,166.49258925,176.59689125,-179.36366537
1.75773459,-49.91482676,10.58723311,0.48361714,0.69087552,2.08481917

>  <Name>
2fd0_lig

>  <RI>
1.29864e+07

>  <Rbt.Current_Directory>
/home/itssahil/PROJECTS/Mol_Feturizer/New_Systems/rnas/2fd0

>  <Rbt.Executable>
rbdock ($Id: //depot/dev/client3/rdock/2013.1/src/exe/rbdock.cxx#4 $)

>  <Rbt.Library>
libRbt.so (2013.1, Build901 2013/11/27)

>  <Rbt.Parameter_File>
/export/apps/rDock/src/rDock_2013.1_src/data/scripts/dock_solv.prm

>  <Rbt.Receptor>
prm/pocket_docking_3.prm

>  <SCORE>
-21.7723

>  <SCORE.INTER>
-17.419

>  <SCORE.INTER.CONST>
1

>  <SCORE.INTER.POLAR>
-1.93754

>  <SCORE.INTER.ROT>
12

>  <SCORE.INTER.SOLV>
16.5156

>  <SCORE.INTER.VDW>
-22.2594

>  <SCORE.INTER.norm>
-0.334982

>  <SCORE.INTRA>
-4.35324

>  <SCORE.INTRA.DIHEDRAL>
-7.15033

>  <SCORE.INTRA.DIHEDRAL.0>
23.9727

>  <SCORE.INTRA.POLAR>
0

>  <SCORE.INTRA.POLAR.0>
0

>  <SCORE.INTRA.REPUL>
0

>  <SCORE.INTRA.REPUL.0>
0

>  <SCORE.INTRA.SOLV>
-4.11108

>  <SCORE.INTRA.SOLV.lig_0>
-115.028

>  <SCORE.INTRA.VDW>
1.27747

>  <SCORE.INTRA.VDW.0>
-6.82393

>  <SCORE.INTRA.norm>
-0.0837161

>  <SCORE.RESTR>
0

>  <SCORE.RESTR.CAVITY>
0

>  <SCORE.RESTR.norm>
0

>  <SCORE.SYSTEM>
0

>  <SCORE.SYSTEM.CONST>
0

>  <SCORE.SYSTEM.DIHEDRAL>
0

>  <SCORE.SYSTEM.SOLV>
0

>  <SCORE.SYSTEM.norm>
0

>  <SCORE.heavy>
52

>  <SCORE.norm>
-0.418698

>  <RMSD>
2.042

$$$$
2fd0_lig
 OpenBabel11021811433D
libRbt.so/2013.1/901 2013/11/27
 52 56  0  0  0  0  0  0  0  0999 V2000
    5.2992  -49.4858   14.9382 C   0  0  2  0  0  0  0  0  0  0  0  0
    6.0826  -48.3155   15.2096 O   0  0  0  0  0  0  0  0  0  0  0  0
    8.0410  -45.2404   12.8430 C   0  0  2  0  0  0  0  0  0  0  0  0
    8.9582  -44.5706   11.9065 N   0  0  0  0  0  0  0  0  0  0  0  0
    4.2513  -47.8418   11.7251 C   0  0  1  0  0  0  0  0  0  0  0  0
    0.5793  -49.2794    9.5192 C   0  0  1  0  0  0  0  0  0  0  0  0
   -1.4510  -51.8770    5.3362 C   0  0  1  0  0  0  0  0  0  0  0  0
    4.2087  -49.6291   16.0615 C   0  0  2  0  0  0  0  0  0  0  0  0
    3.3689  -48.4432   16.1567 N   0  0  0  0  0  0  0  0  0  0  0  0
    8.8633  -45.9752   13.9906 C   0  0  0  0  0  0  0  0  0  0  0  0
    4.0530  -48.9998   10.7643 C   0  0  2  0  0  0  0  0  0  0  0  0
    4.5747  -48.7106    9.4368 O   0  0  0  0  0  0  0  0  0  0  0  0
    0.6394  -50.8606    9.2835 C   0  0  2  0  0  0  0  0  0  0  0  0
    1.5799  -51.1878    8.1773 N   0  0  0  0  0  0  0  0  0  0  0  0
   -2.3024  -50.6510    4.9364 C   0  0  1  0  0  0  0  0  0  0  0  0
   -1.4295  -49.6227    4.4066 O   0  0  0  0  0  0  0  0  0  0  0  0
    4.8853  -49.9647   17.4421 C   0  0  0  0  0  0  0  0  0  0  0  0
    7.8622  -46.6945   15.0153 C   0  0  2  0  0  0  0  0  0  0  0  0
    8.5977  -47.3841   16.0855 N   0  0  0  0  0  0  0  0  0  0  0  0
    2.5589  -49.2620   10.8519 C   0  0  2  0  0  0  0  0  0  0  0  0
    1.8952  -48.8407    9.6913 O   0  0  0  0  0  0  0  0  0  0  0  0
   -0.8788  -51.3756    9.0813 C   0  0  1  0  0  0  0  0  0  0  0  0
   -1.6376  -50.9868   10.2407 O   0  0  0  0  0  0  0  0  0  0  0  0
   -3.4517  -50.8798    3.9177 C   0  0  1  0  0  0  0  0  0  0  0  0
   -2.9389  -50.6123    2.6063 O   0  0  0  0  0  0  0  0  0  0  0  0
    5.7600  -51.2489   17.2674 C   0  0  2  0  0  0  0  0  0  0  0  0
    6.3769  -51.5976   18.5027 O   0  0  0  0  0  0  0  0  0  0  0  0
    6.9771  -47.7072   14.2365 C   0  0  2  0  0  0  0  0  0  0  0  0
    1.9706  -48.3992   11.9937 C   0  0  2  0  0  0  0  0  0  0  0  0
    3.1345  -47.8524   12.5971 O   0  0  0  0  0  0  0  0  0  0  0  0
   -1.5892  -50.6723    7.8105 C   0  0  2  0  0  0  0  0  0  0  0  0
   -0.8101  -51.1017    6.6781 O   0  0  0  0  0  0  0  0  0  0  0  0
   -4.0953  -52.2856    3.9232 C   0  0  2  0  0  0  0  0  0  0  0  0
   -5.5156  -52.0667    3.7767 O   0  0  0  0  0  0  0  0  0  0  0  0
    6.8480  -50.9907   16.1859 C   0  0  2  0  0  0  0  0  0  0  0  0
    6.1665  -50.6489   14.9178 O   0  0  0  0  0  0  0  0  0  0  0  0
    6.1933  -47.0456   13.0622 C   0  0  2  0  0  0  0  0  0  0  0  0
    5.4478  -48.0906   12.3927 O   0  0  0  0  0  0  0  0  0  0  0  0
    1.1981  -49.1724   13.0566 C   0  0  0  0  0  0  0  0  0  0  0  0
    2.1500  -49.9826   13.7627 O   0  0  0  0  0  0  0  0  0  0  0  0
   -1.3842  -49.1813    8.0005 C   0  0  1  0  0  0  0  0  0  0  0  0
   -0.1288  -48.5640    8.3542 O   0  0  0  0  0  0  0  0  0  0  0  0
   -3.7233  -53.0538    5.1886 C   0  0  2  0  0  0  0  0  0  0  0  0
   -2.2987  -53.0970    5.4783 O   0  0  0  0  0  0  0  0  0  0  0  0
    7.6988  -52.1970   15.9449 C   0  0  0  0  0  0  0  0  0  0  0  0
    8.3980  -52.4780   17.1272 O   0  0  0  0  0  0  0  0  0  0  0  0
    7.1927  -46.3344   12.0783 C   0  0  1  0  0  0  0  0  0  0  0  0
    6.4165  -45.6800   11.0159 O   0  0  0  0  0  0  0  0  0  0  0  0
   -1.9732  -48.3209    6.8269 C   0  0  0  0  0  0  0  0  0  0  0  0
   -3.4194  -48.5488    6.5902 N   0  0  0  0  0  0  0  0  0  0  0  0
   -4.2171  -54.4757    5.4459 C   0  0  0  0  0  0  0  0  0  0  0  0
   -5.3236  -54.7997    4.5485 O   0  0  0  0  0  0  0  0  0  0  0  0
  1  2  1  1  0  0  0
  1  8  1  0  0  0  0
  1 36  1  0  0  0  0
  3  4  1  6  0  0  0
  3 10  1  0  0  0  0
  3 47  1  0  0  0  0
  5 11  1  0  0  0  0
  5 30  1  0  0  0  0
  5 38  1  1  0  0  0
  6 21  1  6  0  0  0
  6 42  1  0  0  0  0
  7 15  1  0  0  0  0
  7 44  1  0  0  0  0
  7 32  1  1  0  0  0
  8  9  1  1  0  0  0
  8 17  1  0  0  0  0
 11 12  1  6  0  0  0
 11 20  1  0  0  0  0
 13  6  1  0  0  0  0
 13 14  1  6  0  0  0
 15 16  1  6  0  0  0
 15 24  1  0  0  0  0
 17 26  1  0  0  0  0
 18 10  1  0  0  0  0
 18 19  1  1  0  0  0
 20 21  1  6  0  0  0
 20 29  1  0  0  0  0
 22 13  1  0  0  0  0
 22 23  1  1  0  0  0
 24 25  1  6  0  0  0
 24 33  1  0  0  0  0
 26 27  1  1  0  0  0
 26 35  1  0  0  0  0
 28  2  1  1  0  0  0
 28 18  1  0  0  0  0
 29 30  1  0  0  0  0
 29 39  1  1  0  0  0
 31 22  1  0  0  0  0
 31 32  1  6  0  0  0
 31 41  1  0  0  0  0
 33 34  1  1  0  0  0
 33 43  1  0  0  0  0
 35 36  1  0  0  0  0
 35 45  1  6  0  0  0
 37 28  1  0  0  0  0
 37 38  1  6  0  0  0
 39 40  1  0  0  0  0
 41 42  1  0  0  0  0
 41 49  1  6  0  0  0
 43 44  1  0  0  0  0
 43 51  1  6  0  0  0
 45 46  1  0  0  0  0
 47 37  1  0  0  0  0
 47 48  1  6  0  0  0
 49 50  1  0  0  0  0
 51 52  1  0  0  0  0
M  END
>  <CHROM.1>
-165.79496885,159.80529996,-67.53147573,64.23444077,166.59155099,-167.06580318
67.72403375,124.59547034,-63.94232523,151.47258466,56.80419140,-15.49544500
2.27118593,-49.68826157,10.67087620,0.39355296,0.72545164,2.29540395

>  <Name>
2fd0_lig

>  <RI>
2.89522e+07

>  <Rbt.Current_Directory>
/home/itssahil/PROJECTS/Mol_Feturizer/New_Systems/rnas/2fd0

>  <Rbt.Executable>
rbdock ($Id: //depot/dev/client3/rdock/2013.1/src/exe/rbdock.cxx#4 $)

>  <Rbt.Library>
libRbt.so (2013.1, Build901 2013/11/27)

>  <Rbt.Parameter_File>
/export/apps/rDock/src/rDock_2013.1_src/data/scripts/dock_solv.prm

>  <Rbt.Receptor>
prm/pocket_docking_2.prm

>  <SCORE>
-8.55326

>  <SCORE.INTER>
-12.1568

>  <SCORE.INTER.CONST>
1

>  <SCORE.INTER.POLAR>
-0.938083

>  <SCORE.INTER.ROT>
12

>  <SCORE.INTER.SOLV>
15.4053

>  <SCORE.INTER.VDW>
-21.7127

>  <SCORE.INTER.norm>
-0.233785

>  <SCORE.INTRA>
1.19275

>  <SCORE.INTRA.DIHEDRAL>
-3.27608

>  <SCORE.INTRA.DIHEDRAL.0>
23.9727

>  <SCORE.INTRA.POLAR>
0

>  <SCORE.INTRA.POLAR.0>
0

>  <SCORE.INTRA.REPUL>
0

>  <SCORE.INTRA.REPUL.0>
0

>  <SCORE.INTRA.SOLV>
1.9304

>  <SCORE.INTRA.SOLV.lig_0>
-115.028

>  <SCORE.INTRA.VDW>
1.86559

>  <SCORE.INTRA.VDW.0>
-6.82393

>  <SCORE.INTRA.norm>
0.0229375

>  <SCORE.RESTR>
2.4108

>  <SCORE.RESTR.CAVITY>
2.4108

>  <SCORE.RESTR.norm>
0.0463616

>  <SCORE.SYSTEM>
0

>  <SCORE.SYSTEM.CONST>
0

>  <SCORE.SYSTEM.DIHEDRAL>
0

>  <SCORE.SYSTEM.SOLV>
0

>  <SCORE.SYSTEM.norm>
0

>  <SCORE.heavy>
52

>  <SCORE.norm>
-0.164486

>  <RMSD>
2.048

$$$$
2fd0_lig
 OpenBabel11021811433D
libRbt.so/2013.1/901 2013/11/27
 52 56  0  0  0  0  0  0  0  0999 V2000
    6.3670  -47.3242   15.5569 C   0  0  2  0  0  0  0  0  0  0  0  0
    6.5200  -47.9174   14.2601 O   0  0  0  0  0  0  0  0  0  0  0  0
    5.5224  -44.6657   11.5538 C   0  0  2  0  0  0  0  0  0  0  0  0
    5.2506  -43.9067   10.3221 N   0  0  0  0  0  0  0  0  0  0  0  0
    2.6703  -47.8795   12.4067 C   0  0  1  0  0  0  0  0  0  0  0  0
    0.8841  -50.1762    8.9557 C   0  0  1  0  0  0  0  0  0  0  0  0
   -2.9973  -50.7513    5.5031 C   0  0  1  0  0  0  0  0  0  0  0  0
    7.7855  -47.2101   16.2250 C   0  0  2  0  0  0  0  0  0  0  0  0
    8.7128  -46.4462   15.4021 N   0  0  0  0  0  0  0  0  0  0  0  0
    6.9842  -45.2932   11.5045 C   0  0  0  0  0  0  0  0  0  0  0  0
    2.9549  -48.8128   11.2443 C   0  0  2  0  0  0  0  0  0  0  0  0
    3.3565  -48.0931   10.0447 O   0  0  0  0  0  0  0  0  0  0  0  0
    0.4297  -49.3688    7.6515 C   0  0  2  0  0  0  0  0  0  0  0  0
   -0.8317  -48.6231    7.9125 N   0  0  0  0  0  0  0  0  0  0  0  0
   -3.9973  -49.9223    6.3400 C   0  0  1  0  0  0  0  0  0  0  0  0
   -3.4295  -48.6134    6.5936 O   0  0  0  0  0  0  0  0  0  0  0  0
    8.3538  -48.6408   16.5516 C   0  0  0  0  0  0  0  0  0  0  0  0
    7.2820  -46.1098   12.8513 C   0  0  2  0  0  0  0  0  0  0  0  0
    8.6272  -46.7028   12.8301 N   0  0  0  0  0  0  0  0  0  0  0  0
    1.6748  -49.6244   11.1387 C   0  0  2  0  0  0  0  0  0  0  0  0
    0.9276  -49.2597   10.0102 O   0  0  0  0  0  0  0  0  0  0  0  0
    0.3747  -50.4224    6.4276 C   0  0  1  0  0  0  0  0  0  0  0  0
    1.6711  -51.0364    6.3117 O   0  0  0  0  0  0  0  0  0  0  0  0
   -5.4241  -49.7248    5.7601 C   0  0  1  0  0  0  0  0  0  0  0  0
   -5.4354  -48.4946    5.0248 O   0  0  0  0  0  0  0  0  0  0  0  0
    7.3142  -49.3968   17.4419 C   0  0  2  0  0  0  0  0  0  0  0  0
    7.8004  -50.6930   17.7757 O   0  0  0  0  0  0  0  0  0  0  0  0
    6.2099  -47.2224   13.0199 C   0  0  2  0  0  0  0  0  0  0  0  0
    0.7733  -49.2876   12.3505 C   0  0  2  0  0  0  0  0  0  0  0  0
    1.6231  -48.4780   13.1505 O   0  0  0  0  0  0  0  0  0  0  0  0
   -0.6764  -51.6183    6.7090 C   0  0  2  0  0  0  0  0  0  0  0  0
   -1.9547  -50.9614    6.7998 O   0  0  0  0  0  0  0  0  0  0  0  0
   -5.9490  -50.8559    4.8459 C   0  0  2  0  0  0  0  0  0  0  0  0
   -7.3352  -51.0404    5.2078 O   0  0  0  0  0  0  0  0  0  0  0  0
    5.9666  -49.5176   16.6744 C   0  0  2  0  0  0  0  0  0  0  0  0
    5.4889  -48.1524   16.3621 O   0  0  0  0  0  0  0  0  0  0  0  0
    4.7543  -46.6636   13.0164 C   0  0  2  0  0  0  0  0  0  0  0  0
    3.8544  -47.7917   13.1342 O   0  0  0  0  0  0  0  0  0  0  0  0
    0.3325  -50.4871   13.1820 C   0  0  0  0  0  0  0  0  0  0  0  0
    1.5226  -51.0976   13.7037 O   0  0  0  0  0  0  0  0  0  0  0  0
   -0.3164  -52.1658    8.0772 C   0  0  1  0  0  0  0  0  0  0  0  0
   -0.0620  -51.3561    9.2442 O   0  0  0  0  0  0  0  0  0  0  0  0
   -5.1053  -52.1188    4.9968 C   0  0  2  0  0  0  0  0  0  0  0  0
   -3.6722  -51.9143    4.8559 O   0  0  0  0  0  0  0  0  0  0  0  0
    4.9151  -50.2021   17.4886 C   0  0  0  0  0  0  0  0  0  0  0  0
    5.3913  -51.4759   17.8297 O   0  0  0  0  0  0  0  0  0  0  0  0
    4.4892  -45.8548   11.6942 C   0  0  1  0  0  0  0  0  0  0  0  0
    3.1290  -45.3013   11.7497 O   0  0  0  0  0  0  0  0  0  0  0  0
   -1.2678  -53.3208    8.5517 C   0  0  0  0  0  0  0  0  0  0  0  0
   -0.9728  -54.6308    7.9221 N   0  0  0  0  0  0  0  0  0  0  0  0
   -5.3988  -53.3874    4.1992 C   0  0  0  0  0  0  0  0  0  0  0  0
   -6.7427  -53.8763    4.4981 O   0  0  0  0  0  0  0  0  0  0  0  0
  1  2  1  6  0  0  0
  1  8  1  0  0  0  0
  1 36  1  0  0  0  0
  3  4  1  6  0  0  0
  3 10  1  0  0  0  0
  3 47  1  0  0  0  0
  5 11  1  0  0  0  0
  5 30  1  0  0  0  0
  5 38  1  1  0  0  0
  6 21  1  1  0  0  0
  6 42  1  0  0  0  0
  7 15  1  0  0  0  0
  7 44  1  0  0  0  0
  7 32  1  1  0  0  0
  8  9  1  6  0  0  0
  8 17  1  0  0  0  0
 11 12  1  6  0  0  0
 11 20  1  0  0  0  0
 13  6  1  0  0  0  0
 13 14  1  1  0  0  0
 15 16  1  6  0  0  0
 15 24  1  0  0  0  0
 17 26  1  0  0  0  0
 18 10  1  0  0  0  0
 18 19  1  6  0  0  0
 20 21  1  6  0  0  0
 20 29  1  0  0  0  0
 22 13  1  0  0  0  0
 22 23  1  1  0  0  0
 24 25  1  6  0  0  0
 24 33  1  0  0  0  0
 26 27  1  6  0  0  0
 26 35  1  0  0  0  0
 28  2  1  1  0  0  0
 28 18  1  0  0  0  0
 29 30  1  0  0  0  0
 29 39  1  1  0  0  0
 31 22  1  0  0  0  0
 31 32  1  1  0  0  0
 31 41  1  0  0  0  0
 33 34  1  1  0  0  0
 33 43  1  0  0  0  0
 35 36  1  0  0  0  0
 35 45  1  1  0  0  0
 37 28  1  0  0  0  0
 37 38  1  6  0  0  0
 39 40  1  0  0  0  0
 41 42  1  0  0  0  0
 41 49  1  1  0  0  0
 43 44  1  0  0  0  0
 43 51  1  6  0  0  0
 45 46  1  0  0  0  0
 47 37  1  0  0  0  0
 47 48  1  1  0  0  0
 49 50  1  0  0  0  0
 51 52  1  0  0  0  0
M  END
>  <CHROM.1>
-115.82181132,100.70746697,-161.09263133,-175.66275103,108.48159713,69.30962439
61.34073074,92.60615622,-58.52791831,-139.37452514,78.00675117,-60.16352476
1.64832347,-49.33710139,10.62471644,-0.24720283,-0.72422426,-0.71889934

>  <Name>
2fd0_lig

>  <RI>
2.89522e+07

>  <Rbt.Current_Directory>
/home/itssahil/PROJECTS/Mol_Feturizer/New_Systems/rnas/2fd0

>  <Rbt.Executable>
rbdock ($Id: //depot/dev/client3/rdock/2013.1/src/exe/rbdock.cxx#4 $)

>  <Rbt.Library>
libRbt.so (2013.1, Build901 2013/11/27)

>  <Rbt.Parameter_File>
/export/apps/rDock/src/rDock_2013.1_src/data/scripts/dock_solv.prm

>  <Rbt.Receptor>
prm/pocket_docking_2.prm

>  <SCORE>
9.72119

>  <SCORE.INTER>
-1.71005

>  <SCORE.INTER.CONST>
1

>  <SCORE.INTER.POLAR>
-0.8773

>  <SCORE.INTER.ROT>
12

>  <SCORE.INTER.SOLV>
14.7351

>  <SCORE.INTER.VDW>
-14.7274

>  <SCORE.INTER.norm>
-0.0328855

>  <SCORE.INTRA>
8.11047

>  <SCORE.INTRA.DIHEDRAL>
8.96652

>  <SCORE.INTRA.DIHEDRAL.0>
23.9727

>  <SCORE.INTRA.POLAR>
0

>  <SCORE.INTRA.POLAR.0>
0

>  <SCORE.INTRA.REPUL>
0

>  <SCORE.INTRA.REPUL.0>
0

>  <SCORE.INTRA.SOLV>
1.28817

>  <SCORE.INTRA.SOLV.lig_0>
-115.028

>  <SCORE.INTRA.VDW>
2.98312

>  <SCORE.INTRA.VDW.0>
-6.82393

>  <SCORE.INTRA.norm>
0.155971

>  <SCORE.RESTR>
3.32077

>  <SCORE.RESTR.CAVITY>
3.32077

>  <SCORE.RESTR.norm>
0.0638609

>  <SCORE.SYSTEM>
0

>  <SCORE.SYSTEM.CONST>
0

>  <SCORE.SYSTEM.DIHEDRAL>
0

>  <SCORE.SYSTEM.SOLV>
0

>  <SCORE.SYSTEM.norm>
0

>  <SCORE.heavy>
52

>  <SCORE.norm>
0.186946

>  <RMSD>
2.068

$$$$
2fd0_lig
 OpenBabel11021811433D
libRbt.so/2013.1/901 2013/11/27
 52 56  0  0  0  0  0  0  0  0999 V2000
    4.2204  -49.8406   14.7727 C   0  0  2  0  0  0  0  0  0  0  0  0
    4.8903  -48.6010   14.5048 O   0  0  0  0  0  0  0  0  0  0  0  0
    5.3206  -45.7017   11.2952 C   0  0  2  0  0  0  0  0  0  0  0  0
    5.5618  -45.1122    9.9681 N   0  0  0  0  0  0  0  0  0  0  0  0
    2.1697  -48.7075   11.3859 C   0  0  1  0  0  0  0  0  0  0  0  0
    1.9025  -51.8294    8.0681 C   0  0  1  0  0  0  0  0  0  0  0  0
   -2.1337  -52.6160    4.7030 C   0  0  1  0  0  0  0  0  0  0  0  0
    3.4798  -49.7202   16.1542 C   0  0  2  0  0  0  0  0  0  0  0  0
    2.5469  -48.6021   16.1740 N   0  0  0  0  0  0  0  0  0  0  0  0
    6.5987  -46.5186   11.7771 C   0  0  0  0  0  0  0  0  0  0  0  0
    3.1609  -49.6654   10.7507 C   0  0  2  0  0  0  0  0  0  0  0  0
    4.0548  -48.9956    9.8177 O   0  0  0  0  0  0  0  0  0  0  0  0
    1.7859  -51.4408    6.5206 C   0  0  2  0  0  0  0  0  0  0  0  0
    0.8371  -50.3087    6.3370 N   0  0  0  0  0  0  0  0  0  0  0  0
   -2.6503  -51.1708    4.8820 C   0  0  1  0  0  0  0  0  0  0  0  0
   -1.6780  -50.2498    4.3285 O   0  0  0  0  0  0  0  0  0  0  0  0
    4.5230  -49.6173   17.3279 C   0  0  0  0  0  0  0  0  0  0  0  0
    6.3378  -47.1502   13.2271 C   0  0  2  0  0  0  0  0  0  0  0  0
    7.5041  -47.9135   13.6951 N   0  0  0  0  0  0  0  0  0  0  0  0
    2.2641  -50.7407   10.1607 C   0  0  2  0  0  0  0  0  0  0  0  0
    2.2144  -50.6570    8.7624 O   0  0  0  0  0  0  0  0  0  0  0  0
    1.4231  -52.7912    5.7108 C   0  0  1  0  0  0  0  0  0  0  0  0
    2.4440  -53.7656    5.9924 O   0  0  0  0  0  0  0  0  0  0  0  0
   -4.0385  -50.8273    4.2771 C   0  0  1  0  0  0  0  0  0  0  0  0
   -3.8284  -50.3014    2.9605 O   0  0  0  0  0  0  0  0  0  0  0  0
    5.4816  -50.8501   17.2499 C   0  0  2  0  0  0  0  0  0  0  0  0
    6.4323  -50.8037   18.3092 O   0  0  0  0  0  0  0  0  0  0  0  0
    5.0868  -48.0704   13.1643 C   0  0  2  0  0  0  0  0  0  0  0  0
    0.8128  -50.4909   10.6357 C   0  0  2  0  0  0  0  0  0  0  0  0
    0.9745  -49.4432   11.5811 O   0  0  0  0  0  0  0  0  0  0  0  0
    0.0251  -53.4341    6.2072 C   0  0  2  0  0  0  0  0  0  0  0  0
   -0.9637  -52.4361    5.8909 O   0  0  0  0  0  0  0  0  0  0  0  0
   -5.0503  -51.9933    4.1917 C   0  0  2  0  0  0  0  0  0  0  0  0
   -6.3258  -51.4339    4.5743 O   0  0  0  0  0  0  0  0  0  0  0  0
    6.2157  -50.8487   15.8784 C   0  0  2  0  0  0  0  0  0  0  0  0
    5.1957  -50.9143   14.8085 O   0  0  0  0  0  0  0  0  0  0  0  0
    3.8182  -47.3298   12.6418 C   0  0  2  0  0  0  0  0  0  0  0  0
    2.7413  -48.2959   12.5871 O   0  0  0  0  0  0  0  0  0  0  0  0
    0.1495  -51.6710   11.3371 C   0  0  0  0  0  0  0  0  0  0  0  0
   -1.2600  -51.5742   11.0816 O   0  0  0  0  0  0  0  0  0  0  0  0
    0.1373  -53.5416    7.7163 C   0  0  1  0  0  0  0  0  0  0  0  0
    0.6086  -52.4873    8.5814 O   0  0  0  0  0  0  0  0  0  0  0  0
   -4.6109  -53.1654    5.0651 C   0  0  2  0  0  0  0  0  0  0  0  0
   -3.2413  -53.6052    4.8506 O   0  0  0  0  0  0  0  0  0  0  0  0
    7.1245  -52.0268   15.7259 C   0  0  0  0  0  0  0  0  0  0  0  0
    8.1338  -51.9244   16.6936 O   0  0  0  0  0  0  0  0  0  0  0  0
    4.1012  -46.7064   11.2261 C   0  0  1  0  0  0  0  0  0  0  0  0
    2.9038  -45.9746   10.7900 O   0  0  0  0  0  0  0  0  0  0  0  0
   -1.1595  -54.1098    8.3945 C   0  0  0  0  0  0  0  0  0  0  0  0
   -1.0272  -54.3078    9.8583 N   0  0  0  0  0  0  0  0  0  0  0  0
   -5.4246  -54.4543    5.1579 C   0  0  0  0  0  0  0  0  0  0  0  0
   -5.5057  -55.0994    3.8496 O   0  0  0  0  0  0  0  0  0  0  0  0
  1  2  1  1  0  0  0
  1  8  1  0  0  0  0
  1 36  1  0  0  0  0
  3  4  1  6  0  0  0
  3 10  1  0  0  0  0
  3 47  1  0  0  0  0
  5 11  1  0  0  0  0
  5 30  1  0  0  0  0
  5 38  1  1  0  0  0
  6 21  1  1  0  0  0
  6 42  1  0  0  0  0
  7 15  1  0  0  0  0
  7 44  1  0  0  0  0
  7 32  1  1  0  0  0
  8  9  1  6  0  0  0
  8 17  1  0  0  0  0
 11 12  1  6  0  0  0
 11 20  1  0  0  0  0
 13  6  1  0  0  0  0
 13 14  1  1  0  0  0
 15 16  1  6  0  0  0
 15 24  1  0  0  0  0
 17 26  1  0  0  0  0
 18 10  1  0  0  0  0
 18 19  1  6  0  0  0
 20 21  1  6  0  0  0
 20 29  1  0  0  0  0
 22 13  1  0  0  0  0
 22 23  1  1  0  0  0
 24 25  1  6  0  0  0
 24 33  1  0  0  0  0
 26 27  1  1  0  0  0
 26 35  1  0  0  0  0
 28  2  1  1  0  0  0
 28 18  1  0  0  0  0
 29 30  1  0  0  0  0
 29 39  1  1  0  0  0
 31 22  1  0  0  0  0
 31 32  1  1  0  0  0
 31 41  1  0  0  0  0
 33 34  1  1  0  0  0
 33 43  1  0  0  0  0
 35 36  1  0  0  0  0
 35 45  1  1  0  0  0
 37 28  1  0  0  0  0
 37 38  1  6  0  0  0
 39 40  1  0  0  0  0
 41 42  1  0  0  0  0
 41 49  1  1  0  0  0
 43 44  1  0  0  0  0
 43 51  1  6  0  0  0
 45 46  1  0  0  0  0
 47 37  1  0  0  0  0
 47 48  1  1  0  0  0
 49 50  1  0  0  0  0
 51 52  1  0  0  0  0
M  END
>  <CHROM.1>
-147.86052391,75.84570143,175.20066625,-174.79814497,155.07364310,-154.51485935
-150.39363623,111.04461589,-64.08346724,-113.53772304,175.97147851,61.98150315
1.58768972,-50.59676297,10.00902735,0.32214175,0.83245862,2.37893602

>  <Name>
2fd0_lig

>  <RI>
1.29864e+07

>  <Rbt.Current_Directory>
/home/itssahil/PROJECTS/Mol_Feturizer/New_Systems/rnas/2fd0

>  <Rbt.Executable>
rbdock ($Id: //depot/dev/client3/rdock/2013.1/src/exe/rbdock.cxx#4 $)

>  <Rbt.Library>
libRbt.so (2013.1, Build901 2013/11/27)

>  <Rbt.Parameter_File>
/export/apps/rDock/src/rDock_2013.1_src/data/scripts/dock_solv.prm

>  <Rbt.Receptor>
prm/pocket_docking_3.prm

>  <SCORE>
-14.1701

>  <SCORE.INTER>
-19.2599

>  <SCORE.INTER.CONST>
1

>  <SCORE.INTER.POLAR>
-2.61238

>  <SCORE.INTER.ROT>
12

>  <SCORE.INTER.SOLV>
19.1296

>  <SCORE.INTER.VDW>
-22.1086

>  <SCORE.INTER.norm>
-0.370383

>  <SCORE.INTRA>
4.91962

>  <SCORE.INTRA.DIHEDRAL>
4.56921

>  <SCORE.INTRA.DIHEDRAL.0>
23.9727

>  <SCORE.INTRA.POLAR>
0

>  <SCORE.INTRA.POLAR.0>
0

>  <SCORE.INTRA.REPUL>
0

>  <SCORE.INTRA.REPUL.0>
0

>  <SCORE.INTRA.SOLV>
0.654691

>  <SCORE.INTRA.SOLV.lig_0>
-115.028

>  <SCORE.INTRA.VDW>
2.30766

>  <SCORE.INTRA.VDW.0>
-6.82393

>  <SCORE.INTRA.norm>
0.094608

>  <SCORE.RESTR>
0.170222

>  <SCORE.RESTR.CAVITY>
0.170222

>  <SCORE.RESTR.norm>
0.0032735

>  <SCORE.SYSTEM>
0

>  <SCORE.SYSTEM.CONST>
0

>  <SCORE.SYSTEM.DIHEDRAL>
0

>  <SCORE.SYSTEM.SOLV>
0

>  <SCORE.SYSTEM.norm>
0

>  <SCORE.heavy>
52

>  <SCORE.norm>
-0.272502

>  <RMSD>
2.077

$$$$
2fd0_lig
 OpenBabel11021811433D
libRbt.so/2013.1/901 2013/11/27
 52 56  0  0  0  0  0  0  0  0999 V2000
    4.3782  -49.5554   14.6578 C   0  0  2  0  0  0  0  0  0  0  0  0
    4.7371  -48.1670   14.6771 O   0  0  0  0  0  0  0  0  0  0  0  0
    4.8974  -44.9250   11.7863 C   0  0  2  0  0  0  0  0  0  0  0  0
    5.2795  -44.1086   10.6225 N   0  0  0  0  0  0  0  0  0  0  0  0
    2.2400  -48.6684   11.4033 C   0  0  1  0  0  0  0  0  0  0  0  0
    0.7959  -51.3215    8.4189 C   0  0  1  0  0  0  0  0  0  0  0  0
   -2.2448  -52.3584    5.0219 C   0  0  1  0  0  0  0  0  0  0  0  0
    3.4646  -49.8529   15.9022 C   0  0  2  0  0  0  0  0  0  0  0  0
    2.2822  -49.0031   15.9227 N   0  0  0  0  0  0  0  0  0  0  0  0
    6.1674  -45.2088   12.7026 C   0  0  0  0  0  0  0  0  0  0  0  0
    2.4163  -49.9345   10.5851 C   0  0  2  0  0  0  0  0  0  0  0  0
    2.9049  -49.6595    9.2420 O   0  0  0  0  0  0  0  0  0  0  0  0
    1.0332  -50.3766    7.1499 C   0  0  2  0  0  0  0  0  0  0  0  0
   -0.1837  -49.5676    6.8670 N   0  0  0  0  0  0  0  0  0  0  0  0
   -2.6324  -51.4595    3.8263 C   0  0  1  0  0  0  0  0  0  0  0  0
   -1.9499  -51.9329    2.6389 O   0  0  0  0  0  0  0  0  0  0  0  0
    4.2918  -49.7166   17.2340 C   0  0  0  0  0  0  0  0  0  0  0  0
    5.7469  -46.0885   13.9748 C   0  0  2  0  0  0  0  0  0  0  0  0
    6.9043  -46.3674   14.8376 N   0  0  0  0  0  0  0  0  0  0  0  0
    1.0494  -50.5915   10.6768 C   0  0  2  0  0  0  0  0  0  0  0  0
    0.3550  -50.5027    9.4624 O   0  0  0  0  0  0  0  0  0  0  0  0
    1.5413  -51.3166    5.9377 C   0  0  1  0  0  0  0  0  0  0  0  0
    2.7231  -52.0094    6.3785 O   0  0  0  0  0  0  0  0  0  0  0  0
   -4.1429  -51.3249    3.4927 C   0  0  1  0  0  0  0  0  0  0  0  0
   -4.4671  -52.3135    2.5068 O   0  0  0  0  0  0  0  0  0  0  0  0
    5.5355  -50.6600   17.1450 C   0  0  2  0  0  0  0  0  0  0  0  0
    6.3026  -50.5794   18.3421 O   0  0  0  0  0  0  0  0  0  0  0  0
    5.1113  -47.4199   13.4859 C   0  0  2  0  0  0  0  0  0  0  0  0
    0.1897  -49.8064   11.6961 C   0  0  2  0  0  0  0  0  0  0  0  0
    1.1265  -48.8937   12.2502 O   0  0  0  0  0  0  0  0  0  0  0  0
    0.4555  -52.4540    5.5616 C   0  0  2  0  0  0  0  0  0  0  0  0
   -0.6976  -51.7178    5.1120 O   0  0  0  0  0  0  0  0  0  0  0  0
   -5.1179  -51.4714    4.6837 C   0  0  2  0  0  0  0  0  0  0  0  0
   -6.1308  -50.4605    4.4874 O   0  0  0  0  0  0  0  0  0  0  0  0
    6.4104  -50.2492   15.9262 C   0  0  2  0  0  0  0  0  0  0  0  0
    5.5830  -50.3625   14.7047 O   0  0  0  0  0  0  0  0  0  0  0  0
    3.8954  -47.1955   12.5361 C   0  0  2  0  0  0  0  0  0  0  0  0
    3.4235  -48.4985   12.1172 O   0  0  0  0  0  0  0  0  0  0  0  0
   -0.3933  -50.6421   12.8301 C   0  0  0  0  0  0  0  0  0  0  0  0
   -1.0733  -49.7372   13.7132 O   0  0  0  0  0  0  0  0  0  0  0  0
    0.1108  -53.1393    6.8705 C   0  0  1  0  0  0  0  0  0  0  0  0
   -0.2004  -52.4512    8.1000 O   0  0  0  0  0  0  0  0  0  0  0  0
   -4.3806  -51.3467    6.0143 C   0  0  2  0  0  0  0  0  0  0  0  0
   -3.2134  -52.2044    6.1467 O   0  0  0  0  0  0  0  0  0  0  0  0
    7.6017  -51.1389   15.7637 C   0  0  0  0  0  0  0  0  0  0  0  0
    7.1431  -52.4557   15.6170 O   0  0  0  0  0  0  0  0  0  0  0  0
    4.3268  -46.3190   11.3039 C   0  0  1  0  0  0  0  0  0  0  0  0
    3.1464  -46.0855   10.4603 O   0  0  0  0  0  0  0  0  0  0  0  0
   -0.9779  -54.2595    6.7147 C   0  0  0  0  0  0  0  0  0  0  0  0
   -1.2137  -55.0364    7.9558 N   0  0  0  0  0  0  0  0  0  0  0  0
   -5.1043  -51.4632    7.3539 C   0  0  0  0  0  0  0  0  0  0  0  0
   -6.2409  -50.5463    7.3989 O   0  0  0  0  0  0  0  0  0  0  0  0
  1  2  1  1  0  0  0
  1  8  1  0  0  0  0
  1 36  1  0  0  0  0
  3  4  1  6  0  0  0
  3 10  1  0  0  0  0
  3 47  1  0  0  0  0
  5 11  1  0  0  0  0
  5 30  1  0  0  0  0
  5 38  1  1  0  0  0
  6 21  1  1  0  0  0
  6 42  1  0  0  0  0
  7 15  1  0  0  0  0
  7 44  1  0  0  0  0
  7 32  1  1  0  0  0
  8  9  1  1  0  0  0
  8 17  1  0  0  0  0
 11 12  1  6  0  0  0
 11 20  1  0  0  0  0
 13  6  1  0  0  0  0
 13 14  1  6  0  0  0
 15 16  1  6  0  0  0
 15 24  1  0  0  0  0
 17 26  1  0  0  0  0
 18 10  1  0  0  0  0
 18 19  1  1  0  0  0
 20 21  1  6  0  0  0
 20 29  1  0  0  0  0
 22 13  1  0  0  0  0
 22 23  1  1  0  0  0
 24 25  1  6  0  0  0
 24 33  1  0  0  0  0
 26 27  1  1  0  0  0
 26 35  1  0  0  0  0
 28  2  1  1  0  0  0
 28 18  1  0  0  0  0
 29 30  1  0  0  0  0
 29 39  1  1  0  0  0
 31 22  1  0  0  0  0
 31 32  1  1  0  0  0
 31 41  1  0  0  0  0
 33 34  1  6  0  0  0
 33 43  1  0  0  0  0
 35 36  1  0  0  0  0
 35 45  1  6  0  0  0
 37 28  1  0  0  0  0
 37 38  1  6  0  0  0
 39 40  1  0  0  0  0
 41 42  1  0  0  0  0
 41 49  1  6  0  0  0
 43 44  1  0  0  0  0
 43 51  1  1  0  0  0
 45 46  1  0  0  0  0
 47 37  1  0  0  0  0
 47 48  1  6  0  0  0
 49 50  1  0  0  0  0
 51 52  1  0  0  0  0
M  END
>  <CHROM.1>
-155.38135617,152.48517258,-127.46052437,-149.30699588,73.07357406,-166.52724331
176.12140819,-161.48121694,58.04365756,171.37968282,173.60620389,-52.70621545
1.37239726,-50.08124234,10.17802973,0.37763434,0.82498534,2.33271983

>  <Name>
2fd0_lig

>  <RI>
1.29864e+07

>  <Rbt.Current_Directory>
/home/itssahil/PROJECTS/Mol_Feturizer/New_Systems/rnas/2fd0

>  <Rbt.Executable>
rbdock ($Id: //depot/dev/client3/rdock/2013.1/src/exe/rbdock.cxx#4 $)

>  <Rbt.Library>
libRbt.so (2013.1, Build901 2013/11/27)

>  <Rbt.Parameter_File>
/export/apps/rDock/src/rDock_2013.1_src/data/scripts/dock_solv.prm

>  <Rbt.Receptor>
prm/pocket_docking_3.prm

>  <SCORE>
-10.9417

>  <SCORE.INTER>
-11.3412

>  <SCORE.INTER.CONST>
1

>  <SCORE.INTER.POLAR>
-1.76438

>  <SCORE.INTER.ROT>
12

>  <SCORE.INTER.SOLV>
12.1444

>  <SCORE.INTER.VDW>
-17.3277

>  <SCORE.INTER.norm>
-0.218101

>  <SCORE.INTRA>
0.399486

>  <SCORE.INTRA.DIHEDRAL>
-2.08227

>  <SCORE.INTRA.DIHEDRAL.0>
23.9727

>  <SCORE.INTRA.POLAR>
0

>  <SCORE.INTRA.POLAR.0>
0

>  <SCORE.INTRA.REPUL>
0

>  <SCORE.INTRA.REPUL.0>
0

>  <SCORE.INTRA.SOLV>
-2.25456

>  <SCORE.INTRA.SOLV.lig_0>
-115.028

>  <SCORE.INTRA.VDW>
2.5679

>  <SCORE.INTRA.VDW.0>
-6.82393

>  <SCORE.INTRA.norm>
0.00768242

>  <SCORE.RESTR>
0

>  <SCORE.RESTR.CAVITY>
0

>  <SCORE.RESTR.norm>
0

>  <SCORE.SYSTEM>
0

>  <SCORE.SYSTEM.CONST>
0

>  <SCORE.SYSTEM.DIHEDRAL>
0

>  <SCORE.SYSTEM.SOLV>
0

>  <SCORE.SYSTEM.norm>
0

>  <SCORE.heavy>
52

>  <SCORE.norm>
-0.210418

>  <RMSD>
2.107

$$$$
2fd0_lig
 OpenBabel11021811433D
libRbt.so/2013.1/901 2013/11/27
 52 56  0  0  0  0  0  0  0  0999 V2000
    4.9118  -49.8887   14.9857 C   0  0  2  0  0  0  0  0  0  0  0  0
    5.3786  -48.5379   15.1056 O   0  0  0  0  0  0  0  0  0  0  0  0
    7.0665  -45.5226   12.4690 C   0  0  2  0  0  0  0  0  0  0  0  0
    7.9729  -44.8291   11.5392 N   0  0  0  0  0  0  0  0  0  0  0  0
    3.8784  -49.0480   11.6629 C   0  0  1  0  0  0  0  0  0  0  0  0
    1.4656  -49.8970    9.5982 C   0  0  1  0  0  0  0  0  0  0  0  0
   -1.2300  -49.8467    5.2966 C   0  0  1  0  0  0  0  0  0  0  0  0
    3.9576  -50.1972   16.1964 C   0  0  2  0  0  0  0  0  0  0  0  0
    2.8455  -49.2593   16.2634 N   0  0  0  0  0  0  0  0  0  0  0  0
    7.8317  -45.8897   13.8153 C   0  0  0  0  0  0  0  0  0  0  0  0
    3.8014  -50.5014   11.2323 C   0  0  2  0  0  0  0  0  0  0  0  0
    4.1979  -50.6870    9.8443 O   0  0  0  0  0  0  0  0  0  0  0  0
   -0.0404  -49.3753    9.7361 C   0  0  2  0  0  0  0  0  0  0  0  0
   -1.0017  -50.4796    9.4682 N   0  0  0  0  0  0  0  0  0  0  0  0
   -2.4812  -48.9450    5.2005 C   0  0  1  0  0  0  0  0  0  0  0  0
   -2.0602  -47.5615    5.1090 O   0  0  0  0  0  0  0  0  0  0  0  0
    4.7711  -50.2188   17.5434 C   0  0  0  0  0  0  0  0  0  0  0  0
    6.8398  -46.6348   14.8305 C   0  0  2  0  0  0  0  0  0  0  0  0
    7.5238  -46.9878   16.0832 N   0  0  0  0  0  0  0  0  0  0  0  0
    2.3708  -50.8819   11.5745 C   0  0  2  0  0  0  0  0  0  0  0  0
    1.5868  -51.0206   10.4208 O   0  0  0  0  0  0  0  0  0  0  0  0
   -0.1894  -48.0770    8.7857 C   0  0  1  0  0  0  0  0  0  0  0  0
    0.8010  -47.1145    9.1904 O   0  0  0  0  0  0  0  0  0  0  0  0
   -3.4765  -49.2238    4.0419 C   0  0  1  0  0  0  0  0  0  0  0  0
   -3.1173  -48.3817    2.9391 O   0  0  0  0  0  0  0  0  0  0  0  0
    5.9380  -51.2499   17.4023 C   0  0  2  0  0  0  0  0  0  0  0  0
    6.6895  -51.3130   18.6103 O   0  0  0  0  0  0  0  0  0  0  0  0
    6.2796  -47.9141   14.1484 C   0  0  2  0  0  0  0  0  0  0  0  0
    1.7257  -49.7208   12.3684 C   0  0  2  0  0  0  0  0  0  0  0  0
    2.8270  -48.8522   12.5924 O   0  0  0  0  0  0  0  0  0  0  0  0
    0.1155  -48.4262    7.2367 C   0  0  2  0  0  0  0  0  0  0  0  0
   -0.9054  -49.3743    6.8727 O   0  0  0  0  0  0  0  0  0  0  0  0
   -3.5514  -50.6868    3.5471 C   0  0  2  0  0  0  0  0  0  0  0  0
   -4.9531  -50.9524    3.3208 O   0  0  0  0  0  0  0  0  0  0  0  0
    6.8622  -50.8275   16.2245 C   0  0  2  0  0  0  0  0  0  0  0  0
    6.0484  -50.7906   14.9893 O   0  0  0  0  0  0  0  0  0  0  0  0
    5.5692  -47.6140   12.7933 C   0  0  2  0  0  0  0  0  0  0  0  0
    5.1345  -48.8792   12.2398 O   0  0  0  0  0  0  0  0  0  0  0  0
    1.1390  -50.1094   13.7208 C   0  0  0  0  0  0  0  0  0  0  0  0
    0.1316  -51.1018   13.4730 O   0  0  0  0  0  0  0  0  0  0  0  0
    1.4566  -49.1354    7.2335 C   0  0  1  0  0  0  0  0  0  0  0  0
    1.8221  -50.2036    8.1320 O   0  0  0  0  0  0  0  0  0  0  0  0
   -2.9039  -51.6383    4.5496 C   0  0  2  0  0  0  0  0  0  0  0  0
   -1.5615  -51.2636    4.9656 O   0  0  0  0  0  0  0  0  0  0  0  0
    7.9823  -51.7960   16.0134 C   0  0  0  0  0  0  0  0  0  0  0  0
    7.4317  -53.0053   15.5660 O   0  0  0  0  0  0  0  0  0  0  0  0
    6.5549  -46.8708   11.8194 C   0  0  1  0  0  0  0  0  0  0  0  0
    5.8367  -46.5591   10.5758 O   0  0  0  0  0  0  0  0  0  0  0  0
    1.9077  -49.6001    5.8035 C   0  0  0  0  0  0  0  0  0  0  0  0
    3.3125  -50.0720    5.7471 N   0  0  0  0  0  0  0  0  0  0  0  0
   -2.8304  -53.1437    4.3043 C   0  0  0  0  0  0  0  0  0  0  0  0
   -4.1720  -53.6976    4.1376 O   0  0  0  0  0  0  0  0  0  0  0  0
  1  2  1  1  0  0  0
  1  8  1  0  0  0  0
  1 36  1  0  0  0  0
  3  4  1  6  0  0  0
  3 10  1  0  0  0  0
  3 47  1  0  0  0  0
  5 11  1  0  0  0  0
  5 30  1  0  0  0  0
  5 38  1  1  0  0  0
  6 21  1  1  0  0  0
  6 42  1  0  0  0  0
  7 15  1  0  0  0  0
  7 44  1  0  0  0  0
  7 32  1  1  0  0  0
  8  9  1  1  0  0  0
  8 17  1  0  0  0  0
 11 12  1  6  0  0  0
 11 20  1  0  0  0  0
 13  6  1  0  0  0  0
 13 14  1  6  0  0  0
 15 16  1  6  0  0  0
 15 24  1  0  0  0  0
 17 26  1  0  0  0  0
 18 10  1  0  0  0  0
 18 19  1  1  0  0  0
 20 21  1  6  0  0  0
 20 29  1  0  0  0  0
 22 13  1  0  0  0  0
 22 23  1  1  0  0  0
 24 25  1  6  0  0  0
 24 33  1  0  0  0  0
 26 27  1  1  0  0  0
 26 35  1  0  0  0  0
 28  2  1  1  0  0  0
 28 18  1  0  0  0  0
 29 30  1  0  0  0  0
 29 39  1  1  0  0  0
 31 22  1  0  0  0  0
 31 32  1  1  0  0  0
 31 41  1  0  0  0  0
 33 34  1  1  0  0  0
 33 43  1  0  0  0  0
 35 36  1  0  0  0  0
 35 45  1  6  0  0  0
 37 28  1  0  0  0  0
 37 38  1  6  0  0  0
 39 40  1  0  0  0  0
 41 42  1  0  0  0  0
 41 49  1  6  0  0  0
 43 44  1  0  0  0  0
 43 51  1  6  0  0  0
 45 46  1  0  0  0  0
 47 37  1  0  0  0  0
 47 48  1  6  0  0  0
 49 50  1  0  0  0  0
 51 52  1  0  0  0  0
M  END
>  <CHROM.1>
-179.71675128,-179.02118026,-109.92677904,-102.36214108,-59.72582828,-164.61486611
-59.52380053,167.95135873,67.14206668,136.74103328,169.62750302,-58.76056040
2.41891099,-49.52719586,10.56945104,0.58478038,0.70988973,2.24584868

>  <Name>
2fd0_lig

>  <RI>
1.29864e+07

>  <Rbt.Current_Directory>
/home/itssahil/PROJECTS/Mol_Feturizer/New_Systems/rnas/2fd0

>  <Rbt.Executable>
rbdock ($Id: //depot/dev/client3/rdock/2013.1/src/exe/rbdock.cxx#4 $)

>  <Rbt.Library>
libRbt.so (2013.1, Build901 2013/11/27)

>  <Rbt.Parameter_File>
/export/apps/rDock/src/rDock_2013.1_src/data/scripts/dock_solv.prm

>  <Rbt.Receptor>
prm/pocket_docking_3.prm

>  <SCORE>
-18.4234

>  <SCORE.INTER>
-17.7816

>  <SCORE.INTER.CONST>
1

>  <SCORE.INTER.POLAR>
-1.35561

>  <SCORE.INTER.ROT>
12

>  <SCORE.INTER.SOLV>
21.5072

>  <SCORE.INTER.VDW>
-26.1047

>  <SCORE.INTER.norm>
-0.341953

>  <SCORE.INTRA>
-0.678113

>  <SCORE.INTRA.DIHEDRAL>
-1.70299

>  <SCORE.INTRA.DIHEDRAL.0>
23.9727

>  <SCORE.INTRA.POLAR>
0

>  <SCORE.INTRA.POLAR.0>
0

>  <SCORE.INTRA.REPUL>
0

>  <SCORE.INTRA.REPUL.0>
0

>  <SCORE.INTRA.SOLV>
-2.09815

>  <SCORE.INTRA.SOLV.lig_0>
-115.028

>  <SCORE.INTRA.VDW>
1.22245

>  <SCORE.INTRA.VDW.0>
-6.82393

>  <SCORE.INTRA.norm>
-0.0130406

>  <SCORE.RESTR>
0.0362777

>  <SCORE.RESTR.CAVITY>
0.0362777

>  <SCORE.RESTR.norm>
0.000697647

>  <SCORE.SYSTEM>
0

>  <SCORE.SYSTEM.CONST>
0

>  <SCORE.SYSTEM.DIHEDRAL>
0

>  <SCORE.SYSTEM.SOLV>
0

>  <SCORE.SYSTEM.norm>
0

>  <SCORE.heavy>
52

>  <SCORE.norm>
-0.354296

>  <RMSD>
2.131

$$$$
2fd0_lig
 OpenBabel11021811433D
libRbt.so/2013.1/901 2013/11/27
 52 56  0  0  0  0  0  0  0  0999 V2000
    5.0833  -49.6662   15.1298 C   0  0  2  0  0  0  0  0  0  0  0  0
    5.7595  -48.4433   15.4528 O   0  0  0  0  0  0  0  0  0  0  0  0
    8.0278  -45.3400   13.4237 C   0  0  2  0  0  0  0  0  0  0  0  0
    9.0445  -44.6641   12.6013 N   0  0  0  0  0  0  0  0  0  0  0  0
    4.4815  -47.6731   11.6005 C   0  0  1  0  0  0  0  0  0  0  0  0
    1.9978  -49.6603    8.8980 C   0  0  1  0  0  0  0  0  0  0  0  0
   -0.6160  -50.1856    4.9009 C   0  0  1  0  0  0  0  0  0  0  0  0
    3.9313  -49.8917   16.1754 C   0  0  2  0  0  0  0  0  0  0  0  0
    3.0034  -48.7698   16.2107 N   0  0  0  0  0  0  0  0  0  0  0  0
    8.7235  -46.1706   14.5895 C   0  0  0  0  0  0  0  0  0  0  0  0
    3.7743  -48.9452   11.1701 C   0  0  2  0  0  0  0  0  0  0  0  0
    4.4274  -49.5828   10.0365 O   0  0  0  0  0  0  0  0  0  0  0  0
    1.9862  -49.3264    7.3334 C   0  0  2  0  0  0  0  0  0  0  0  0
    0.8863  -48.3769    7.0108 N   0  0  0  0  0  0  0  0  0  0  0  0
   -2.1342  -49.9402    5.0514 C   0  0  1  0  0  0  0  0  0  0  0  0
   -2.3444  -48.8035    5.9253 O   0  0  0  0  0  0  0  0  0  0  0  0
    4.5336  -50.1824   17.5999 C   0  0  0  0  0  0  0  0  0  0  0  0
    7.6140  -46.8966   15.4903 C   0  0  2  0  0  0  0  0  0  0  0  0
    8.2314  -47.6742   16.5747 N   0  0  0  0  0  0  0  0  0  0  0  0
    2.3460  -48.4796   10.9424 C   0  0  2  0  0  0  0  0  0  0  0  0
    2.0311  -48.4391    9.5771 O   0  0  0  0  0  0  0  0  0  0  0  0
    1.9455  -50.7339    6.5408 C   0  0  1  0  0  0  0  0  0  0  0  0
    3.0789  -51.5140    6.9626 O   0  0  0  0  0  0  0  0  0  0  0  0
   -2.9534  -49.7081    3.7529 C   0  0  1  0  0  0  0  0  0  0  0  0
   -3.0220  -48.2955    3.5208 O   0  0  0  0  0  0  0  0  0  0  0  0
    5.5088  -51.3995   17.4878 C   0  0  2  0  0  0  0  0  0  0  0  0
    6.0627  -51.7070   18.7632 O   0  0  0  0  0  0  0  0  0  0  0  0
    6.7542  -47.8259   14.5887 C   0  0  2  0  0  0  0  0  0  0  0  0
    2.2171  -47.0180   11.4339 C   0  0  2  0  0  0  0  0  0  0  0  0
    3.4714  -46.7926   12.0612 O   0  0  0  0  0  0  0  0  0  0  0  0
    0.6298  -51.5969    6.9129 C   0  0  2  0  0  0  0  0  0  0  0  0
   -0.4723  -50.7888    6.4591 O   0  0  0  0  0  0  0  0  0  0  0  0
   -2.4154  -50.3965    2.4773 C   0  0  2  0  0  0  0  0  0  0  0  0
   -3.5777  -50.9045    1.7864 O   0  0  0  0  0  0  0  0  0  0  0  0
    6.6471  -51.0597   16.4836 C   0  0  2  0  0  0  0  0  0  0  0  0
    6.0317  -50.7635   15.1709 O   0  0  0  0  0  0  0  0  0  0  0  0
    6.0959  -47.0686   13.3953 C   0  0  2  0  0  0  0  0  0  0  0  0
    5.3650  -48.0421   12.6116 O   0  0  0  0  0  0  0  0  0  0  0  0
    1.1171  -46.7756   12.4613 C   0  0  0  0  0  0  0  0  0  0  0  0
   -0.1278  -47.1187   11.8338 O   0  0  0  0  0  0  0  0  0  0  0  0
    0.5940  -51.6554    8.4284 C   0  0  1  0  0  0  0  0  0  0  0  0
    0.7849  -50.5200    9.2982 O   0  0  0  0  0  0  0  0  0  0  0  0
   -1.3928  -51.4747    2.8261 C   0  0  2  0  0  0  0  0  0  0  0  0
   -0.3244  -51.0375    3.7108 O   0  0  0  0  0  0  0  0  0  0  0  0
    7.5974  -52.2006   16.3036 C   0  0  0  0  0  0  0  0  0  0  0  0
    8.7610  -51.7047   15.6989 O   0  0  0  0  0  0  0  0  0  0  0  0
    7.2002  -46.3528   12.5345 C   0  0  1  0  0  0  0  0  0  0  0  0
    6.5401  -45.6089   11.4526 O   0  0  0  0  0  0  0  0  0  0  0  0
   -0.6547  -52.4242    8.9888 C   0  0  0  0  0  0  0  0  0  0  0  0
   -0.7255  -53.8403    8.5543 N   0  0  0  0  0  0  0  0  0  0  0  0
   -0.6943  -52.3046    1.7513 C   0  0  0  0  0  0  0  0  0  0  0  0
    0.1775  -51.4571    0.9412 O   0  0  0  0  0  0  0  0  0  0  0  0
  1  2  1  1  0  0  0
  1  8  1  0  0  0  0
  1 36  1  0  0  0  0
  3  4  1  6  0  0  0
  3 10  1  0  0  0  0
  3 47  1  0  0  0  0
  5 11  1  0  0  0  0
  5 30  1  0  0  0  0
  5 38  1  1  0  0  0
  6 21  1  1  0  0  0
  6 42  1  0  0  0  0
  7 15  1  0  0  0  0
  7 44  1  0  0  0  0
  7 32  1  1  0  0  0
  8  9  1  1  0  0  0
  8 17  1  0  0  0  0
 11 12  1  6  0  0  0
 11 20  1  0  0  0  0
 13  6  1  0  0  0  0
 13 14  1  1  0  0  0
 15 16  1  1  0  0  0
 15 24  1  0  0  0  0
 17 26  1  0  0  0  0
 18 10  1  0  0  0  0
 18 19  1  1  0  0  0
 20 21  1  6  0  0  0
 20 29  1  0  0  0  0
 22 13  1  0  0  0  0
 22 23  1  1  0  0  0
 24 25  1  6  0  0  0
 24 33  1  0  0  0  0
 26 27  1  1  0  0  0
 26 35  1  0  0  0  0
 28  2  1  1  0  0  0
 28 18  1  0  0  0  0
 29 30  1  0  0  0  0
 29 39  1  1  0  0  0
 31 22  1  0  0  0  0
 31 32  1  1  0  0  0
 31 41  1  0  0  0  0
 33 34  1  1  0  0  0
 33 43  1  0  0  0  0
 35 36  1  0  0  0  0
 35 45  1  6  0  0  0
 37 28  1  0  0  0  0
 37 38  1  6  0  0  0
 39 40  1  0  0  0  0
 41 42  1  0  0  0  0
 41 49  1  6  0  0  0
 43 44  1  0  0  0  0
 43 51  1  6  0  0  0
 45 46  1  0  0  0  0
 47 37  1  0  0  0  0
 47 48  1  6  0  0  0
 49 50  1  0  0  0  0
 51 52  1  0  0  0  0
M  END
>  <CHROM.1>
-170.97035037,-171.77828223,-166.13048712,160.93591946,65.91652075,-158.30722122
-61.23006351,53.54020606,-163.93505570,169.19760971,60.63277749,66.20389672
2.87746037,-49.38136460,10.36202697,0.50694515,0.86667229,2.34683092

>  <Name>
2fd0_lig

>  <RI>
0

>  <Rbt.Current_Directory>
/home/itssahil/PROJECTS/Mol_Feturizer/New_Systems/rnas/2fd0

>  <Rbt.Executable>
rbdock ($Id: //depot/dev/client3/rdock/2013.1/src/exe/rbdock.cxx#4 $)

>  <Rbt.Library>
libRbt.so (2013.1, Build901 2013/11/27)

>  <Rbt.Parameter_File>
/export/apps/rDock/src/rDock_2013.1_src/data/scripts/dock_solv.prm

>  <Rbt.Receptor>
prm/pocket_docking_5.prm

>  <SCORE>
-26.9715

>  <SCORE.INTER>
-19.1858

>  <SCORE.INTER.CONST>
1

>  <SCORE.INTER.POLAR>
-1.83251

>  <SCORE.INTER.ROT>
12

>  <SCORE.INTER.SOLV>
14.8739

>  <SCORE.INTER.VDW>
-23.2401

>  <SCORE.INTER.norm>
-0.368958

>  <SCORE.INTRA>
-7.78568

>  <SCORE.INTRA.DIHEDRAL>
-14.9829

>  <SCORE.INTRA.DIHEDRAL.0>
23.9727

>  <SCORE.INTRA.POLAR>
0

>  <SCORE.INTRA.POLAR.0>
0

>  <SCORE.INTRA.REPUL>
0

>  <SCORE.INTRA.REPUL.0>
0

>  <SCORE.INTRA.SOLV>
-3.38379

>  <SCORE.INTRA.SOLV.lig_0>
-115.028

>  <SCORE.INTRA.VDW>
1.39764

>  <SCORE.INTRA.VDW.0>
-6.82393

>  <SCORE.INTRA.norm>
-0.149725

>  <SCORE.RESTR>
0

>  <SCORE.RESTR.CAVITY>
0

>  <SCORE.RESTR.norm>
0

>  <SCORE.SYSTEM>
0

>  <SCORE.SYSTEM.CONST>
0

>  <SCORE.SYSTEM.DIHEDRAL>
0

>  <SCORE.SYSTEM.SOLV>
0

>  <SCORE.SYSTEM.norm>
0

>  <SCORE.heavy>
52

>  <SCORE.norm>
-0.518682

>  <RMSD>
2.138

$$$$
2fd0_lig
 OpenBabel11021811433D
libRbt.so/2013.1/901 2013/11/27
 52 56  0  0  0  0  0  0  0  0999 V2000
    4.2785  -49.8702   14.9688 C   0  0  2  0  0  0  0  0  0  0  0  0
    4.9322  -48.6499   14.5941 O   0  0  0  0  0  0  0  0  0  0  0  0
    5.1848  -45.8921   11.2440 C   0  0  2  0  0  0  0  0  0  0  0  0
    5.3219  -45.3632    9.8771 N   0  0  0  0  0  0  0  0  0  0  0  0
    2.4156  -49.3218   11.9620 C   0  0  1  0  0  0  0  0  0  0  0  0
    0.7867  -50.9754    8.1402 C   0  0  1  0  0  0  0  0  0  0  0  0
   -3.2086  -51.5101    4.6589 C   0  0  1  0  0  0  0  0  0  0  0  0
    3.6910  -49.6985   16.4168 C   0  0  2  0  0  0  0  0  0  0  0  0
    2.7804  -48.5651   16.5019 N   0  0  0  0  0  0  0  0  0  0  0  0
    6.4624  -46.7583   11.6317 C   0  0  0  0  0  0  0  0  0  0  0  0
    1.0947  -49.0180   11.2790 C   0  0  2  0  0  0  0  0  0  0  0  0
   -0.0247  -49.6945   11.9174 O   0  0  0  0  0  0  0  0  0  0  0  0
    0.1505  -49.8000    7.2610 C   0  0  2  0  0  0  0  0  0  0  0  0
   -1.2140  -49.4623    7.7504 N   0  0  0  0  0  0  0  0  0  0  0  0
   -3.9909  -50.3035    5.2243 C   0  0  1  0  0  0  0  0  0  0  0  0
   -3.3344  -49.0795    4.8109 O   0  0  0  0  0  0  0  0  0  0  0  0
    4.8546  -49.5792   17.4695 C   0  0  0  0  0  0  0  0  0  0  0  0
    6.3158  -47.3238   13.1244 C   0  0  2  0  0  0  0  0  0  0  0  0
    7.4836  -48.1311   13.5070 N   0  0  0  0  0  0  0  0  0  0  0  0
    1.3655  -49.3952    9.8323 C   0  0  2  0  0  0  0  0  0  0  0  0
    0.7023  -50.5781    9.4777 O   0  0  0  0  0  0  0  0  0  0  0  0
    0.2423  -50.2529    5.7126 C   0  0  1  0  0  0  0  0  0  0  0  0
    1.6227  -50.5258    5.4109 O   0  0  0  0  0  0  0  0  0  0  0  0
   -5.4955  -50.1912    4.8576 C   0  0  1  0  0  0  0  0  0  0  0  0
   -5.6048  -49.3695    3.6883 O   0  0  0  0  0  0  0  0  0  0  0  0
    5.7831  -50.8292   17.3273 C   0  0  2  0  0  0  0  0  0  0  0  0
    6.8418  -50.7682   18.2778 O   0  0  0  0  0  0  0  0  0  0  0  0
    5.0208  -48.1779   13.2206 C   0  0  2  0  0  0  0  0  0  0  0  0
    2.8724  -49.7103    9.6762 C   0  0  2  0  0  0  0  0  0  0  0  0
    3.3980  -49.3339   10.9409 O   0  0  0  0  0  0  0  0  0  0  0  0
   -0.5679  -51.6248    5.4373 C   0  0  2  0  0  0  0  0  0  0  0  0
   -1.9390  -51.3001    5.7344 O   0  0  0  0  0  0  0  0  0  0  0  0
   -6.2338  -51.5249    4.5994 C   0  0  2  0  0  0  0  0  0  0  0  0
   -7.5271  -51.3847    5.2272 O   0  0  0  0  0  0  0  0  0  0  0  0
    6.3668  -50.8789   15.8862 C   0  0  2  0  0  0  0  0  0  0  0  0
    5.2377  -50.9583   14.9331 O   0  0  0  0  0  0  0  0  0  0  0  0
    3.7448  -47.3898   12.7946 C   0  0  2  0  0  0  0  0  0  0  0  0
    2.6214  -48.2986   12.8838 O   0  0  0  0  0  0  0  0  0  0  0  0
    3.5931  -48.9070    8.5993 C   0  0  0  0  0  0  0  0  0  0  0  0
    3.3408  -47.5197    8.8697 O   0  0  0  0  0  0  0  0  0  0  0  0
   -0.0687  -52.6104    6.4769 C   0  0  1  0  0  0  0  0  0  0  0  0
    0.0772  -52.3173    7.8822 O   0  0  0  0  0  0  0  0  0  0  0  0
   -5.4259  -52.7091    5.1235 C   0  0  2  0  0  0  0  0  0  0  0  0
   -4.0422  -52.7478    4.6771 O   0  0  0  0  0  0  0  0  0  0  0  0
    7.2385  -52.0756   15.6735 C   0  0  0  0  0  0  0  0  0  0  0  0
    8.4175  -51.8897   16.4091 O   0  0  0  0  0  0  0  0  0  0  0  0
    3.9163  -46.8324   11.3343 C   0  0  1  0  0  0  0  0  0  0  0  0
    2.7193  -46.0537   10.9877 O   0  0  0  0  0  0  0  0  0  0  0  0
   -0.7815  -54.0069    6.3984 C   0  0  0  0  0  0  0  0  0  0  0  0
   -0.7710  -54.7528    7.6802 N   0  0  0  0  0  0  0  0  0  0  0  0
   -5.9197  -54.1478    4.9890 C   0  0  0  0  0  0  0  0  0  0  0  0
   -4.9772  -55.0696    5.6187 O   0  0  0  0  0  0  0  0  0  0  0  0
  1  2  1  1  0  0  0
  1  8  1  0  0  0  0
  1 36  1  0  0  0  0
  3  4  1  6  0  0  0
  3 10  1  0  0  0  0
  3 47  1  0  0  0  0
  5 11  1  0  0  0  0
  5 30  1  0  0  0  0
  5 38  1  1  0  0  0
  6 21  1  1  0  0  0
  6 42  1  0  0  0  0
  7 15  1  0  0  0  0
  7 44  1  0  0  0  0
  7 32  1  1  0  0  0
  8  9  1  6  0  0  0
  8 17  1  0  0  0  0
 11 12  1  1  0  0  0
 11 20  1  0  0  0  0
 13  6  1  0  0  0  0
 13 14  1  1  0  0  0
 15 16  1  6  0  0  0
 15 24  1  0  0  0  0
 17 26  1  0  0  0  0
 18 10  1  0  0  0  0
 18 19  1  6  0  0  0
 20 21  1  1  0  0  0
 20 29  1  0  0  0  0
 22 13  1  0  0  0  0
 22 23  1  1  0  0  0
 24 25  1  6  0  0  0
 24 33  1  0  0  0  0
 26 27  1  1  0  0  0
 26 35  1  0  0  0  0
 28  2  1  1  0  0  0
 28 18  1  0  0  0  0
 29 30  1  0  0  0  0
 29 39  1  6  0  0  0
 31 22  1  0  0  0  0
 31 32  1  1  0  0  0
 31 41  1  0  0  0  0
 33 34  1  1  0  0  0
 33 43  1  0  0  0  0
 35 36  1  0  0  0  0
 35 45  1  1  0  0  0
 37 28  1  0  0  0  0
 37 38  1  6  0  0  0
 39 40  1  0  0  0  0
 41 42  1  0  0  0  0
 41 49  1  1  0  0  0
 43 44  1  0  0  0  0
 43 51  1  6  0  0  0
 45 46  1  0  0  0  0
 47 37  1  0  0  0  0
 47 48  1  1  0  0  0
 49 50  1  0  0  0  0
 51 52  1  0  0  0  0
M  END
>  <CHROM.1>
-149.45834872,-117.33158039,-60.02745484,-148.47282614,175.11136298,-151.88752442
53.80311742,124.51362212,-70.71074963,-73.36346486,-155.04333587,-177.86484669
1.31358933,-50.07966541,9.96481643,0.32015939,0.75531869,2.43585264

>  <Name>
2fd0_lig

>  <RI>
2.89522e+07

>  <Rbt.Current_Directory>
/home/itssahil/PROJECTS/Mol_Feturizer/New_Systems/rnas/2fd0

>  <Rbt.Executable>
rbdock ($Id: //depot/dev/client3/rdock/2013.1/src/exe/rbdock.cxx#4 $)

>  <Rbt.Library>
libRbt.so (2013.1, Build901 2013/11/27)

>  <Rbt.Parameter_File>
/export/apps/rDock/src/rDock_2013.1_src/data/scripts/dock_solv.prm

>  <Rbt.Receptor>
prm/pocket_docking_2.prm

>  <SCORE>
-4.78253

>  <SCORE.INTER>
-12.7299

>  <SCORE.INTER.CONST>
1

>  <SCORE.INTER.POLAR>
-1.84808

>  <SCORE.INTER.ROT>
12

>  <SCORE.INTER.SOLV>
18.6007

>  <SCORE.INTER.VDW>
-20.1266

>  <SCORE.INTER.norm>
-0.244806

>  <SCORE.INTRA>
6.81766

>  <SCORE.INTRA.DIHEDRAL>
5.0167

>  <SCORE.INTRA.DIHEDRAL.0>
23.9727

>  <SCORE.INTRA.POLAR>
0

>  <SCORE.INTRA.POLAR.0>
0

>  <SCORE.INTRA.REPUL>
0

>  <SCORE.INTRA.REPUL.0>
0

>  <SCORE.INTRA.SOLV>
1.02538

>  <SCORE.INTRA.SOLV.lig_0>
-115.028

>  <SCORE.INTRA.VDW>
3.79662

>  <SCORE.INTRA.VDW.0>
-6.82393

>  <SCORE.INTRA.norm>
0.131109

>  <SCORE.RESTR>
1.12973

>  <SCORE.RESTR.CAVITY>
1.12973

>  <SCORE.RESTR.norm>
0.0217256

>  <SCORE.SYSTEM>
0

>  <SCORE.SYSTEM.CONST>
0

>  <SCORE.SYSTEM.DIHEDRAL>
0

>  <SCORE.SYSTEM.SOLV>
0

>  <SCORE.SYSTEM.norm>
0

>  <SCORE.heavy>
52

>  <SCORE.norm>
-0.0919716

>  <RMSD>
2.168

$$$$
2fd0_lig
 OpenBabel11021811433D
libRbt.so/2013.1/901 2013/11/27
 52 56  0  0  0  0  0  0  0  0999 V2000
    4.1953  -49.5923   14.6037 C   0  0  2  0  0  0  0  0  0  0  0  0
    4.7411  -48.2671   14.6567 O   0  0  0  0  0  0  0  0  0  0  0  0
    4.6653  -45.0597   11.7243 C   0  0  2  0  0  0  0  0  0  0  0  0
    5.0064  -44.2167   10.5667 N   0  0  0  0  0  0  0  0  0  0  0  0
    2.4740  -49.0936   11.2900 C   0  0  1  0  0  0  0  0  0  0  0  0
    0.9247  -51.5690    7.7521 C   0  0  1  0  0  0  0  0  0  0  0  0
   -3.5178  -52.5265    5.1580 C   0  0  1  0  0  0  0  0  0  0  0  0
    3.2102  -49.7760   15.8151 C   0  0  2  0  0  0  0  0  0  0  0  0
    2.1560  -48.7714   15.8142 N   0  0  0  0  0  0  0  0  0  0  0  0
    5.9133  -45.1835   12.7041 C   0  0  0  0  0  0  0  0  0  0  0  0
    2.9841  -49.7279   10.0090 C   0  0  2  0  0  0  0  0  0  0  0  0
    3.1333  -48.7577    8.9345 O   0  0  0  0  0  0  0  0  0  0  0  0
    0.2187  -50.8973    6.4832 C   0  0  2  0  0  0  0  0  0  0  0  0
   -0.9911  -50.1376    6.9007 N   0  0  0  0  0  0  0  0  0  0  0  0
   -4.2363  -51.4023    5.9375 C   0  0  1  0  0  0  0  0  0  0  0  0
   -3.5146  -50.1602    5.7472 O   0  0  0  0  0  0  0  0  0  0  0  0
    4.0052  -49.7715   17.1731 C   0  0  0  0  0  0  0  0  0  0  0  0
    5.5360  -46.0926   13.9692 C   0  0  2  0  0  0  0  0  0  0  0  0
    6.6745  -46.2254   14.8902 N   0  0  0  0  0  0  0  0  0  0  0  0
    1.9869  -50.8477    9.7637 C   0  0  2  0  0  0  0  0  0  0  0  0
    1.1387  -50.5526    8.6874 O   0  0  0  0  0  0  0  0  0  0  0  0
   -0.0342  -52.0670    5.3974 C   0  0  1  0  0  0  0  0  0  0  0  0
    1.2335  -52.6811    5.1029 O   0  0  0  0  0  0  0  0  0  0  0  0
   -5.7319  -51.1463    5.6078 C   0  0  1  0  0  0  0  0  0  0  0  0
   -5.7943  -50.1224    4.6069 O   0  0  0  0  0  0  0  0  0  0  0  0
    5.1094  -50.8765   17.1059 C   0  0  2  0  0  0  0  0  0  0  0  0
    5.8417  -50.9172   18.3267 O   0  0  0  0  0  0  0  0  0  0  0  0
    5.0839  -47.4942   13.4725 C   0  0  2  0  0  0  0  0  0  0  0  0
    1.0574  -50.9620   10.9955 C   0  0  2  0  0  0  0  0  0  0  0  0
    1.6603  -50.0678   11.9199 O   0  0  0  0  0  0  0  0  0  0  0  0
   -0.9861  -53.2359    5.9821 C   0  0  2  0  0  0  0  0  0  0  0  0
   -2.2417  -52.5816    6.2447 O   0  0  0  0  0  0  0  0  0  0  0  0
   -6.5394  -52.3706    5.1183 C   0  0  2  0  0  0  0  0  0  0  0  0
   -7.8250  -52.2780    5.7703 O   0  0  0  0  0  0  0  0  0  0  0  0
    6.0710  -50.5756   15.9208 C   0  0  2  0  0  0  0  0  0  0  0  0
    5.2754  -50.5586   14.6734 O   0  0  0  0  0  0  0  0  0  0  0  0
    3.8980  -47.4233   12.4627 C   0  0  2  0  0  0  0  0  0  0  0  0
    3.6015  -48.7769   12.0433 O   0  0  0  0  0  0  0  0  0  0  0  0
    0.9984  -52.3446   11.6353 C   0  0  0  0  0  0  0  0  0  0  0  0
    1.1199  -53.3045   10.5746 O   0  0  0  0  0  0  0  0  0  0  0  0
   -0.3675  -53.6434    7.3060 C   0  0  1  0  0  0  0  0  0  0  0  0
    0.0770  -52.7208    8.3225 O   0  0  0  0  0  0  0  0  0  0  0  0
   -5.7970  -53.6709    5.4143 C   0  0  2  0  0  0  0  0  0  0  0  0
   -4.4161  -53.7013    4.9584 O   0  0  0  0  0  0  0  0  0  0  0  0
    7.1331  -51.6192   15.7795 C   0  0  0  0  0  0  0  0  0  0  0  0
    7.9516  -51.5620   16.9163 O   0  0  0  0  0  0  0  0  0  0  0  0
    4.2845  -46.5157   11.2382 C   0  0  1  0  0  0  0  0  0  0  0  0
    3.1277  -46.4305   10.3361 O   0  0  0  0  0  0  0  0  0  0  0  0
   -1.1869  -54.7520    8.0570 C   0  0  0  0  0  0  0  0  0  0  0  0
   -0.6951  -55.0285    9.4285 N   0  0  0  0  0  0  0  0  0  0  0  0
   -6.3662  -55.0336    5.0257 C   0  0  0  0  0  0  0  0  0  0  0  0
   -6.4560  -55.1512    3.5722 O   0  0  0  0  0  0  0  0  0  0  0  0
  1  2  1  1  0  0  0
  1  8  1  0  0  0  0
  1 36  1  0  0  0  0
  3  4  1  6  0  0  0
  3 10  1  0  0  0  0
  3 47  1  0  0  0  0
  5 11  1  0  0  0  0
  5 30  1  0  0  0  0
  5 38  1  1  0  0  0
  6 21  1  1  0  0  0
  6 42  1  0  0  0  0
  7 15  1  0  0  0  0
  7 44  1  0  0  0  0
  7 32  1  1  0  0  0
  8  9  1  1  0  0  0
  8 17  1  0  0  0  0
 11 12  1  6  0  0  0
 11 20  1  0  0  0  0
 13  6  1  0  0  0  0
 13 14  1  1  0  0  0
 15 16  1  6  0  0  0
 15 24  1  0  0  0  0
 17 26  1  0  0  0  0
 18 10  1  0  0  0  0
 18 19  1  1  0  0  0
 20 21  1  6  0  0  0
 20 29  1  0  0  0  0
 22 13  1  0  0  0  0
 22 23  1  1  0  0  0
 24 25  1  6  0  0  0
 24 33  1  0  0  0  0
 26 27  1  1  0  0  0
 26 35  1  0  0  0  0
 28  2  1  1  0  0  0
 28 18  1  0  0  0  0
 29 30  1  0  0  0  0
 29 39  1  1  0  0  0
 31 22  1  0  0  0  0
 31 32  1  1  0  0  0
 31 41  1  0  0  0  0
 33 34  1  1  0  0  0
 33 43  1  0  0  0  0
 35 36  1  0  0  0  0
 35 45  1  6  0  0  0
 37 28  1  0  0  0  0
 37 38  1  6  0  0  0
 39 40  1  0  0  0  0
 41 42  1  0  0  0  0
 41 49  1  1  0  0  0
 43 44  1  0  0  0  0
 43 51  1  6  0  0  0
 45 46  1  0  0  0  0
 47 37  1  0  0  0  0
 47 48  1  6  0  0  0
 49 50  1  0  0  0  0
 51 52  1  0  0  0  0
M  END
>  <CHROM.1>
-146.72259381,120.92979847,-167.34726712,-165.12879772,134.22094976,175.85647962
-34.45522863,93.53796235,-65.50756739,170.62866141,-172.29600144,64.81210091
1.04461639,-50.57484147,10.12824856,0.09494990,0.81386550,2.59629245

>  <Name>
2fd0_lig

>  <RI>
1.29864e+07

>  <Rbt.Current_Directory>
/home/itssahil/PROJECTS/Mol_Feturizer/New_Systems/rnas/2fd0

>  <Rbt.Executable>
rbdock ($Id: //depot/dev/client3/rdock/2013.1/src/exe/rbdock.cxx#4 $)

>  <Rbt.Library>
libRbt.so (2013.1, Build901 2013/11/27)

>  <Rbt.Parameter_File>
/export/apps/rDock/src/rDock_2013.1_src/data/scripts/dock_solv.prm

>  <Rbt.Receptor>
prm/pocket_docking_3.prm

>  <SCORE>
-13.2226

>  <SCORE.INTER>
-16.5173

>  <SCORE.INTER.CONST>
1

>  <SCORE.INTER.POLAR>
-1.80864

>  <SCORE.INTER.ROT>
12

>  <SCORE.INTER.SOLV>
13.2492

>  <SCORE.INTER.VDW>
-20.9991

>  <SCORE.INTER.norm>
-0.317639

>  <SCORE.INTRA>
3.27476

>  <SCORE.INTRA.DIHEDRAL>
3.82888

>  <SCORE.INTRA.DIHEDRAL.0>
23.9727

>  <SCORE.INTRA.POLAR>
0

>  <SCORE.INTRA.POLAR.0>
0

>  <SCORE.INTRA.REPUL>
0

>  <SCORE.INTRA.REPUL.0>
0

>  <SCORE.INTRA.SOLV>
-0.186818

>  <SCORE.INTRA.SOLV.lig_0>
-115.028

>  <SCORE.INTRA.VDW>
1.45373

>  <SCORE.INTRA.VDW.0>
-6.82393

>  <SCORE.INTRA.norm>
0.0629761

>  <SCORE.RESTR>
0.0198581

>  <SCORE.RESTR.CAVITY>
0.0198581

>  <SCORE.RESTR.norm>
0.000381887

>  <SCORE.SYSTEM>
0

>  <SCORE.SYSTEM.CONST>
0

>  <SCORE.SYSTEM.DIHEDRAL>
0

>  <SCORE.SYSTEM.SOLV>
0

>  <SCORE.SYSTEM.norm>
0

>  <SCORE.heavy>
52

>  <SCORE.norm>
-0.254282

>  <RMSD>
2.168

$$$$
2fd0_lig
 OpenBabel11021811433D
libRbt.so/2013.1/901 2013/11/27
 52 56  0  0  0  0  0  0  0  0999 V2000
    5.6499  -49.8958   15.1591 C   0  0  2  0  0  0  0  0  0  0  0  0
    6.2995  -48.6840   15.5672 O   0  0  0  0  0  0  0  0  0  0  0  0
    7.3607  -44.8299   13.8606 C   0  0  2  0  0  0  0  0  0  0  0  0
    7.9308  -43.8055   12.9704 N   0  0  0  0  0  0  0  0  0  0  0  0
    5.0455  -48.0412   11.9312 C   0  0  1  0  0  0  0  0  0  0  0  0
    3.1047  -50.4629    8.8044 C   0  0  1  0  0  0  0  0  0  0  0  0
   -0.8985  -50.0037    5.3624 C   0  0  1  0  0  0  0  0  0  0  0  0
    4.4084  -50.1365   16.0931 C   0  0  2  0  0  0  0  0  0  0  0  0
    3.4856  -49.0103   16.0699 N   0  0  0  0  0  0  0  0  0  0  0  0
    8.5127  -45.7663   14.4340 C   0  0  0  0  0  0  0  0  0  0  0  0
    3.9209  -48.9831   11.5417 C   0  0  2  0  0  0  0  0  0  0  0  0
    4.2942  -50.3813   11.6962 O   0  0  0  0  0  0  0  0  0  0  0  0
    3.2880  -50.6992    7.2328 C   0  0  2  0  0  0  0  0  0  0  0  0
    3.1736  -49.4117    6.4948 N   0  0  0  0  0  0  0  0  0  0  0  0
   -1.5900  -49.2286    6.5065 C   0  0  1  0  0  0  0  0  0  0  0  0
   -0.9682  -47.9263    6.6375 O   0  0  0  0  0  0  0  0  0  0  0  0
    4.8805  -50.4608   17.5588 C   0  0  0  0  0  0  0  0  0  0  0  0
    7.8909  -46.8740   15.4116 C   0  0  2  0  0  0  0  0  0  0  0  0
    8.9355  -47.7552   15.9537 N   0  0  0  0  0  0  0  0  0  0  0  0
    3.5764  -48.5360   10.1310 C   0  0  2  0  0  0  0  0  0  0  0  0
    4.0114  -49.4666    9.1773 O   0  0  0  0  0  0  0  0  0  0  0  0
    2.2410  -51.8487    6.7932 C   0  0  1  0  0  0  0  0  0  0  0  0
    2.5018  -53.0162    7.5931 O   0  0  0  0  0  0  0  0  0  0  0  0
   -3.1255  -49.0217    6.4044 C   0  0  1  0  0  0  0  0  0  0  0  0
   -3.3594  -47.7579    5.7701 O   0  0  0  0  0  0  0  0  0  0  0  0
    5.8569  -51.6810   17.5077 C   0  0  2  0  0  0  0  0  0  0  0  0
    6.2939  -52.0187   18.8204 O   0  0  0  0  0  0  0  0  0  0  0  0
    6.8387  -47.7097   14.6306 C   0  0  2  0  0  0  0  0  0  0  0  0
    4.3570  -47.2370    9.8185 C   0  0  2  0  0  0  0  0  0  0  0  0
    4.9382  -46.9176   11.0746 O   0  0  0  0  0  0  0  0  0  0  0  0
    0.7119  -51.4179    7.0941 C   0  0  2  0  0  0  0  0  0  0  0  0
    0.4922  -50.2625    6.2632 O   0  0  0  0  0  0  0  0  0  0  0  0
   -3.9095  -50.1143    5.6413 C   0  0  2  0  0  0  0  0  0  0  0  0
   -5.1172  -50.3336    6.4027 O   0  0  0  0  0  0  0  0  0  0  0  0
    7.0814  -51.3268   16.6162 C   0  0  2  0  0  0  0  0  0  0  0  0
    6.5865  -50.9993   15.2607 O   0  0  0  0  0  0  0  0  0  0  0  0
    5.7171  -46.8300   13.9988 C   0  0  2  0  0  0  0  0  0  0  0  0
    4.8320  -47.7118   13.2672 O   0  0  0  0  0  0  0  0  0  0  0  0
    3.4990  -46.0578    9.3738 C   0  0  0  0  0  0  0  0  0  0  0  0
    2.5006  -45.8585   10.3862 O   0  0  0  0  0  0  0  0  0  0  0  0
    0.6885  -50.9799    8.5464 C   0  0  1  0  0  0  0  0  0  0  0  0
    1.6513  -50.0914    9.1511 O   0  0  0  0  0  0  0  0  0  0  0  0
   -3.0636  -51.3721    5.4624 C   0  0  2  0  0  0  0  0  0  0  0  0
   -1.7431  -51.1429    4.8975 O   0  0  0  0  0  0  0  0  0  0  0  0
    8.0394  -52.4692   16.4968 C   0  0  0  0  0  0  0  0  0  0  0  0
    9.1400  -52.0356   15.7442 O   0  0  0  0  0  0  0  0  0  0  0  0
    6.3501  -45.7424   13.0560 C   0  0  1  0  0  0  0  0  0  0  0  0
    5.2699  -44.9018   12.5211 O   0  0  0  0  0  0  0  0  0  0  0  0
   -0.7212  -50.4754    9.0181 C   0  0  0  0  0  0  0  0  0  0  0  0
   -0.7551  -50.0472   10.4376 N   0  0  0  0  0  0  0  0  0  0  0  0
   -3.5919  -52.6047    4.7320 C   0  0  0  0  0  0  0  0  0  0  0  0
   -2.6371  -53.7056    4.8367 O   0  0  0  0  0  0  0  0  0  0  0  0
  1  2  1  1  0  0  0
  1  8  1  0  0  0  0
  1 36  1  0  0  0  0
  3  4  1  6  0  0  0
  3 10  1  0  0  0  0
  3 47  1  0  0  0  0
  5 11  1  0  0  0  0
  5 30  1  0  0  0  0
  5 38  1  1  0  0  0
  6 21  1  6  0  0  0
  6 42  1  0  0  0  0
  7 15  1  0  0  0  0
  7 44  1  0  0  0  0
  7 32  1  1  0  0  0
  8  9  1  1  0  0  0
  8 17  1  0  0  0  0
 11 12  1  6  0  0  0
 11 20  1  0  0  0  0
 13  6  1  0  0  0  0
 13 14  1  6  0  0  0
 15 16  1  6  0  0  0
 15 24  1  0  0  0  0
 17 26  1  0  0  0  0
 18 10  1  0  0  0  0
 18 19  1  6  0  0  0
 20 21  1  6  0  0  0
 20 29  1  0  0  0  0
 22 13  1  0  0  0  0
 22 23  1  1  0  0  0
 24 25  1  6  0  0  0
 24 33  1  0  0  0  0
 26 27  1  1  0  0  0
 26 35  1  0  0  0  0
 28  2  1  1  0  0  0
 28 18  1  0  0  0  0
 29 30  1  0  0  0  0
 29 39  1  1  0  0  0
 31 22  1  0  0  0  0
 31 32  1  6  0  0  0
 31 41  1  0  0  0  0
 33 34  1  1  0  0  0
 33 43  1  0  0  0  0
 35 36  1  0  0  0  0
 35 45  1  6  0  0  0
 37 28  1  0  0  0  0
 37 38  1  6  0  0  0
 39 40  1  0  0  0  0
 41 42  1  0  0  0  0
 41 49  1  6  0  0  0
 43 44  1  0  0  0  0
 43 51  1  6  0  0  0
 45 46  1  0  0  0  0
 47 37  1  0  0  0  0
 47 48  1  1  0  0  0
 49 50  1  0  0  0  0
 51 52  1  0  0  0  0
M  END
>  <CHROM.1>
-139.57303613,179.53247633,141.74259271,91.04428211,91.31912199,-158.84390080
54.64178007,136.84327062,-176.68742344,-88.85737439,179.89246547,-173.72032960
3.04572443,-49.32537038,10.86324678,0.21349290,0.81560256,2.66783711

>  <Name>
2fd0_lig

>  <RI>
1.29864e+07

>  <Rbt.Current_Directory>
/home/itssahil/PROJECTS/Mol_Feturizer/New_Systems/rnas/2fd0

>  <Rbt.Executable>
rbdock ($Id: //depot/dev/client3/rdock/2013.1/src/exe/rbdock.cxx#4 $)

>  <Rbt.Library>
libRbt.so (2013.1, Build901 2013/11/27)

>  <Rbt.Parameter_File>
/export/apps/rDock/src/rDock_2013.1_src/data/scripts/dock_solv.prm

>  <Rbt.Receptor>
prm/pocket_docking_3.prm

>  <SCORE>
-14.9713

>  <SCORE.INTER>
-20.2253

>  <SCORE.INTER.CONST>
1

>  <SCORE.INTER.POLAR>
-2.00862

>  <SCORE.INTER.ROT>
12

>  <SCORE.INTER.SOLV>
15.5482

>  <SCORE.INTER.VDW>
-23.5709

>  <SCORE.INTER.norm>
-0.388948

>  <SCORE.INTRA>
5.1765

>  <SCORE.INTRA.DIHEDRAL>
7.1206

>  <SCORE.INTRA.DIHEDRAL.0>
23.9727

>  <SCORE.INTRA.POLAR>
0

>  <SCORE.INTRA.POLAR.0>
0

>  <SCORE.INTRA.REPUL>
0

>  <SCORE.INTRA.REPUL.0>
0

>  <SCORE.INTRA.SOLV>
-2.04842

>  <SCORE.INTRA.SOLV.lig_0>
-115.028

>  <SCORE.INTRA.VDW>
2.64041

>  <SCORE.INTRA.VDW.0>
-6.82393

>  <SCORE.INTRA.norm>
0.0995481

>  <SCORE.RESTR>
0.0774438

>  <SCORE.RESTR.CAVITY>
0.0774438

>  <SCORE.RESTR.norm>
0.0014893

>  <SCORE.SYSTEM>
0

>  <SCORE.SYSTEM.CONST>
0

>  <SCORE.SYSTEM.DIHEDRAL>
0

>  <SCORE.SYSTEM.SOLV>
0

>  <SCORE.SYSTEM.norm>
0

>  <SCORE.heavy>
52

>  <SCORE.norm>
-0.287911

>  <RMSD>
2.176

$$$$
2fd0_lig
 OpenBabel11021811433D
libRbt.so/2013.1/901 2013/11/27
 52 56  0  0  0  0  0  0  0  0999 V2000
    4.9997  -49.9559   15.0844 C   0  0  2  0  0  0  0  0  0  0  0  0
    5.6271  -48.6792   15.2668 O   0  0  0  0  0  0  0  0  0  0  0  0
    7.5487  -45.6556   12.8055 C   0  0  2  0  0  0  0  0  0  0  0  0
    8.4741  -44.9985   11.8680 N   0  0  0  0  0  0  0  0  0  0  0  0
    4.0565  -48.4589   11.5130 C   0  0  1  0  0  0  0  0  0  0  0  0
    0.3246  -49.7993    9.4219 C   0  0  1  0  0  0  0  0  0  0  0  0
   -1.9854  -50.2141    4.8368 C   0  0  1  0  0  0  0  0  0  0  0  0
    3.8851  -50.1263   16.1799 C   0  0  2  0  0  0  0  0  0  0  0  0
    2.9082  -49.0474   16.1323 N   0  0  0  0  0  0  0  0  0  0  0  0
    8.3540  -46.2888   14.0236 C   0  0  0  0  0  0  0  0  0  0  0  0
    3.6643  -49.8459   11.0375 C   0  0  2  0  0  0  0  0  0  0  0  0
    4.3481  -50.2215    9.8089 O   0  0  0  0  0  0  0  0  0  0  0  0
    0.0708  -50.9645    8.3555 C   0  0  2  0  0  0  0  0  0  0  0  0
    0.8986  -50.7468    7.1379 N   0  0  0  0  0  0  0  0  0  0  0  0
   -3.1074  -49.1739    4.6203 C   0  0  1  0  0  0  0  0  0  0  0  0
   -2.5129  -47.9150    4.2181 O   0  0  0  0  0  0  0  0  0  0  0  0
    4.5348  -50.2486   17.6080 C   0  0  0  0  0  0  0  0  0  0  0  0
    7.3434  -46.9941   15.0486 C   0  0  2  0  0  0  0  0  0  0  0  0
    8.0633  -47.5904   16.1835 N   0  0  0  0  0  0  0  0  0  0  0  0
    2.1492  -49.7628   10.9597 C   0  0  2  0  0  0  0  0  0  0  0  0
    1.7049  -49.7286    9.6307 O   0  0  0  0  0  0  0  0  0  0  0  0
   -1.5234  -51.0512    8.1069 C   0  0  1  0  0  0  0  0  0  0  0  0
   -2.1595  -51.2749    9.3782 O   0  0  0  0  0  0  0  0  0  0  0  0
   -4.2236  -49.5275    3.6004 C   0  0  1  0  0  0  0  0  0  0  0  0
   -3.8466  -48.9862    2.3280 O   0  0  0  0  0  0  0  0  0  0  0  0
    5.5615  -51.4278   17.5872 C   0  0  2  0  0  0  0  0  0  0  0  0
    6.1600  -51.5837   18.8701 O   0  0  0  0  0  0  0  0  0  0  0  0
    6.5340  -48.0865   14.2955 C   0  0  2  0  0  0  0  0  0  0  0  0
    1.6945  -48.4182   11.5760 C   0  0  2  0  0  0  0  0  0  0  0  0
    2.9021  -47.9053   12.1203 O   0  0  0  0  0  0  0  0  0  0  0  0
   -2.1199  -49.6623    7.5330 C   0  0  2  0  0  0  0  0  0  0  0  0
   -1.4709  -49.4897    6.2591 O   0  0  0  0  0  0  0  0  0  0  0  0
   -4.5355  -51.0321    3.4284 C   0  0  2  0  0  0  0  0  0  0  0  0
   -5.9741  -51.1260    3.3377 O   0  0  0  0  0  0  0  0  0  0  0  0
    6.6582  -51.1403   16.5222 C   0  0  2  0  0  0  0  0  0  0  0  0
    5.9979  -51.0020   15.2052 O   0  0  0  0  0  0  0  0  0  0  0  0
    5.7713  -47.5261   13.0564 C   0  0  2  0  0  0  0  0  0  0  0  0
    5.0982  -48.6384   12.4195 O   0  0  0  0  0  0  0  0  0  0  0  0
    0.6731  -48.5353   12.7019 C   0  0  0  0  0  0  0  0  0  0  0  0
    1.2453  -49.3922   13.7016 O   0  0  0  0  0  0  0  0  0  0  0  0
   -1.6249  -48.5831    8.4774 C   0  0  1  0  0  0  0  0  0  0  0  0
   -0.2643  -48.4601    8.9418 O   0  0  0  0  0  0  0  0  0  0  0  0
   -3.9414  -51.8494    4.5724 C   0  0  2  0  0  0  0  0  0  0  0  0
   -2.5310  -51.6031    4.8285 O   0  0  0  0  0  0  0  0  0  0  0  0
    7.6548  -52.2515   16.4271 C   0  0  0  0  0  0  0  0  0  0  0  0
    8.7699  -51.7751   15.7232 O   0  0  0  0  0  0  0  0  0  0  0  0
    6.7789  -46.8267   12.0726 C   0  0  1  0  0  0  0  0  0  0  0  0
    6.0196  -46.2670   10.9458 O   0  0  0  0  0  0  0  0  0  0  0  0
   -2.0692  -47.1383    8.0537 C   0  0  0  0  0  0  0  0  0  0  0  0
   -1.6684  -46.7736    6.6733 N   0  0  0  0  0  0  0  0  0  0  0  0
   -4.0918  -53.3673    4.6450 C   0  0  0  0  0  0  0  0  0  0  0  0
   -3.6248  -53.9842    3.4057 O   0  0  0  0  0  0  0  0  0  0  0  0
  1  2  1  1  0  0  0
  1  8  1  0  0  0  0
  1 36  1  0  0  0  0
  3  4  1  6  0  0  0
  3 10  1  0  0  0  0
  3 47  1  0  0  0  0
  5 11  1  0  0  0  0
  5 30  1  0  0  0  0
  5 38  1  1  0  0  0
  6 21  1  6  0  0  0
  6 42  1  0  0  0  0
  7 15  1  0  0  0  0
  7 44  1  0  0  0  0
  7 32  1  1  0  0  0
  8  9  1  1  0  0  0
  8 17  1  0  0  0  0
 11 12  1  6  0  0  0
 11 20  1  0  0  0  0
 13  6  1  0  0  0  0
 13 14  1  6  0  0  0
 15 16  1  6  0  0  0
 15 24  1  0  0  0  0
 17 26  1  0  0  0  0
 18 10  1  0  0  0  0
 18 19  1  1  0  0  0
 20 21  1  6  0  0  0
 20 29  1  0  0  0  0
 22 13  1  0  0  0  0
 22 23  1  1  0  0  0
 24 25  1  6  0  0  0
 24 33  1  0  0  0  0
 26 27  1  1  0  0  0
 26 35  1  0  0  0  0
 28  2  1  1  0  0  0
 28 18  1  0  0  0  0
 29 30  1  0  0  0  0
 29 39  1  1  0  0  0
 31 22  1  0  0  0  0
 31 32  1  6  0  0  0
 31 41  1  0  0  0  0
 33 34  1  1  0  0  0
 33 43  1  0  0  0  0
 35 36  1  0  0  0  0
 35 45  1  6  0  0  0
 37 28  1  0  0  0  0
 37 38  1  6  0  0  0
 39 40  1  0  0  0  0
 41 42  1  0  0  0  0
 41 49  1  6  0  0  0
 43 44  1  0  0  0  0
 43 51  1  6  0  0  0
 45 46  1  0  0  0  0
 47 37  1  0  0  0  0
 47 48  1  6  0  0  0
 49 50  1  0  0  0  0
 51 52  1  0  0  0  0
M  END
>  <CHROM.1>
-168.67964712,177.82466396,-128.60037135,79.47746101,173.21402581,-161.17756757
56.10976119,83.03312609,-164.94637253,162.55632361,-55.69293143,53.82655990
1.95941399,-49.46739298,10.51534667,0.47188866,0.70685928,2.34992279

>  <Name>
2fd0_lig

>  <RI>
1.29864e+07

>  <Rbt.Current_Directory>
/home/itssahil/PROJECTS/Mol_Feturizer/New_Systems/rnas/2fd0

>  <Rbt.Executable>
rbdock ($Id: //depot/dev/client3/rdock/2013.1/src/exe/rbdock.cxx#4 $)

>  <Rbt.Library>
libRbt.so (2013.1, Build901 2013/11/27)

>  <Rbt.Parameter_File>
/export/apps/rDock/src/rDock_2013.1_src/data/scripts/dock_solv.prm

>  <Rbt.Receptor>
prm/pocket_docking_3.prm

>  <SCORE>
-19.2745

>  <SCORE.INTER>
-16.109

>  <SCORE.INTER.CONST>
1

>  <SCORE.INTER.POLAR>
-1.72375

>  <SCORE.INTER.ROT>
12

>  <SCORE.INTER.SOLV>
17.6294

>  <SCORE.INTER.VDW>
-22.47

>  <SCORE.INTER.norm>
-0.309789

>  <SCORE.INTRA>
-3.19065

>  <SCORE.INTRA.DIHEDRAL>
-6.74792

>  <SCORE.INTRA.DIHEDRAL.0>
23.9727

>  <SCORE.INTRA.POLAR>
0

>  <SCORE.INTRA.POLAR.0>
0

>  <SCORE.INTRA.REPUL>
0

>  <SCORE.INTRA.REPUL.0>
0

>  <SCORE.INTRA.SOLV>
0.393386

>  <SCORE.INTRA.SOLV.lig_0>
-115.028

>  <SCORE.INTRA.VDW>
-0.0133794

>  <SCORE.INTRA.VDW.0>
-6.82393

>  <SCORE.INTRA.norm>
-0.0613586

>  <SCORE.RESTR>
0.0251787

>  <SCORE.RESTR.CAVITY>
0.0251787

>  <SCORE.RESTR.norm>
0.000484207

>  <SCORE.SYSTEM>
0

>  <SCORE.SYSTEM.CONST>
0

>  <SCORE.SYSTEM.DIHEDRAL>
0

>  <SCORE.SYSTEM.SOLV>
0

>  <SCORE.SYSTEM.norm>
0

>  <SCORE.heavy>
52

>  <SCORE.norm>
-0.370664

>  <RMSD>
2.179

$$$$
2fd0_lig
 OpenBabel11021811433D
libRbt.so/2013.1/901 2013/11/27
 52 56  0  0  0  0  0  0  0  0999 V2000
    5.1163  -49.8237   15.1090 C   0  0  2  0  0  0  0  0  0  0  0  0
    5.6854  -48.5234   15.3141 O   0  0  0  0  0  0  0  0  0  0  0  0
    7.5433  -45.3993   12.9306 C   0  0  2  0  0  0  0  0  0  0  0  0
    8.4612  -44.6971   12.0188 N   0  0  0  0  0  0  0  0  0  0  0  0
    4.1392  -48.3035   11.5737 C   0  0  1  0  0  0  0  0  0  0  0  0
    0.4052  -49.9218    9.5786 C   0  0  1  0  0  0  0  0  0  0  0  0
   -1.8768  -52.0771    5.2755 C   0  0  1  0  0  0  0  0  0  0  0  0
    4.1071  -50.1179   16.2780 C   0  0  2  0  0  0  0  0  0  0  0  0
    3.0717  -49.0981   16.3703 N   0  0  0  0  0  0  0  0  0  0  0  0
    8.3493  -46.0233   14.1529 C   0  0  0  0  0  0  0  0  0  0  0  0
    3.7505  -49.7020   11.1304 C   0  0  2  0  0  0  0  0  0  0  0  0
    4.4101  -50.0916    9.8929 O   0  0  0  0  0  0  0  0  0  0  0  0
    0.3057  -51.4858    9.2571 C   0  0  2  0  0  0  0  0  0  0  0  0
    1.2083  -51.8450    8.1295 N   0  0  0  0  0  0  0  0  0  0  0  0
   -2.4570  -50.7108    4.8461 C   0  0  1  0  0  0  0  0  0  0  0  0
   -1.3792  -49.8707    4.3641 O   0  0  0  0  0  0  0  0  0  0  0  0
    4.8784  -50.2767   17.6404 C   0  0  0  0  0  0  0  0  0  0  0  0
    7.3464  -46.7779   15.1500 C   0  0  2  0  0  0  0  0  0  0  0  0
    8.0672  -47.3665   16.2884 N   0  0  0  0  0  0  0  0  0  0  0  0
    2.2332  -49.6350   11.0857 C   0  0  2  0  0  0  0  0  0  0  0  0
    1.7587  -49.6276    9.7668 O   0  0  0  0  0  0  0  0  0  0  0  0
   -1.2567  -51.8337    9.0360 C   0  0  1  0  0  0  0  0  0  0  0  0
   -1.9722  -51.4345   10.2190 O   0  0  0  0  0  0  0  0  0  0  0  0
   -3.5806  -50.7158    3.7745 C   0  0  1  0  0  0  0  0  0  0  0  0
   -2.9660  -50.5544    2.4898 O   0  0  0  0  0  0  0  0  0  0  0  0
    5.9631  -51.3899   17.4703 C   0  0  2  0  0  0  0  0  0  0  0  0
    6.6733  -51.5775   18.6904 O   0  0  0  0  0  0  0  0  0  0  0  0
    6.5875  -47.8855   14.3673 C   0  0  2  0  0  0  0  0  0  0  0  0
    1.7790  -48.2847   11.6897 C   0  0  2  0  0  0  0  0  0  0  0  0
    2.9933  -47.7509   12.1977 O   0  0  0  0  0  0  0  0  0  0  0  0
   -1.8929  -50.9943    7.8092 C   0  0  2  0  0  0  0  0  0  0  0  0
   -1.1612  -51.4374    6.6508 O   0  0  0  0  0  0  0  0  0  0  0  0
   -4.4822  -51.9714    3.7406 C   0  0  2  0  0  0  0  0  0  0  0  0
   -5.8255  -51.4835    3.5311 O   0  0  0  0  0  0  0  0  0  0  0  0
    6.9506  -50.9816   16.3398 C   0  0  2  0  0  0  0  0  0  0  0  0
    6.1771  -50.8135   15.0896 O   0  0  0  0  0  0  0  0  0  0  0  0
    5.8269  -47.3326   13.1236 C   0  0  2  0  0  0  0  0  0  0  0  0
    5.2029  -48.4574   12.4590 O   0  0  0  0  0  0  0  0  0  0  0  0
    0.7846  -48.3927   12.8404 C   0  0  0  0  0  0  0  0  0  0  0  0
   -0.4398  -48.9036   12.2918 O   0  0  0  0  0  0  0  0  0  0  0  0
   -1.5388  -49.5440    8.0787 C   0  0  1  0  0  0  0  0  0  0  0  0
   -0.2275  -49.0763    8.4582 O   0  0  0  0  0  0  0  0  0  0  0  0
   -4.3237  -52.7947    5.0160 C   0  0  2  0  0  0  0  0  0  0  0  0
   -2.9489  -53.1109    5.3700 O   0  0  0  0  0  0  0  0  0  0  0  0
    7.9956  -52.0249   16.1020 C   0  0  0  0  0  0  0  0  0  0  0  0
    7.4325  -53.0285   15.3012 O   0  0  0  0  0  0  0  0  0  0  0  0
    6.8263  -46.5846   12.1675 C   0  0  1  0  0  0  0  0  0  0  0  0
    6.0672  -46.0340   11.0361 O   0  0  0  0  0  0  0  0  0  0  0  0
   -2.0384  -48.5661    6.9569 C   0  0  0  0  0  0  0  0  0  0  0  0
   -3.4484  -48.1383    7.1256 N   0  0  0  0  0  0  0  0  0  0  0  0
   -5.0932  -54.0945    5.2403 C   0  0  0  0  0  0  0  0  0  0  0  0
   -6.5323  -53.8497    5.1824 O   0  0  0  0  0  0  0  0  0  0  0  0
  1  2  1  1  0  0  0
  1  8  1  0  0  0  0
  1 36  1  0  0  0  0
  3  4  1  6  0  0  0
  3 10  1  0  0  0  0
  3 47  1  0  0  0  0
  5 11  1  0  0  0  0
  5 30  1  0  0  0  0
  5 38  1  1  0  0  0
  6 21  1  6  0  0  0
  6 42  1  0  0  0  0
  7 15  1  0  0  0  0
  7 44  1  0  0  0  0
  7 32  1  1  0  0  0
  8  9  1  1  0  0  0
  8 17  1  0  0  0  0
 11 12  1  6  0  0  0
 11 20  1  0  0  0  0
 13  6  1  0  0  0  0
 13 14  1  6  0  0  0
 15 16  1  6  0  0  0
 15 24  1  0  0  0  0
 17 26  1  0  0  0  0
 18 10  1  0  0  0  0
 18 19  1  1  0  0  0
 20 21  1  6  0  0  0
 20 29  1  0  0  0  0
 22 13  1  0  0  0  0
 22 23  1  1  0  0  0
 24 25  1  6  0  0  0
 24 33  1  0  0  0  0
 26 27  1  1  0  0  0
 26 35  1  0  0  0  0
 28  2  1  1  0  0  0
 28 18  1  0  0  0  0
 29 30  1  0  0  0  0
 29 39  1  1  0  0  0
 31 22  1  0  0  0  0
 31 32  1  6  0  0  0
 31 41  1  0  0  0  0
 33 34  1  1  0  0  0
 33 43  1  0  0  0  0
 35 36  1  0  0  0  0
 35 45  1  6  0  0  0
 37 28  1  0  0  0  0
 37 38  1  6  0  0  0
 39 40  1  0  0  0  0
 41 42  1  0  0  0  0
 41 49  1  6  0  0  0
 43 44  1  0  0  0  0
 43 51  1  6  0  0  0
 45 46  1  0  0  0  0
 47 37  1  0  0  0  0
 47 48  1  6  0  0  0
 49 50  1  0  0  0  0
 51 52  1  0  0  0  0
M  END
>  <CHROM.1>
-175.25963717,-178.38381861,-94.85924293,71.11792784,163.58607857,-160.49393048
-67.33174255,124.27382757,80.58957063,160.20417926,84.26682401,-58.96577164
1.93765484,-49.84173282,10.65592074,0.39482881,0.71268767,2.31216201

>  <Name>
2fd0_lig

>  <RI>
1.29864e+07

>  <Rbt.Current_Directory>
/home/itssahil/PROJECTS/Mol_Feturizer/New_Systems/rnas/2fd0

>  <Rbt.Executable>
rbdock ($Id: //depot/dev/client3/rdock/2013.1/src/exe/rbdock.cxx#4 $)

>  <Rbt.Library>
libRbt.so (2013.1, Build901 2013/11/27)

>  <Rbt.Parameter_File>
/export/apps/rDock/src/rDock_2013.1_src/data/scripts/dock_solv.prm

>  <Rbt.Receptor>
prm/pocket_docking_3.prm

>  <SCORE>
-18.8032

>  <SCORE.INTER>
-16.9068

>  <SCORE.INTER.CONST>
1

>  <SCORE.INTER.POLAR>
-1.74808

>  <SCORE.INTER.ROT>
12

>  <SCORE.INTER.SOLV>
15.6447

>  <SCORE.INTER.VDW>
-22.2591

>  <SCORE.INTER.norm>
-0.325131

>  <SCORE.INTRA>
-1.89643

>  <SCORE.INTRA.DIHEDRAL>
-2.89148

>  <SCORE.INTRA.DIHEDRAL.0>
23.9727

>  <SCORE.INTRA.POLAR>
0

>  <SCORE.INTRA.POLAR.0>
0

>  <SCORE.INTRA.REPUL>
0

>  <SCORE.INTRA.REPUL.0>
0

>  <SCORE.INTRA.SOLV>
-2.62516

>  <SCORE.INTRA.SOLV.lig_0>
-115.028

>  <SCORE.INTRA.VDW>
0.861894

>  <SCORE.INTRA.VDW.0>
-6.82393

>  <SCORE.INTRA.norm>
-0.0364698

>  <SCORE.RESTR>
0

>  <SCORE.RESTR.CAVITY>
0

>  <SCORE.RESTR.norm>
0

>  <SCORE.SYSTEM>
0

>  <SCORE.SYSTEM.CONST>
0

>  <SCORE.SYSTEM.DIHEDRAL>
0

>  <SCORE.SYSTEM.SOLV>
0

>  <SCORE.SYSTEM.norm>
0

>  <SCORE.heavy>
52

>  <SCORE.norm>
-0.3616

>  <RMSD>
2.181

$$$$
2fd0_lig
 OpenBabel11021811433D
libRbt.so/2013.1/901 2013/11/27
 52 56  0  0  0  0  0  0  0  0999 V2000
    5.4945  -49.4770   15.1356 C   0  0  2  0  0  0  0  0  0  0  0  0
    6.2432  -48.2991   15.4658 O   0  0  0  0  0  0  0  0  0  0  0  0
    8.2684  -45.3119   13.0435 C   0  0  2  0  0  0  0  0  0  0  0  0
    9.2667  -44.6495   12.1882 N   0  0  0  0  0  0  0  0  0  0  0  0
    5.0348  -48.5061   11.7078 C   0  0  1  0  0  0  0  0  0  0  0  0
    2.0989  -49.0024   10.2276 C   0  0  1  0  0  0  0  0  0  0  0  0
   -0.8609  -50.1614    6.0823 C   0  0  1  0  0  0  0  0  0  0  0  0
    4.3942  -49.6951   16.2371 C   0  0  2  0  0  0  0  0  0  0  0  0
    3.5222  -48.5363   16.3699 N   0  0  0  0  0  0  0  0  0  0  0  0
    8.9373  -45.7856   14.4077 C   0  0  0  0  0  0  0  0  0  0  0  0
    3.8041  -48.2686   12.5636 C   0  0  2  0  0  0  0  0  0  0  0  0
    3.1665  -49.5123   12.9699 O   0  0  0  0  0  0  0  0  0  0  0  0
    1.9040  -48.3461    8.7817 C   0  0  2  0  0  0  0  0  0  0  0  0
    0.5752  -47.6826    8.6847 N   0  0  0  0  0  0  0  0  0  0  0  0
   -1.9514  -49.1667    6.5396 C   0  0  1  0  0  0  0  0  0  0  0  0
   -1.3562  -47.8555    6.7023 O   0  0  0  0  0  0  0  0  0  0  0  0
    5.0621  -50.0704   17.6117 C   0  0  0  0  0  0  0  0  0  0  0  0
    7.8459  -46.4967   15.3419 C   0  0  2  0  0  0  0  0  0  0  0  0
    8.4396  -46.9469   16.6095 N   0  0  0  0  0  0  0  0  0  0  0  0
    2.9657  -47.3388   11.7028 C   0  0  2  0  0  0  0  0  0  0  0  0
    1.8506  -47.9998   11.1693 O   0  0  0  0  0  0  0  0  0  0  0  0
    2.1872  -49.5001    7.6867 C   0  0  1  0  0  0  0  0  0  0  0  0
    3.5097  -50.0178    7.9191 O   0  0  0  0  0  0  0  0  0  0  0  0
   -3.2070  -49.0177    5.6384 C   0  0  1  0  0  0  0  0  0  0  0  0
   -2.9751  -47.9299    4.7344 O   0  0  0  0  0  0  0  0  0  0  0  0
    5.9725  -51.3231   17.3959 C   0  0  2  0  0  0  0  0  0  0  0  0
    6.5829  -51.7070   18.6240 O   0  0  0  0  0  0  0  0  0  0  0  0
    7.2327  -47.7046   14.5800 C   0  0  2  0  0  0  0  0  0  0  0  0
    3.8064  -46.9048   10.4783 C   0  0  2  0  0  0  0  0  0  0  0  0
    5.0889  -47.4342   10.7825 O   0  0  0  0  0  0  0  0  0  0  0  0
    1.1708  -50.7470    7.8490 C   0  0  2  0  0  0  0  0  0  0  0  0
   -0.1309  -50.1875    7.5919 O   0  0  0  0  0  0  0  0  0  0  0  0
   -3.6093  -50.2670    4.8209 C   0  0  2  0  0  0  0  0  0  0  0  0
   -5.0501  -50.3367    4.8956 O   0  0  0  0  0  0  0  0  0  0  0  0
    7.0667  -50.9920   16.3410 C   0  0  2  0  0  0  0  0  0  0  0  0
    6.3924  -50.6153   15.0789 O   0  0  0  0  0  0  0  0  0  0  0  0
    6.6141  -47.3013   13.2068 C   0  0  2  0  0  0  0  0  0  0  0  0
    6.1205  -48.5092   12.5797 O   0  0  0  0  0  0  0  0  0  0  0  0
    3.9427  -45.3982   10.2884 C   0  0  0  0  0  0  0  0  0  0  0  0
    5.0330  -45.1857    9.3788 O   0  0  0  0  0  0  0  0  0  0  0  0
    1.2445  -51.1473    9.3104 C   0  0  1  0  0  0  0  0  0  0  0  0
    1.1821  -50.2247   10.4181 O   0  0  0  0  0  0  0  0  0  0  0  0
   -2.9094  -51.5163    5.3490 C   0  0  2  0  0  0  0  0  0  0  0  0
   -1.4676  -51.3914    5.4942 O   0  0  0  0  0  0  0  0  0  0  0  0
    7.9520  -52.1648   16.0618 C   0  0  0  0  0  0  0  0  0  0  0  0
    8.8103  -52.3310   17.1578 O   0  0  0  0  0  0  0  0  0  0  0  0
    7.6972  -46.5933   12.3134 C   0  0  1  0  0  0  0  0  0  0  0  0
    7.0660  -46.1822   11.0516 O   0  0  0  0  0  0  0  0  0  0  0  0
    0.2791  -52.3295    9.6779 C   0  0  0  0  0  0  0  0  0  0  0  0
   -1.1524  -52.0243    9.4395 N   0  0  0  0  0  0  0  0  0  0  0  0
   -3.1203  -52.8899    4.7160 C   0  0  0  0  0  0  0  0  0  0  0  0
   -2.5098  -52.9374    3.3895 O   0  0  0  0  0  0  0  0  0  0  0  0
  1  2  1  1  0  0  0
  1  8  1  0  0  0  0
  1 36  1  0  0  0  0
  3  4  1  6  0  0  0
  3 10  1  0  0  0  0
  3 47  1  0  0  0  0
  5 11  1  0  0  0  0
  5 30  1  0  0  0  0
  5 38  1  1  0  0  0
  6 21  1  1  0  0  0
  6 42  1  0  0  0  0
  7 15  1  0  0  0  0
  7 44  1  0  0  0  0
  7 32  1  1  0  0  0
  8  9  1  1  0  0  0
  8 17  1  0  0  0  0
 11 12  1  6  0  0  0
 11 20  1  0  0  0  0
 13  6  1  0  0  0  0
 13 14  1  1  0  0  0
 15 16  1  6  0  0  0
 15 24  1  0  0  0  0
 17 26  1  0  0  0  0
 18 10  1  0  0  0  0
 18 19  1  1  0  0  0
 20 21  1  6  0  0  0
 20 29  1  0  0  0  0
 22 13  1  0  0  0  0
 22 23  1  1  0  0  0
 24 25  1  6  0  0  0
 24 33  1  0  0  0  0
 26 27  1  1  0  0  0
 26 35  1  0  0  0  0
 28  2  1  1  0  0  0
 28 18  1  0  0  0  0
 29 30  1  0  0  0  0
 29 39  1  1  0  0  0
 31 22  1  0  0  0  0
 31 32  1  1  0  0  0
 31 41  1  0  0  0  0
 33 34  1  1  0  0  0
 33 43  1  0  0  0  0
 35 36  1  0  0  0  0
 35 45  1  6  0  0  0
 37 28  1  0  0  0  0
 37 38  1  6  0  0  0
 39 40  1  0  0  0  0
 41 42  1  0  0  0  0
 41 49  1  1  0  0  0
 43 44  1  0  0  0  0
 43 51  1  6  0  0  0
 45 46  1  0  0  0  0
 47 37  1  0  0  0  0
 47 48  1  6  0  0  0
 49 50  1  0  0  0  0
 51 52  1  0  0  0  0
M  END
>  <CHROM.1>
-172.15425629,-72.20497417,-97.72544136,-167.21940773,-67.21911820,-177.49674188
163.73088797,92.20251002,-74.12092735,150.38941941,-60.53487867,69.37520804
3.12059369,-49.09500291,11.00106608,0.40286084,0.72660369,2.39212278

>  <Name>
2fd0_lig

>  <RI>
2.89522e+07

>  <Rbt.Current_Directory>
/home/itssahil/PROJECTS/Mol_Feturizer/New_Systems/rnas/2fd0

>  <Rbt.Executable>
rbdock ($Id: //depot/dev/client3/rdock/2013.1/src/exe/rbdock.cxx#4 $)

>  <Rbt.Library>
libRbt.so (2013.1, Build901 2013/11/27)

>  <Rbt.Parameter_File>
/export/apps/rDock/src/rDock_2013.1_src/data/scripts/dock_solv.prm

>  <Rbt.Receptor>
prm/pocket_docking_2.prm

>  <SCORE>
-15.1056

>  <SCORE.INTER>
-18.113

>  <SCORE.INTER.CONST>
1

>  <SCORE.INTER.POLAR>
-2.12019

>  <SCORE.INTER.ROT>
12

>  <SCORE.INTER.SOLV>
14.9477

>  <SCORE.INTER.VDW>
-21.5906

>  <SCORE.INTER.norm>
-0.348327

>  <SCORE.INTRA>
1.36878

>  <SCORE.INTRA.DIHEDRAL>
-5.97701

>  <SCORE.INTRA.DIHEDRAL.0>
23.9727

>  <SCORE.INTRA.POLAR>
0

>  <SCORE.INTRA.POLAR.0>
0

>  <SCORE.INTRA.REPUL>
0

>  <SCORE.INTRA.REPUL.0>
0

>  <SCORE.INTRA.SOLV>
2.02791

>  <SCORE.INTRA.SOLV.lig_0>
-115.028

>  <SCORE.INTRA.VDW>
3.34334

>  <SCORE.INTRA.VDW.0>
-6.82393

>  <SCORE.INTRA.norm>
0.0263228

>  <SCORE.RESTR>
1.63862

>  <SCORE.RESTR.CAVITY>
1.63862

>  <SCORE.RESTR.norm>
0.031512

>  <SCORE.SYSTEM>
0

>  <SCORE.SYSTEM.CONST>
0

>  <SCORE.SYSTEM.DIHEDRAL>
0

>  <SCORE.SYSTEM.SOLV>
0

>  <SCORE.SYSTEM.norm>
0

>  <SCORE.heavy>
52

>  <SCORE.norm>
-0.290492

>  <RMSD>
2.189

$$$$
2fd0_lig
 OpenBabel11021811433D
libRbt.so/2013.1/901 2013/11/27
 52 56  0  0  0  0  0  0  0  0999 V2000
    4.7217  -49.2292   13.7829 C   0  0  2  0  0  0  0  0  0  0  0  0
    5.2188  -47.8876   13.8837 O   0  0  0  0  0  0  0  0  0  0  0  0
    7.7116  -44.9130   11.9267 C   0  0  2  0  0  0  0  0  0  0  0  0
    8.6617  -44.2785   10.9984 N   0  0  0  0  0  0  0  0  0  0  0  0
    4.5026  -47.6126   10.3260 C   0  0  1  0  0  0  0  0  0  0  0  0
    2.4638  -51.1421    8.5314 C   0  0  1  0  0  0  0  0  0  0  0  0
   -1.9508  -50.8530    6.1828 C   0  0  1  0  0  0  0  0  0  0  0  0
    3.4445  -49.3587   14.6904 C   0  0  2  0  0  0  0  0  0  0  0  0
    2.4207  -48.3886   14.3277 N   0  0  0  0  0  0  0  0  0  0  0  0
    8.4063  -46.1297   12.6817 C   0  0  0  0  0  0  0  0  0  0  0  0
    3.3850  -48.6337   10.4352 C   0  0  2  0  0  0  0  0  0  0  0  0
    3.7904  -49.8177   11.1782 O   0  0  0  0  0  0  0  0  0  0  0  0
    1.8650  -51.2346    7.0508 C   0  0  2  0  0  0  0  0  0  0  0  0
    1.3716  -49.9035    6.6034 N   0  0  0  0  0  0  0  0  0  0  0  0
   -2.4370  -49.4161    6.4771 C   0  0  1  0  0  0  0  0  0  0  0  0
   -1.3326  -48.4965    6.2907 O   0  0  0  0  0  0  0  0  0  0  0  0
    3.8373  -49.2367   16.2094 C   0  0  0  0  0  0  0  0  0  0  0  0
    7.3733  -46.8120   13.7000 C   0  0  2  0  0  0  0  0  0  0  0  0
    7.9903  -47.9423   14.4095 N   0  0  0  0  0  0  0  0  0  0  0  0
    2.9875  -48.8586    8.9860 C   0  0  2  0  0  0  0  0  0  0  0  0
    3.4104  -50.1137    8.5269 O   0  0  0  0  0  0  0  0  0  0  0  0
    0.7675  -52.4205    7.0482 C   0  0  1  0  0  0  0  0  0  0  0  0
    1.4157  -53.6263    7.4919 O   0  0  0  0  0  0  0  0  0  0  0  0
   -3.6468  -48.8887    5.6590 C   0  0  1  0  0  0  0  0  0  0  0  0
   -3.1362  -48.1923    4.5150 O   0  0  0  0  0  0  0  0  0  0  0  0
    4.9288  -50.3100   16.5279 C   0  0  2  0  0  0  0  0  0  0  0  0
    5.2993  -50.2445   17.9014 O   0  0  0  0  0  0  0  0  0  0  0  0
    6.1237  -47.2937   12.9113 C   0  0  2  0  0  0  0  0  0  0  0  0
    3.7322  -47.8294    8.1026 C   0  0  2  0  0  0  0  0  0  0  0  0
    4.3463  -46.9848    9.0654 O   0  0  0  0  0  0  0  0  0  0  0  0
   -0.4325  -52.1330    8.0929 C   0  0  2  0  0  0  0  0  0  0  0  0
   -1.0596  -50.9336    7.6012 O   0  0  0  0  0  0  0  0  0  0  0  0
   -4.6609  -49.9537    5.1816 C   0  0  2  0  0  0  0  0  0  0  0  0
   -5.9662  -49.3658    5.3743 O   0  0  0  0  0  0  0  0  0  0  0  0
    6.1751  -50.0626   15.6304 C   0  0  2  0  0  0  0  0  0  0  0  0
    5.7512  -50.1555   14.2158 O   0  0  0  0  0  0  0  0  0  0  0  0
    5.4389  -46.1474   12.1063 C   0  0  2  0  0  0  0  0  0  0  0  0
    4.3249  -46.7265   11.3854 O   0  0  0  0  0  0  0  0  0  0  0  0
    2.8375  -46.9720    7.2143 C   0  0  0  0  0  0  0  0  0  0  0  0
    1.6498  -46.6832    7.9672 O   0  0  0  0  0  0  0  0  0  0  0  0
    0.2424  -51.8182    9.4146 C   0  0  1  0  0  0  0  0  0  0  0  0
    1.3537  -50.9115    9.5731 O   0  0  0  0  0  0  0  0  0  0  0  0
   -4.4673  -51.2695    5.9305 C   0  0  2  0  0  0  0  0  0  0  0  0
   -3.1020  -51.7707    5.9384 O   0  0  0  0  0  0  0  0  0  0  0  0
    7.2458  -51.0810   15.8618 C   0  0  0  0  0  0  0  0  0  0  0  0
    8.4254  -50.6134   15.2656 O   0  0  0  0  0  0  0  0  0  0  0  0
    6.4732  -45.4835   11.1254 C   0  0  1  0  0  0  0  0  0  0  0  0
    5.8079  -44.3770   10.4236 O   0  0  0  0  0  0  0  0  0  0  0  0
   -0.7722  -51.4623   10.5585 C   0  0  0  0  0  0  0  0  0  0  0  0
   -0.1225  -50.9750   11.7994 N   0  0  0  0  0  0  0  0  0  0  0  0
   -5.3316  -52.4961    5.6468 C   0  0  0  0  0  0  0  0  0  0  0  0
   -5.0257  -53.0387    4.3253 O   0  0  0  0  0  0  0  0  0  0  0  0
  1  2  1  1  0  0  0
  1  8  1  0  0  0  0
  1 36  1  0  0  0  0
  3  4  1  6  0  0  0
  3 10  1  0  0  0  0
  3 47  1  0  0  0  0
  5 11  1  0  0  0  0
  5 30  1  0  0  0  0
  5 38  1  1  0  0  0
  6 21  1  6  0  0  0
  6 42  1  0  0  0  0
  7 15  1  0  0  0  0
  7 44  1  0  0  0  0
  7 32  1  1  0  0  0
  8  9  1  6  0  0  0
  8 17  1  0  0  0  0
 11 12  1  6  0  0  0
 11 20  1  0  0  0  0
 13  6  1  0  0  0  0
 13 14  1  1  0  0  0
 15 16  1  6  0  0  0
 15 24  1  0  0  0  0
 17 26  1  0  0  0  0
 18 10  1  0  0  0  0
 18 19  1  6  0  0  0
 20 21  1  6  0  0  0
 20 29  1  0  0  0  0
 22 13  1  0  0  0  0
 22 23  1  1  0  0  0
 24 25  1  6  0  0  0
 24 33  1  0  0  0  0
 26 27  1  1  0  0  0
 26 35  1  0  0  0  0
 28  2  1  1  0  0  0
 28 18  1  0  0  0  0
 29 30  1  0  0  0  0
 29 39  1  1  0  0  0
 31 22  1  0  0  0  0
 31 32  1  6  0  0  0
 31 41  1  0  0  0  0
 33 34  1  1  0  0  0
 33 43  1  0  0  0  0
 35 36  1  0  0  0  0
 35 45  1  1  0  0  0
 37 28  1  0  0  0  0
 37 38  1  6  0  0  0
 39 40  1  0  0  0  0
 41 42  1  0  0  0  0
 41 49  1  1  0  0  0
 43 44  1  0  0  0  0
 43 51  1  6  0  0  0
 45 46  1  0  0  0  0
 47 37  1  0  0  0  0
 47 48  1  1  0  0  0
 49 50  1  0  0  0  0
 51 52  1  0  0  0  0
M  END
>  <CHROM.1>
-161.25675190,143.30595337,97.35990932,171.44912266,98.11424759,-123.90271842
37.36584654,69.25594303,-166.30902510,-68.73955197,-172.13511002,69.28659983
2.32409787,-49.25087743,10.10930450,0.34112012,0.66374116,2.28876194

>  <Name>
2fd0_lig

>  <RI>
2.89522e+07

>  <Rbt.Current_Directory>
/home/itssahil/PROJECTS/Mol_Feturizer/New_Systems/rnas/2fd0

>  <Rbt.Executable>
rbdock ($Id: //depot/dev/client3/rdock/2013.1/src/exe/rbdock.cxx#4 $)

>  <Rbt.Library>
libRbt.so (2013.1, Build901 2013/11/27)

>  <Rbt.Parameter_File>
/export/apps/rDock/src/rDock_2013.1_src/data/scripts/dock_solv.prm

>  <Rbt.Receptor>
prm/pocket_docking_2.prm

>  <SCORE>
-9.63297

>  <SCORE.INTER>
-18.1238

>  <SCORE.INTER.CONST>
1

>  <SCORE.INTER.POLAR>
-2.13663

>  <SCORE.INTER.ROT>
12

>  <SCORE.INTER.SOLV>
14.0184

>  <SCORE.INTER.VDW>
-21.2333

>  <SCORE.INTER.norm>
-0.348535

>  <SCORE.INTRA>
4.47876

>  <SCORE.INTRA.DIHEDRAL>
4.9185

>  <SCORE.INTRA.DIHEDRAL.0>
23.9727

>  <SCORE.INTRA.POLAR>
0

>  <SCORE.INTRA.POLAR.0>
0

>  <SCORE.INTRA.REPUL>
0

>  <SCORE.INTRA.REPUL.0>
0

>  <SCORE.INTRA.SOLV>
4.13041

>  <SCORE.INTRA.SOLV.lig_0>
-115.028

>  <SCORE.INTRA.VDW>
-0.045694

>  <SCORE.INTRA.VDW.0>
-6.82393

>  <SCORE.INTRA.norm>
0.08613

>  <SCORE.RESTR>
4.01211

>  <SCORE.RESTR.CAVITY>
4.01211

>  <SCORE.RESTR.norm>
0.077156

>  <SCORE.SYSTEM>
0

>  <SCORE.SYSTEM.CONST>
0

>  <SCORE.SYSTEM.DIHEDRAL>
0

>  <SCORE.SYSTEM.SOLV>
0

>  <SCORE.SYSTEM.norm>
0

>  <SCORE.heavy>
52

>  <SCORE.norm>
-0.185249

>  <RMSD>
2.193

$$$$
2fd0_lig
 OpenBabel11021811433D
libRbt.so/2013.1/901 2013/11/27
 52 56  0  0  0  0  0  0  0  0999 V2000
    6.4119  -47.9979   15.2370 C   0  0  2  0  0  0  0  0  0  0  0  0
    6.6017  -48.2841   13.8445 O   0  0  0  0  0  0  0  0  0  0  0  0
    7.1460  -44.4323   11.9057 C   0  0  2  0  0  0  0  0  0  0  0  0
    7.6202  -43.3864   10.9847 N   0  0  0  0  0  0  0  0  0  0  0  0
    4.0731  -47.5885   10.6086 C   0  0  1  0  0  0  0  0  0  0  0  0
    1.3758  -50.0521    8.2876 C   0  0  1  0  0  0  0  0  0  0  0  0
   -2.9098  -51.5895    5.7993 C   0  0  1  0  0  0  0  0  0  0  0  0
    6.5392  -49.3403   16.0453 C   0  0  2  0  0  0  0  0  0  0  0  0
    7.8189  -49.9950   15.8115 N   0  0  0  0  0  0  0  0  0  0  0  0
    8.3757  -45.0963   12.6673 C   0  0  0  0  0  0  0  0  0  0  0  0
    3.6743  -48.9634   10.1044 C   0  0  2  0  0  0  0  0  0  0  0  0
    4.1816  -49.2287    8.7663 O   0  0  0  0  0  0  0  0  0  0  0  0
    0.6679  -49.6722    6.9041 C   0  0  2  0  0  0  0  0  0  0  0  0
   -0.5842  -48.9065    7.1518 N   0  0  0  0  0  0  0  0  0  0  0  0
   -3.8770  -50.6960    6.6079 C   0  0  1  0  0  0  0  0  0  0  0  0
   -3.4067  -49.3262    6.5591 O   0  0  0  0  0  0  0  0  0  0  0  0
    5.3360  -50.2976   15.7104 C   0  0  0  0  0  0  0  0  0  0  0  0
    7.8560  -46.2270   13.6776 C   0  0  2  0  0  0  0  0  0  0  0  0
    8.9743  -46.8591   14.3930 N   0  0  0  0  0  0  0  0  0  0  0  0
    2.1624  -48.9555   10.2558 C   0  0  2  0  0  0  0  0  0  0  0  0
    1.5227  -48.8656    9.0118 O   0  0  0  0  0  0  0  0  0  0  0  0
    0.4923  -51.0397    6.0614 C   0  0  1  0  0  0  0  0  0  0  0  0
    1.7928  -51.6361    5.9069 O   0  0  0  0  0  0  0  0  0  0  0  0
   -5.3741  -50.7067    6.1960 C   0  0  1  0  0  0  0  0  0  0  0  0
   -5.5851  -49.6326    5.2709 O   0  0  0  0  0  0  0  0  0  0  0  0
    4.0008  -49.5345   15.9928 C   0  0  2  0  0  0  0  0  0  0  0  0
    2.8844  -50.3753   15.7186 O   0  0  0  0  0  0  0  0  0  0  0  0
    7.0595  -47.2965   12.8791 C   0  0  2  0  0  0  0  0  0  0  0  0
    1.7478  -47.6758   11.0206 C   0  0  2  0  0  0  0  0  0  0  0  0
    3.0001  -47.1335   11.4145 O   0  0  0  0  0  0  0  0  0  0  0  0
   -0.4178  -52.1197    6.8486 C   0  0  2  0  0  0  0  0  0  0  0  0
   -1.7074  -51.4893    6.9641 O   0  0  0  0  0  0  0  0  0  0  0  0
   -5.8959  -52.0177    5.5639 C   0  0  2  0  0  0  0  0  0  0  0  0
   -7.2070  -52.2313    6.1311 O   0  0  0  0  0  0  0  0  0  0  0  0
    3.9352  -48.2598   15.1036 C   0  0  2  0  0  0  0  0  0  0  0  0
    5.1003  -47.4083   15.4306 O   0  0  0  0  0  0  0  0  0  0  0  0
    5.8761  -46.6866   12.0676 C   0  0  2  0  0  0  0  0  0  0  0  0
    5.2458  -47.7667   11.3381 O   0  0  0  0  0  0  0  0  0  0  0  0
    0.9129  -47.9133   12.2740 C   0  0  0  0  0  0  0  0  0  0  0  0
    0.2466  -46.6779   12.5760 O   0  0  0  0  0  0  0  0  0  0  0  0
    0.1897  -52.2343    8.2340 C   0  0  1  0  0  0  0  0  0  0  0  0
    0.5693  -51.1128    9.0588 O   0  0  0  0  0  0  0  0  0  0  0  0
   -4.9273  -53.1704    5.8141 C   0  0  2  0  0  0  0  0  0  0  0  0
   -3.5457  -52.8944    5.4530 O   0  0  0  0  0  0  0  0  0  0  0  0
    2.6940  -47.4635   15.3529 C   0  0  0  0  0  0  0  0  0  0  0  0
    1.5911  -48.2660   15.0283 O   0  0  0  0  0  0  0  0  0  0  0  0
    6.4063  -45.5709   11.0947 C   0  0  1  0  0  0  0  0  0  0  0  0
    5.2598  -44.9848   10.3866 O   0  0  0  0  0  0  0  0  0  0  0  0
   -0.5946  -53.2166    9.1744 C   0  0  0  0  0  0  0  0  0  0  0  0
    0.1156  -54.4942    9.4247 N   0  0  0  0  0  0  0  0  0  0  0  0
   -5.1939  -54.5792    5.2886 C   0  0  0  0  0  0  0  0  0  0  0  0
   -5.0868  -54.6070    3.8318 O   0  0  0  0  0  0  0  0  0  0  0  0
  1  2  1  6  0  0  0
  1  8  1  0  0  0  0
  1 36  1  0  0  0  0
  3  4  1  6  0  0  0
  3 10  1  0  0  0  0
  3 47  1  0  0  0  0
  5 11  1  0  0  0  0
  5 30  1  0  0  0  0
  5 38  1  1  0  0  0
  6 21  1  1  0  0  0
  6 42  1  0  0  0  0
  7 15  1  0  0  0  0
  7 44  1  0  0  0  0
  7 32  1  1  0  0  0
  8  9  1  6  0  0  0
  8 17  1  0  0  0  0
 11 12  1  6  0  0  0
 11 20  1  0  0  0  0
 13  6  1  0  0  0  0
 13 14  1  1  0  0  0
 15 16  1  6  0  0  0
 15 24  1  0  0  0  0
 17 26  1  0  0  0  0
 18 10  1  0  0  0  0
 18 19  1  6  0  0  0
 20 21  1  6  0  0  0
 20 29  1  0  0  0  0
 22 13  1  0  0  0  0
 22 23  1  1  0  0  0
 24 25  1  6  0  0  0
 24 33  1  0  0  0  0
 26 27  1  6  0  0  0
 26 35  1  0  0  0  0
 28  2  1  1  0  0  0
 28 18  1  0  0  0  0
 29 30  1  0  0  0  0
 29 39  1  1  0  0  0
 31 22  1  0  0  0  0
 31 32  1  1  0  0  0
 31 41  1  0  0  0  0
 33 34  1  1  0  0  0
 33 43  1  0  0  0  0
 35 36  1  0  0  0  0
 35 45  1  1  0  0  0
 37 28  1  0  0  0  0
 37 38  1  6  0  0  0
 39 40  1  0  0  0  0
 41 42  1  0  0  0  0
 41 49  1  1  0  0  0
 43 44  1  0  0  0  0
 43 51  1  6  0  0  0
 45 46  1  0  0  0  0
 47 37  1  0  0  0  0
 47 48  1  1  0  0  0
 49 50  1  0  0  0  0
 51 52  1  0  0  0  0
M  END
>  <CHROM.1>
-155.48583728,-175.03397115,-178.20107259,-179.07624618,81.86565629,24.70827022
-160.39284563,87.49005412,-61.53745078,173.78854768,107.47951555,68.86244626
1.72873539,-49.35947092,10.22750591,0.36043461,0.66995100,2.03765577

>  <Name>
2fd0_lig

>  <RI>
2.89522e+07

>  <Rbt.Current_Directory>
/home/itssahil/PROJECTS/Mol_Feturizer/New_Systems/rnas/2fd0

>  <Rbt.Executable>
rbdock ($Id: //depot/dev/client3/rdock/2013.1/src/exe/rbdock.cxx#4 $)

>  <Rbt.Library>
libRbt.so (2013.1, Build901 2013/11/27)

>  <Rbt.Parameter_File>
/export/apps/rDock/src/rDock_2013.1_src/data/scripts/dock_solv.prm

>  <Rbt.Receptor>
prm/pocket_docking_2.prm

>  <SCORE>
1.3215

>  <SCORE.INTER>
1.12388

>  <SCORE.INTER.CONST>
1

>  <SCORE.INTER.POLAR>
-0.0350918

>  <SCORE.INTER.ROT>
12

>  <SCORE.INTER.SOLV>
15.7106

>  <SCORE.INTER.VDW>
-15.9707

>  <SCORE.INTER.norm>
0.0216132

>  <SCORE.INTRA>
-1.16958

>  <SCORE.INTRA.DIHEDRAL>
-5.21304

>  <SCORE.INTRA.DIHEDRAL.0>
23.9727

>  <SCORE.INTRA.POLAR>
0

>  <SCORE.INTRA.POLAR.0>
0

>  <SCORE.INTRA.REPUL>
0

>  <SCORE.INTRA.REPUL.0>
0

>  <SCORE.INTRA.SOLV>
-1.56925

>  <SCORE.INTRA.SOLV.lig_0>
-115.028

>  <SCORE.INTRA.VDW>
2.22156

>  <SCORE.INTRA.VDW.0>
-6.82393

>  <SCORE.INTRA.norm>
-0.022492

>  <SCORE.RESTR>
1.3672

>  <SCORE.RESTR.CAVITY>
1.3672

>  <SCORE.RESTR.norm>
0.0262923

>  <SCORE.SYSTEM>
0

>  <SCORE.SYSTEM.CONST>
0

>  <SCORE.SYSTEM.DIHEDRAL>
0

>  <SCORE.SYSTEM.SOLV>
0

>  <SCORE.SYSTEM.norm>
0

>  <SCORE.heavy>
52

>  <SCORE.norm>
0.0254135

>  <RMSD>
2.232

$$$$
2fd0_lig
 OpenBabel11021811433D
libRbt.so/2013.1/901 2013/11/27
 52 56  0  0  0  0  0  0  0  0999 V2000
    4.9972  -49.8145   15.0126 C   0  0  2  0  0  0  0  0  0  0  0  0
    5.5475  -48.5065   15.2206 O   0  0  0  0  0  0  0  0  0  0  0  0
    7.5546  -45.3803   12.9642 C   0  0  2  0  0  0  0  0  0  0  0  0
    8.5061  -44.6860   12.0813 N   0  0  0  0  0  0  0  0  0  0  0  0
    4.1498  -48.0569   11.3581 C   0  0  1  0  0  0  0  0  0  0  0  0
    1.5602  -50.3867    8.8275 C   0  0  1  0  0  0  0  0  0  0  0  0
   -2.0857  -51.3790    5.5506 C   0  0  1  0  0  0  0  0  0  0  0  0
    3.9786  -50.1184   16.1708 C   0  0  2  0  0  0  0  0  0  0  0  0
    2.9293  -49.1115   16.2485 N   0  0  0  0  0  0  0  0  0  0  0  0
    8.3282  -46.0901   14.1604 C   0  0  0  0  0  0  0  0  0  0  0  0
    3.5634  -49.4052   10.9817 C   0  0  2  0  0  0  0  0  0  0  0  0
    4.2642  -50.0186    9.8633 O   0  0  0  0  0  0  0  0  0  0  0  0
    1.2135  -50.1564    7.2828 C   0  0  2  0  0  0  0  0  0  0  0  0
    0.0889  -49.1921    7.1387 N   0  0  0  0  0  0  0  0  0  0  0  0
   -2.6707  -52.8091    5.5313 C   0  0  1  0  0  0  0  0  0  0  0  0
   -3.7903  -52.8736    6.4492 O   0  0  0  0  0  0  0  0  0  0  0  0
    4.7362  -50.2638   17.5425 C   0  0  0  0  0  0  0  0  0  0  0  0
    7.2892  -46.8360   15.1265 C   0  0  2  0  0  0  0  0  0  0  0  0
    7.9795  -47.5033   16.2401 N   0  0  0  0  0  0  0  0  0  0  0  0
    2.0952  -49.0861   10.7555 C   0  0  2  0  0  0  0  0  0  0  0  0
    1.7656  -49.1254    9.3936 O   0  0  0  0  0  0  0  0  0  0  0  0
    0.9723  -51.6107    6.6211 C   0  0  1  0  0  0  0  0  0  0  0  0
    2.1547  -52.4007    6.8423 O   0  0  0  0  0  0  0  0  0  0  0  0
   -3.1370  -53.3727    4.1617 C   0  0  1  0  0  0  0  0  0  0  0  0
   -4.5350  -53.0897    4.0207 O   0  0  0  0  0  0  0  0  0  0  0  0
    5.8368  -51.3635   17.3878 C   0  0  2  0  0  0  0  0  0  0  0  0
    6.5352  -51.5389   18.6164 O   0  0  0  0  0  0  0  0  0  0  0  0
    6.4802  -47.8744   14.3000 C   0  0  2  0  0  0  0  0  0  0  0  0
    1.8318  -47.6265   11.1965 C   0  0  2  0  0  0  0  0  0  0  0  0
    3.0644  -47.2602   11.7999 O   0  0  0  0  0  0  0  0  0  0  0  0
   -0.2472  -52.4005    7.3306 C   0  0  2  0  0  0  0  0  0  0  0  0
   -1.4054  -51.5857    7.0695 O   0  0  0  0  0  0  0  0  0  0  0  0
   -2.3927  -52.8368    2.9170 C   0  0  2  0  0  0  0  0  0  0  0  0
   -2.1957  -53.9799    2.0561 O   0  0  0  0  0  0  0  0  0  0  0  0
    6.8318  -50.9458   16.2674 C   0  0  2  0  0  0  0  0  0  0  0  0
    6.0707  -50.7907   15.0081 O   0  0  0  0  0  0  0  0  0  0  0  0
    5.7486  -47.2367   13.0797 C   0  0  2  0  0  0  0  0  0  0  0  0
    5.0735  -48.3032   12.3706 O   0  0  0  0  0  0  0  0  0  0  0  0
    0.7229  -47.4526   12.2283 C   0  0  0  0  0  0  0  0  0  0  0  0
   -0.4791  -47.9805   11.6472 O   0  0  0  0  0  0  0  0  0  0  0  0
    0.0481  -52.3578    8.8180 C   0  0  1  0  0  0  0  0  0  0  0  0
    0.4472  -51.1750    9.5418 O   0  0  0  0  0  0  0  0  0  0  0  0
   -1.0940  -52.1396    3.3128 C   0  0  2  0  0  0  0  0  0  0  0  0
   -1.2364  -51.1292    4.3493 O   0  0  0  0  0  0  0  0  0  0  0  0
    7.8926  -51.9764   16.0445 C   0  0  0  0  0  0  0  0  0  0  0  0
    7.3024  -53.0751   15.4041 O   0  0  0  0  0  0  0  0  0  0  0  0
    6.7839  -46.4988   12.1542 C   0  0  1  0  0  0  0  0  0  0  0  0
    6.0535  -45.8680   11.0461 O   0  0  0  0  0  0  0  0  0  0  0  0
   -1.0630  -53.0436    9.6896 C   0  0  0  0  0  0  0  0  0  0  0  0
   -1.1179  -54.5171    9.5314 N   0  0  0  0  0  0  0  0  0  0  0  0
   -0.1670  -51.5078    2.2767 C   0  0  0  0  0  0  0  0  0  0  0  0
    1.0422  -50.9990    2.9197 O   0  0  0  0  0  0  0  0  0  0  0  0
  1  2  1  1  0  0  0
  1  8  1  0  0  0  0
  1 36  1  0  0  0  0
  3  4  1  6  0  0  0
  3 10  1  0  0  0  0
  3 47  1  0  0  0  0
  5 11  1  0  0  0  0
  5 30  1  0  0  0  0
  5 38  1  1  0  0  0
  6 21  1  1  0  0  0
  6 42  1  0  0  0  0
  7 15  1  0  0  0  0
  7 44  1  0  0  0  0
  7 32  1  1  0  0  0
  8  9  1  1  0  0  0
  8 17  1  0  0  0  0
 11 12  1  6  0  0  0
 11 20  1  0  0  0  0
 13  6  1  0  0  0  0
 13 14  1  1  0  0  0
 15 16  1  1  0  0  0
 15 24  1  0  0  0  0
 17 26  1  0  0  0  0
 18 10  1  0  0  0  0
 18 19  1  1  0  0  0
 20 21  1  6  0  0  0
 20 29  1  0  0  0  0
 22 13  1  0  0  0  0
 22 23  1  1  0  0  0
 24 25  1  6  0  0  0
 24 33  1  0  0  0  0
 26 27  1  1  0  0  0
 26 35  1  0  0  0  0
 28  2  1  1  0  0  0
 28 18  1  0  0  0  0
 29 30  1  0  0  0  0
 29 39  1  1  0  0  0
 31 22  1  0  0  0  0
 31 32  1  1  0  0  0
 31 41  1  0  0  0  0
 33 34  1  6  0  0  0
 33 43  1  0  0  0  0
 35 36  1  0  0  0  0
 35 45  1  6  0  0  0
 37 28  1  0  0  0  0
 37 38  1  6  0  0  0
 39 40  1  0  0  0  0
 41 42  1  0  0  0  0
 41 49  1  1  0  0  0
 43 44  1  0  0  0  0
 43 51  1  6  0  0  0
 45 46  1  0  0  0  0
 47 37  1  0  0  0  0
 47 48  1  6  0  0  0
 49 50  1  0  0  0  0
 51 52  1  0  0  0  0
M  END
>  <CHROM.1>
-176.96780579,-173.89773635,-179.56257989,72.74746241,79.35885147,-155.53670608
-59.14497986,68.63617013,72.35135629,169.32484896,69.27777108,-175.92418515
2.54489578,-50.11594911,10.42526601,0.49663018,0.82639626,2.17362896

>  <Name>
2fd0_lig

>  <RI>
2.00683e+07

>  <Rbt.Current_Directory>
/home/itssahil/PROJECTS/Mol_Feturizer/New_Systems/rnas/2fd0

>  <Rbt.Executable>
rbdock ($Id: //depot/dev/client3/rdock/2013.1/src/exe/rbdock.cxx#4 $)

>  <Rbt.Library>
libRbt.so (2013.1, Build901 2013/11/27)

>  <Rbt.Parameter_File>
/export/apps/rDock/src/rDock_2013.1_src/data/scripts/dock_solv.prm

>  <Rbt.Receptor>
prm/pocket_docking_4.prm

>  <SCORE>
-26.8974

>  <SCORE.INTER>
-18.0867

>  <SCORE.INTER.CONST>
1

>  <SCORE.INTER.POLAR>
-1.82134

>  <SCORE.INTER.ROT>
12

>  <SCORE.INTER.SOLV>
18.6796

>  <SCORE.INTER.VDW>
-23.8132

>  <SCORE.INTER.norm>
-0.347821

>  <SCORE.INTRA>
-8.83001

>  <SCORE.INTRA.DIHEDRAL>
-15.3848

>  <SCORE.INTRA.DIHEDRAL.0>
23.9727

>  <SCORE.INTRA.POLAR>
0

>  <SCORE.INTRA.POLAR.0>
0

>  <SCORE.INTRA.REPUL>
0

>  <SCORE.INTRA.REPUL.0>
0

>  <SCORE.INTRA.SOLV>
-3.62425

>  <SCORE.INTRA.SOLV.lig_0>
-115.028

>  <SCORE.INTRA.VDW>
0.674511

>  <SCORE.INTRA.VDW.0>
-6.82393

>  <SCORE.INTRA.norm>
-0.169808

>  <SCORE.RESTR>
0.0193084

>  <SCORE.RESTR.CAVITY>
0.0193084

>  <SCORE.RESTR.norm>
0.000371315

>  <SCORE.SYSTEM>
0

>  <SCORE.SYSTEM.CONST>
0

>  <SCORE.SYSTEM.DIHEDRAL>
0

>  <SCORE.SYSTEM.SOLV>
0

>  <SCORE.SYSTEM.norm>
0

>  <SCORE.heavy>
52

>  <SCORE.norm>
-0.517257

>  <RMSD>
2.435

$$$$
2fd0_lig
 OpenBabel11021811433D
libRbt.so/2013.1/901 2013/11/27
 52 56  0  0  0  0  0  0  0  0999 V2000
    4.0287  -49.4115   14.0786 C   0  0  2  0  0  0  0  0  0  0  0  0
    4.5212  -48.0702   14.2033 O   0  0  0  0  0  0  0  0  0  0  0  0
    5.4159  -44.6453   11.6810 C   0  0  2  0  0  0  0  0  0  0  0  0
    5.9619  -43.8144   10.5954 N   0  0  0  0  0  0  0  0  0  0  0  0
    3.4810  -48.4652   10.5514 C   0  0  1  0  0  0  0  0  0  0  0  0
    2.0436  -51.9047    8.1947 C   0  0  1  0  0  0  0  0  0  0  0  0
   -2.5845  -51.8090    6.3721 C   0  0  1  0  0  0  0  0  0  0  0  0
    2.8413  -49.6042   15.0908 C   0  0  2  0  0  0  0  0  0  0  0  0
    1.7801  -48.6308   14.8738 N   0  0  0  0  0  0  0  0  0  0  0  0
    6.5963  -45.3380   12.4932 C   0  0  0  0  0  0  0  0  0  0  0  0
    2.4704  -49.5864   10.3927 C   0  0  2  0  0  0  0  0  0  0  0  0
    2.9203  -50.8257   11.0090 O   0  0  0  0  0  0  0  0  0  0  0  0
    1.2776  -51.7951    6.7945 C   0  0  2  0  0  0  0  0  0  0  0  0
    0.5624  -50.4938    6.6915 N   0  0  0  0  0  0  0  0  0  0  0  0
   -3.5525  -50.9279    7.1933 C   0  0  1  0  0  0  0  0  0  0  0  0
   -2.9255  -49.6460    7.4455 O   0  0  0  0  0  0  0  0  0  0  0  0
    3.3707  -49.5545   16.5719 C   0  0  0  0  0  0  0  0  0  0  0  0
    5.9998  -46.2334   13.6815 C   0  0  2  0  0  0  0  0  0  0  0  0
    7.0712  -46.8876   14.4470 N   0  0  0  0  0  0  0  0  0  0  0  0
    2.2454  -49.6309    8.8907 C   0  0  2  0  0  0  0  0  0  0  0  0
    2.8403  -50.7627    8.3162 O   0  0  0  0  0  0  0  0  0  0  0  0
    0.3520  -53.1114    6.6474 C   0  0  1  0  0  0  0  0  0  0  0  0
    1.2027  -54.2669    6.7583 O   0  0  0  0  0  0  0  0  0  0  0  0
   -4.9621  -50.6662    6.5969 C   0  0  1  0  0  0  0  0  0  0  0  0
   -4.9068  -49.4415    5.8544 O   0  0  0  0  0  0  0  0  0  0  0  0
    4.4961  -50.6278   16.7334 C   0  0  2  0  0  0  0  0  0  0  0  0
    4.9905  -50.6274   18.0690 O   0  0  0  0  0  0  0  0  0  0  0  0
    5.0417  -47.3009   13.0833 C   0  0  2  0  0  0  0  0  0  0  0  0
    2.9636  -48.4214    8.2460 C   0  0  2  0  0  0  0  0  0  0  0  0
    3.3872  -47.6759    9.3784 O   0  0  0  0  0  0  0  0  0  0  0  0
   -0.7317  -53.2224    7.8422 C   0  0  2  0  0  0  0  0  0  0  0  0
   -1.5668  -52.0604    7.6811 O   0  0  0  0  0  0  0  0  0  0  0  0
   -5.5308  -51.7766    5.6837 C   0  0  2  0  0  0  0  0  0  0  0  0
   -6.9279  -51.8926    6.0316 O   0  0  0  0  0  0  0  0  0  0  0  0
    5.6526  -50.3183   15.7402 C   0  0  2  0  0  0  0  0  0  0  0  0
    5.1016  -50.3447   14.3671 O   0  0  0  0  0  0  0  0  0  0  0  0
    3.8981  -46.6745   12.2284 C   0  0  2  0  0  0  0  0  0  0  0  0
    3.1071  -47.7631   11.6943 O   0  0  0  0  0  0  0  0  0  0  0  0
    2.0781  -47.5260    7.3867 C   0  0  0  0  0  0  0  0  0  0  0  0
    2.9185  -46.4928    6.8507 O   0  0  0  0  0  0  0  0  0  0  0  0
    0.0601  -53.0738    9.1277 C   0  0  1  0  0  0  0  0  0  0  0  0
    1.0553  -52.0565    9.3655 O   0  0  0  0  0  0  0  0  0  0  0  0
   -4.7500  -53.0774    5.8510 C   0  0  2  0  0  0  0  0  0  0  0  0
   -3.3074  -52.9425    5.7243 O   0  0  0  0  0  0  0  0  0  0  0  0
    6.7489  -51.3327   15.8197 C   0  0  0  0  0  0  0  0  0  0  0  0
    7.4278  -51.1436   17.0317 O   0  0  0  0  0  0  0  0  0  0  0  0
    4.5052  -45.7897   11.0790 C   0  0  1  0  0  0  0  0  0  0  0  0
    3.4008  -45.1759   10.3288 O   0  0  0  0  0  0  0  0  0  0  0  0
   -0.8375  -53.1097   10.4151 C   0  0  0  0  0  0  0  0  0  0  0  0
   -0.1195  -52.7166   11.6518 N   0  0  0  0  0  0  0  0  0  0  0  0
   -5.0954  -54.3356    5.0575 C   0  0  0  0  0  0  0  0  0  0  0  0
   -6.4507  -54.7800    5.3739 O   0  0  0  0  0  0  0  0  0  0  0  0
  1  2  1  1  0  0  0
  1  8  1  0  0  0  0
  1 36  1  0  0  0  0
  3  4  1  6  0  0  0
  3 10  1  0  0  0  0
  3 47  1  0  0  0  0
  5 11  1  0  0  0  0
  5 30  1  0  0  0  0
  5 38  1  1  0  0  0
  6 21  1  1  0  0  0
  6 42  1  0  0  0  0
  7 15  1  0  0  0  0
  7 44  1  0  0  0  0
  7 32  1  1  0  0  0
  8  9  1  1  0  0  0
  8 17  1  0  0  0  0
 11 12  1  6  0  0  0
 11 20  1  0  0  0  0
 13  6  1  0  0  0  0
 13 14  1  1  0  0  0
 15 16  1  6  0  0  0
 15 24  1  0  0  0  0
 17 26  1  0  0  0  0
 18 10  1  0  0  0  0
 18 19  1  6  0  0  0
 20 21  1  6  0  0  0
 20 29  1  0  0  0  0
 22 13  1  0  0  0  0
 22 23  1  1  0  0  0
 24 25  1  6  0  0  0
 24 33  1  0  0  0  0
 26 27  1  1  0  0  0
 26 35  1  0  0  0  0
 28  2  1  1  0  0  0
 28 18  1  0  0  0  0
 29 30  1  0  0  0  0
 29 39  1  6  0  0  0
 31 22  1  0  0  0  0
 31 32  1  6  0  0  0
 31 41  1  0  0  0  0
 33 34  1  1  0  0  0
 33 43  1  0  0  0  0
 35 36  1  0  0  0  0
 35 45  1  6  0  0  0
 37 28  1  0  0  0  0
 37 38  1  6  0  0  0
 39 40  1  0  0  0  0
 41 42  1  0  0  0  0
 41 49  1  1  0  0  0
 43 44  1  0  0  0  0
 43 51  1  6  0  0  0
 45 46  1  0  0  0  0
 47 37  1  0  0  0  0
 47 48  1  1  0  0  0
 49 50  1  0  0  0  0
 51 52  1  0  0  0  0
M  END
>  <CHROM.1>
-145.91060969,175.23179665,87.80319528,152.75944530,91.96055527,-155.78017921
-178.44559260,66.41598254,-71.36965970,-82.11021389,-169.26092052,-61.79811571
1.50203664,-49.97675025,10.23627300,0.20069739,0.76764910,2.38129779

>  <Name>
2fd0_lig

>  <RI>
1.29864e+07

>  <Rbt.Current_Directory>
/home/itssahil/PROJECTS/Mol_Feturizer/New_Systems/rnas/2fd0

>  <Rbt.Executable>
rbdock ($Id: //depot/dev/client3/rdock/2013.1/src/exe/rbdock.cxx#4 $)

>  <Rbt.Library>
libRbt.so (2013.1, Build901 2013/11/27)

>  <Rbt.Parameter_File>
/export/apps/rDock/src/rDock_2013.1_src/data/scripts/dock_solv.prm

>  <Rbt.Receptor>
prm/pocket_docking_3.prm

>  <SCORE>
-15.3508

>  <SCORE.INTER>
-15.8901

>  <SCORE.INTER.CONST>
1

>  <SCORE.INTER.POLAR>
-1.53304

>  <SCORE.INTER.ROT>
12

>  <SCORE.INTER.SOLV>
14.5766

>  <SCORE.INTER.VDW>
-21.9421

>  <SCORE.INTER.norm>
-0.305578

>  <SCORE.INTRA>
0.531098

>  <SCORE.INTRA.DIHEDRAL>
-2.0814

>  <SCORE.INTRA.DIHEDRAL.0>
23.9727

>  <SCORE.INTRA.POLAR>
0

>  <SCORE.INTRA.POLAR.0>
0

>  <SCORE.INTRA.REPUL>
0

>  <SCORE.INTRA.REPUL.0>
0

>  <SCORE.INTRA.SOLV>
0.723295

>  <SCORE.INTRA.SOLV.lig_0>
-115.028

>  <SCORE.INTRA.VDW>
1.21015

>  <SCORE.INTRA.VDW.0>
-6.82393

>  <SCORE.INTRA.norm>
0.0102134

>  <SCORE.RESTR>
0.00818754

>  <SCORE.RESTR.CAVITY>
0.00818754

>  <SCORE.RESTR.norm>
0.000157453

>  <SCORE.SYSTEM>
0

>  <SCORE.SYSTEM.CONST>
0

>  <SCORE.SYSTEM.DIHEDRAL>
0

>  <SCORE.SYSTEM.SOLV>
0

>  <SCORE.SYSTEM.norm>
0

>  <SCORE.heavy>
52

>  <SCORE.norm>
-0.295207

>  <RMSD>
2.480

$$$$
2fd0_lig
 OpenBabel11021811433D
libRbt.so/2013.1/901 2013/11/27
 52 56  0  0  0  0  0  0  0  0999 V2000
    4.6724  -49.7655   14.6919 C   0  0  2  0  0  0  0  0  0  0  0  0
    5.2320  -48.4653   14.9225 O   0  0  0  0  0  0  0  0  0  0  0  0
    7.2731  -45.4957   12.4918 C   0  0  2  0  0  0  0  0  0  0  0  0
    8.2912  -44.8275   11.6648 N   0  0  0  0  0  0  0  0  0  0  0  0
    4.2672  -48.8602   11.0876 C   0  0  1  0  0  0  0  0  0  0  0  0
    1.3999  -49.3650    9.5146 C   0  0  1  0  0  0  0  0  0  0  0  0
   -0.5362  -50.2623    5.2062 C   0  0  1  0  0  0  0  0  0  0  0  0
    3.5381  -50.0165   15.7511 C   0  0  2  0  0  0  0  0  0  0  0  0
    2.5117  -48.9847   15.7016 N   0  0  0  0  0  0  0  0  0  0  0  0
    7.8834  -45.8891   13.9080 C   0  0  0  0  0  0  0  0  0  0  0  0
    3.0210  -48.2942   11.7434 C   0  0  2  0  0  0  0  0  0  0  0  0
    2.1930  -49.3311   12.3413 O   0  0  0  0  0  0  0  0  0  0  0  0
    1.5941  -49.0864    7.9513 C   0  0  2  0  0  0  0  0  0  0  0  0
    0.4790  -48.2510    7.4278 N   0  0  0  0  0  0  0  0  0  0  0  0
   -2.0464  -49.9352    5.1960 C   0  0  1  0  0  0  0  0  0  0  0  0
   -2.2774  -48.7469    5.9926 O   0  0  0  0  0  0  0  0  0  0  0  0
    4.1540  -50.1437   17.1936 C   0  0  0  0  0  0  0  0  0  0  0  0
    6.7700  -46.6065   14.8108 C   0  0  2  0  0  0  0  0  0  0  0  0
    7.3097  -46.9832   16.1256 N   0  0  0  0  0  0  0  0  0  0  0  0
    2.3812  -47.4927   10.6223 C   0  0  2  0  0  0  0  0  0  0  0  0
    1.2287  -48.1236   10.1337 O   0  0  0  0  0  0  0  0  0  0  0  0
    1.7906  -50.5177    7.2276 C   0  0  1  0  0  0  0  0  0  0  0  0
    2.9097  -51.1780    7.8461 O   0  0  0  0  0  0  0  0  0  0  0  0
   -2.7242  -49.7287    3.8144 C   0  0  1  0  0  0  0  0  0  0  0  0
   -2.6940  -48.3279    3.5127 O   0  0  0  0  0  0  0  0  0  0  0  0
    5.2367  -51.2716   17.1737 C   0  0  2  0  0  0  0  0  0  0  0  0
    5.8070  -51.4310   18.4689 O   0  0  0  0  0  0  0  0  0  0  0  0
    6.2456  -47.8665   14.0672 C   0  0  2  0  0  0  0  0  0  0  0  0
    3.3598  -47.4476    9.4245 C   0  0  2  0  0  0  0  0  0  0  0  0
    4.5332  -48.0394    9.9636 O   0  0  0  0  0  0  0  0  0  0  0  0
    0.5113  -51.4825    7.4437 C   0  0  2  0  0  0  0  0  0  0  0  0
   -0.5746  -50.7925    6.7968 O   0  0  0  0  0  0  0  0  0  0  0  0
   -2.1047  -50.5063    2.6302 C   0  0  2  0  0  0  0  0  0  0  0  0
   -3.2214  -50.9906    1.8525 O   0  0  0  0  0  0  0  0  0  0  0  0
    6.3467  -50.9052   16.1473 C   0  0  2  0  0  0  0  0  0  0  0  0
    5.7165  -50.7654   14.8158 O   0  0  0  0  0  0  0  0  0  0  0  0
    5.6885  -47.5416   12.6477 C   0  0  2  0  0  0  0  0  0  0  0  0
    5.2761  -48.7917   12.0449 O   0  0  0  0  0  0  0  0  0  0  0  0
    3.7123  -46.0494    8.9295 C   0  0  0  0  0  0  0  0  0  0  0  0
    2.4950  -45.4496    8.4610 O   0  0  0  0  0  0  0  0  0  0  0  0
    0.2546  -51.4930    8.9388 C   0  0  1  0  0  0  0  0  0  0  0  0
    0.2173  -50.3164    9.7733 O   0  0  0  0  0  0  0  0  0  0  0  0
   -1.1797  -51.6145    3.1260 C   0  0  2  0  0  0  0  0  0  0  0  0
   -0.1786  -51.1864    4.0904 O   0  0  0  0  0  0  0  0  0  0  0  0
    7.3982  -51.9648   16.0539 C   0  0  0  0  0  0  0  0  0  0  0  0
    8.1368  -51.9492   17.2455 O   0  0  0  0  0  0  0  0  0  0  0  0
    6.7916  -46.8261   11.7852 C   0  0  1  0  0  0  0  0  0  0  0  0
    6.2157  -46.4896   10.4758 O   0  0  0  0  0  0  0  0  0  0  0  0
   -0.9949  -52.3516    9.3464 C   0  0  0  0  0  0  0  0  0  0  0  0
   -1.1421  -52.5293   10.8113 N   0  0  0  0  0  0  0  0  0  0  0  0
   -0.4276  -52.5310    2.1636 C   0  0  0  0  0  0  0  0  0  0  0  0
    0.3618  -53.5104    2.9067 O   0  0  0  0  0  0  0  0  0  0  0  0
  1  2  1  1  0  0  0
  1  8  1  0  0  0  0
  1 36  1  0  0  0  0
  3  4  1  6  0  0  0
  3 10  1  0  0  0  0
  3 47  1  0  0  0  0
  5 11  1  0  0  0  0
  5 30  1  0  0  0  0
  5 38  1  1  0  0  0
  6 21  1  1  0  0  0
  6 42  1  0  0  0  0
  7 15  1  0  0  0  0
  7 44  1  0  0  0  0
  7 32  1  1  0  0  0
  8  9  1  1  0  0  0
  8 17  1  0  0  0  0
 11 12  1  6  0  0  0
 11 20  1  0  0  0  0
 13  6  1  0  0  0  0
 13 14  1  6  0  0  0
 15 16  1  1  0  0  0
 15 24  1  0  0  0  0
 17 26  1  0  0  0  0
 18 10  1  0  0  0  0
 18 19  1  1  0  0  0
 20 21  1  6  0  0  0
 20 29  1  0  0  0  0
 22 13  1  0  0  0  0
 22 23  1  1  0  0  0
 24 25  1  6  0  0  0
 24 33  1  0  0  0  0
 26 27  1  1  0  0  0
 26 35  1  0  0  0  0
 28  2  1  1  0  0  0
 28 18  1  0  0  0  0
 29 30  1  0  0  0  0
 29 39  1  1  0  0  0
 31 22  1  0  0  0  0
 31 32  1  6  0  0  0
 31 41  1  0  0  0  0
 33 34  1  1  0  0  0
 33 43  1  0  0  0  0
 35 36  1  0  0  0  0
 35 45  1  6  0  0  0
 37 28  1  0  0  0  0
 37 38  1  6  0  0  0
 39 40  1  0  0  0  0
 41 42  1  0  0  0  0
 41 49  1  6  0  0  0
 43 44  1  0  0  0  0
 43 51  1  6  0  0  0
 45 46  1  0  0  0  0
 47 37  1  0  0  0  0
 47 48  1  6  0  0  0
 49 50  1  0  0  0  0
 51 52  1  0  0  0  0
M  END
>  <CHROM.1>
-175.62015102,-59.02000447,-91.98884063,169.31281067,-64.33817579,-169.13558899
-62.79300639,53.76652744,-70.18960505,152.33453902,171.70764717,-179.00703219
2.73118197,-49.37943720,10.24626494,0.57799184,0.83346971,2.26495428

>  <Name>
2fd0_lig

>  <RI>
2.00683e+07

>  <Rbt.Current_Directory>
/home/itssahil/PROJECTS/Mol_Feturizer/New_Systems/rnas/2fd0

>  <Rbt.Executable>
rbdock ($Id: //depot/dev/client3/rdock/2013.1/src/exe/rbdock.cxx#4 $)

>  <Rbt.Library>
libRbt.so (2013.1, Build901 2013/11/27)

>  <Rbt.Parameter_File>
/export/apps/rDock/src/rDock_2013.1_src/data/scripts/dock_solv.prm

>  <Rbt.Receptor>
prm/pocket_docking_4.prm

>  <SCORE>
-21.7767

>  <SCORE.INTER>
-19.8667

>  <SCORE.INTER.CONST>
1

>  <SCORE.INTER.POLAR>
-1.72827

>  <SCORE.INTER.ROT>
12

>  <SCORE.INTER.SOLV>
16.7338

>  <SCORE.INTER.VDW>
-24.6615

>  <SCORE.INTER.norm>
-0.382052

>  <SCORE.INTRA>
-1.91004

>  <SCORE.INTRA.DIHEDRAL>
-13.0436

>  <SCORE.INTRA.DIHEDRAL.0>
23.9727

>  <SCORE.INTRA.POLAR>
0

>  <SCORE.INTRA.POLAR.0>
0

>  <SCORE.INTRA.REPUL>
0

>  <SCORE.INTRA.REPUL.0>
0

>  <SCORE.INTRA.SOLV>
0.191202

>  <SCORE.INTRA.SOLV.lig_0>
-115.028

>  <SCORE.INTRA.VDW>
4.51616

>  <SCORE.INTRA.VDW.0>
-6.82393

>  <SCORE.INTRA.norm>
-0.0367316

>  <SCORE.RESTR>
0

>  <SCORE.RESTR.CAVITY>
0

>  <SCORE.RESTR.norm>
0

>  <SCORE.SYSTEM>
0

>  <SCORE.SYSTEM.CONST>
0

>  <SCORE.SYSTEM.DIHEDRAL>
0

>  <SCORE.SYSTEM.SOLV>
0

>  <SCORE.SYSTEM.norm>
0

>  <SCORE.heavy>
52

>  <SCORE.norm>
-0.418783

>  <RMSD>
2.483

$$$$
2fd0_lig
 OpenBabel11021811433D
libRbt.so/2013.1/901 2013/11/27
 52 56  0  0  0  0  0  0  0  0999 V2000
    6.7109  -47.0058   14.8105 C   0  0  2  0  0  0  0  0  0  0  0  0
    7.5518  -47.3883   13.7134 O   0  0  0  0  0  0  0  0  0  0  0  0
    7.9416  -43.7168   11.4198 C   0  0  2  0  0  0  0  0  0  0  0  0
    8.3030  -42.7660   10.3557 N   0  0  0  0  0  0  0  0  0  0  0  0
    4.5820  -46.7620   10.8290 C   0  0  1  0  0  0  0  0  0  0  0  0
    1.8052  -49.0241    8.3424 C   0  0  1  0  0  0  0  0  0  0  0  0
   -2.8203  -50.8427    6.4968 C   0  0  1  0  0  0  0  0  0  0  0  0
    7.5942  -46.9094   16.1075 C   0  0  2  0  0  0  0  0  0  0  0  0
    8.7011  -45.9777   15.9420 N   0  0  0  0  0  0  0  0  0  0  0  0
    9.2492  -44.3974   12.0197 C   0  0  0  0  0  0  0  0  0  0  0  0
    4.2372  -48.0572   10.1168 C   0  0  2  0  0  0  0  0  0  0  0  0
    4.6462  -48.0443    8.7202 O   0  0  0  0  0  0  0  0  0  0  0  0
    1.1076  -48.4385    7.0271 C   0  0  2  0  0  0  0  0  0  0  0  0
   -0.1139  -47.6667    7.3840 N   0  0  0  0  0  0  0  0  0  0  0  0
   -2.1784  -51.9953    5.6923 C   0  0  1  0  0  0  0  0  0  0  0  0
   -1.5471  -52.9193    6.6129 O   0  0  0  0  0  0  0  0  0  0  0  0
    8.1046  -48.3368   16.5298 C   0  0  0  0  0  0  0  0  0  0  0  0
    8.8540  -45.4240   13.1856 C   0  0  2  0  0  0  0  0  0  0  0  0
   10.0457  -46.0694   13.7557 N   0  0  0  0  0  0  0  0  0  0  0  0
    2.7467  -48.2005   10.3747 C   0  0  2  0  0  0  0  0  0  0  0  0
    1.9991  -47.9501    9.2158 O   0  0  0  0  0  0  0  0  0  0  0  0
    0.8778  -49.6750    6.0126 C   0  0  1  0  0  0  0  0  0  0  0  0
    2.1545  -50.2934    5.7700 O   0  0  0  0  0  0  0  0  0  0  0  0
   -3.1036  -52.8110    4.7490 C   0  0  1  0  0  0  0  0  0  0  0  0
   -3.5846  -53.9479    5.4772 O   0  0  0  0  0  0  0  0  0  0  0  0
    6.8669  -49.2773   16.6976 C   0  0  2  0  0  0  0  0  0  0  0  0
    7.2862  -50.5780   17.0985 O   0  0  0  0  0  0  0  0  0  0  0  0
    7.8870  -46.4976   12.6128 C   0  0  2  0  0  0  0  0  0  0  0  0
    2.3115  -47.1110   11.3837 C   0  0  2  0  0  0  0  0  0  0  0  0
    3.5525  -46.5434   11.7778 O   0  0  0  0  0  0  0  0  0  0  0  0
   -0.0697  -50.8153    6.6576 C   0  0  2  0  0  0  0  0  0  0  0  0
   -1.3342  -50.1586    6.8660 O   0  0  0  0  0  0  0  0  0  0  0  0
   -4.3131  -52.0502    4.1583 C   0  0  2  0  0  0  0  0  0  0  0  0
   -4.4068  -52.4732    2.7803 O   0  0  0  0  0  0  0  0  0  0  0  0
    6.0943  -49.3613   15.3501 C   0  0  2  0  0  0  0  0  0  0  0  0
    5.6633  -47.9953   14.9790 O   0  0  0  0  0  0  0  0  0  0  0  0
    6.6141  -45.8770   11.9605 C   0  0  2  0  0  0  0  0  0  0  0  0
    5.8217  -46.9661   11.4293 O   0  0  0  0  0  0  0  0  0  0  0  0
    1.6043  -47.6297   12.6308 C   0  0  0  0  0  0  0  0  0  0  0  0
    0.9979  -46.4975   13.2723 O   0  0  0  0  0  0  0  0  0  0  0  0
    0.5375  -51.1346    8.0107 C   0  0  1  0  0  0  0  0  0  0  0  0
    0.9618  -50.1470    8.9733 O   0  0  0  0  0  0  0  0  0  0  0  0
   -4.1463  -50.5422    4.3240 C   0  0  2  0  0  0  0  0  0  0  0  0
   -3.8277  -50.1094    5.6756 O   0  0  0  0  0  0  0  0  0  0  0  0
    4.8745  -50.2207   15.4538 C   0  0  0  0  0  0  0  0  0  0  0  0
    4.7836  -50.9879   14.2838 O   0  0  0  0  0  0  0  0  0  0  0  0
    7.0253  -44.8634   10.8308 C   0  0  1  0  0  0  0  0  0  0  0  0
    5.8048  -44.2616   10.2760 O   0  0  0  0  0  0  0  0  0  0  0  0
   -0.2801  -52.2032    8.8195 C   0  0  0  0  0  0  0  0  0  0  0  0
   -0.0042  -52.1851   10.2765 N   0  0  0  0  0  0  0  0  0  0  0  0
   -5.2030  -49.5533    3.8367 C   0  0  0  0  0  0  0  0  0  0  0  0
   -6.0376  -49.1110    4.9512 O   0  0  0  0  0  0  0  0  0  0  0  0
  1  2  1  6  0  0  0
  1  8  1  0  0  0  0
  1 36  1  0  0  0  0
  3  4  1  6  0  0  0
  3 10  1  0  0  0  0
  3 47  1  0  0  0  0
  5 11  1  0  0  0  0
  5 30  1  0  0  0  0
  5 38  1  1  0  0  0
  6 21  1  1  0  0  0
  6 42  1  0  0  0  0
  7 15  1  0  0  0  0
  7 44  1  0  0  0  0
  7 32  1  6  0  0  0
  8  9  1  6  0  0  0
  8 17  1  0  0  0  0
 11 12  1  6  0  0  0
 11 20  1  0  0  0  0
 13  6  1  0  0  0  0
 13 14  1  1  0  0  0
 15 16  1  1  0  0  0
 15 24  1  0  0  0  0
 17 26  1  0  0  0  0
 18 10  1  0  0  0  0
 18 19  1  6  0  0  0
 20 21  1  6  0  0  0
 20 29  1  0  0  0  0
 22 13  1  0  0  0  0
 22 23  1  1  0  0  0
 24 25  1  1  0  0  0
 24 33  1  0  0  0  0
 26 27  1  6  0  0  0
 26 35  1  0  0  0  0
 28  2  1  1  0  0  0
 28 18  1  0  0  0  0
 29 30  1  0  0  0  0
 29 39  1  1  0  0  0
 31 22  1  0  0  0  0
 31 32  1  1  0  0  0
 31 41  1  0  0  0  0
 33 34  1  6  0  0  0
 33 43  1  0  0  0  0
 35 36  1  0  0  0  0
 35 45  1  1  0  0  0
 37 28  1  0  0  0  0
 37 38  1  6  0  0  0
 39 40  1  0  0  0  0
 41 42  1  0  0  0  0
 41 49  1  1  0  0  0
 43 44  1  0  0  0  0
 43 51  1  1  0  0  0
 45 46  1  0  0  0  0
 47 37  1  0  0  0  0
 47 48  1  1  0  0  0
 49 50  1  0  0  0  0
 51 52  1  0  0  0  0
M  END
>  <CHROM.1>
-110.87560269,166.55591656,-172.47746740,-12.16287824,85.61469372,71.06154304
-166.28027333,136.19513280,-139.32843121,177.06494461,-159.79615906,99.79830486
2.69239842,-48.68154869,10.09603372,0.24821661,0.71869429,2.29868288

>  <Name>
2fd0_lig

>  <RI>
2.89522e+07

>  <Rbt.Current_Directory>
/home/itssahil/PROJECTS/Mol_Feturizer/New_Systems/rnas/2fd0

>  <Rbt.Executable>
rbdock ($Id: //depot/dev/client3/rdock/2013.1/src/exe/rbdock.cxx#4 $)

>  <Rbt.Library>
libRbt.so (2013.1, Build901 2013/11/27)

>  <Rbt.Parameter_File>
/export/apps/rDock/src/rDock_2013.1_src/data/scripts/dock_solv.prm

>  <Rbt.Receptor>
prm/pocket_docking_2.prm

>  <SCORE>
12.2937

>  <SCORE.INTER>
-3.83787

>  <SCORE.INTER.CONST>
1

>  <SCORE.INTER.POLAR>
-1.05719

>  <SCORE.INTER.ROT>
12

>  <SCORE.INTER.SOLV>
18.4326

>  <SCORE.INTER.VDW>
-16.7788

>  <SCORE.INTER.norm>
-0.0738052

>  <SCORE.INTRA>
13.8962

>  <SCORE.INTRA.DIHEDRAL>
10.0407

>  <SCORE.INTRA.DIHEDRAL.0>
23.9727

>  <SCORE.INTRA.POLAR>
0

>  <SCORE.INTRA.POLAR.0>
0

>  <SCORE.INTRA.REPUL>
0.020777

>  <SCORE.INTRA.REPUL.0>
0

>  <SCORE.INTRA.SOLV>
0.00823323

>  <SCORE.INTRA.SOLV.lig_0>
-115.028

>  <SCORE.INTRA.VDW>
8.76786

>  <SCORE.INTRA.VDW.0>
-6.82393

>  <SCORE.INTRA.norm>
0.267235

>  <SCORE.RESTR>
2.23535

>  <SCORE.RESTR.CAVITY>
2.23535

>  <SCORE.RESTR.norm>
0.0429875

>  <SCORE.SYSTEM>
0

>  <SCORE.SYSTEM.CONST>
0

>  <SCORE.SYSTEM.DIHEDRAL>
0

>  <SCORE.SYSTEM.SOLV>
0

>  <SCORE.SYSTEM.norm>
0

>  <SCORE.heavy>
52

>  <SCORE.norm>
0.236417

>  <RMSD>
2.503

$$$$
2fd0_lig
 OpenBabel11021811433D
libRbt.so/2013.1/901 2013/11/27
 52 56  0  0  0  0  0  0  0  0999 V2000
    4.9784  -49.5226   15.4001 C   0  0  2  0  0  0  0  0  0  0  0  0
    5.7832  -48.3753   15.7052 O   0  0  0  0  0  0  0  0  0  0  0  0
    8.0906  -45.3784   13.5635 C   0  0  2  0  0  0  0  0  0  0  0  0
    9.0834  -44.7507   12.6762 N   0  0  0  0  0  0  0  0  0  0  0  0
    5.1617  -47.8969   11.5210 C   0  0  1  0  0  0  0  0  0  0  0  0
    3.1936  -50.2027    8.3390 C   0  0  1  0  0  0  0  0  0  0  0  0
   -1.7570  -50.3950    7.8881 C   0  0  1  0  0  0  0  0  0  0  0  0
    4.0472  -49.8217   16.6310 C   0  0  2  0  0  0  0  0  0  0  0  0
    3.2198  -48.6743   16.9768 N   0  0  0  0  0  0  0  0  0  0  0  0
    8.8175  -46.2819   14.6537 C   0  0  0  0  0  0  0  0  0  0  0  0
    4.2345  -49.0348   11.1348 C   0  0  2  0  0  0  0  0  0  0  0  0
    4.9554  -50.2760   10.8937 O   0  0  0  0  0  0  0  0  0  0  0  0
    2.0317  -49.7277    7.3471 C   0  0  2  0  0  0  0  0  0  0  0  0
    1.2009  -48.6704    7.9851 N   0  0  0  0  0  0  0  0  0  0  0  0
   -2.3887  -51.8051    7.9115 C   0  0  1  0  0  0  0  0  0  0  0  0
   -2.8094  -52.1115    9.2639 O   0  0  0  0  0  0  0  0  0  0  0  0
    4.9029  -50.3028   17.8610 C   0  0  0  0  0  0  0  0  0  0  0  0
    7.7353  -46.9555   15.6254 C   0  0  2  0  0  0  0  0  0  0  0  0
    8.3815  -47.7989   16.6418 N   0  0  0  0  0  0  0  0  0  0  0  0
    3.4720  -48.4649    9.9506 C   0  0  2  0  0  0  0  0  0  0  0  0
    3.8793  -49.0548    8.7461 O   0  0  0  0  0  0  0  0  0  0  0  0
    1.2324  -51.0497    6.8733 C   0  0  1  0  0  0  0  0  0  0  0  0
    2.1805  -51.9504    6.2726 O   0  0  0  0  0  0  0  0  0  0  0  0
   -3.5892  -52.0669    6.9622 C   0  0  1  0  0  0  0  0  0  0  0  0
   -4.7947  -51.8095    7.6936 O   0  0  0  0  0  0  0  0  0  0  0  0
    5.7550  -51.5376   17.4206 C   0  0  2  0  0  0  0  0  0  0  0  0
    6.5324  -52.0159   18.5138 O   0  0  0  0  0  0  0  0  0  0  0  0
    6.7468  -47.8033   14.7771 C   0  0  2  0  0  0  0  0  0  0  0  0
    3.8250  -46.9649    9.8095 C   0  0  2  0  0  0  0  0  0  0  0  0
    4.5919  -46.7180   10.9794 O   0  0  0  0  0  0  0  0  0  0  0  0
    0.5781  -51.8385    8.1239 C   0  0  2  0  0  0  0  0  0  0  0  0
   -0.3711  -50.9094    8.6801 O   0  0  0  0  0  0  0  0  0  0  0  0
   -3.6146  -51.2420    5.6547 C   0  0  2  0  0  0  0  0  0  0  0  0
   -4.0405  -52.1577    4.6220 O   0  0  0  0  0  0  0  0  0  0  0  0
    6.6884  -51.1294   16.2451 C   0  0  2  0  0  0  0  0  0  0  0  0
    5.8428  -50.6555   15.1271 O   0  0  0  0  0  0  0  0  0  0  0  0
    6.0500  -46.9749   13.6549 C   0  0  2  0  0  0  0  0  0  0  0  0
    5.1960  -47.8783   12.9129 O   0  0  0  0  0  0  0  0  0  0  0  0
    2.6312  -46.0165    9.8102 C   0  0  0  0  0  0  0  0  0  0  0  0
    1.9930  -46.1444   11.0898 O   0  0  0  0  0  0  0  0  0  0  0  0
    1.7054  -52.0320    9.1206 C   0  0  1  0  0  0  0  0  0  0  0  0
    2.6264  -50.9988    9.5286 O   0  0  0  0  0  0  0  0  0  0  0  0
   -2.2549  -50.6043    5.3824 C   0  0  2  0  0  0  0  0  0  0  0  0
   -1.6992  -49.8548    6.4982 O   0  0  0  0  0  0  0  0  0  0  0  0
    7.5076  -52.2796   15.7519 C   0  0  0  0  0  0  0  0  0  0  0  0
    8.5091  -52.5365   16.6988 O   0  0  0  0  0  0  0  0  0  0  0  0
    7.1295  -46.3120   12.7233 C   0  0  1  0  0  0  0  0  0  0  0  0
    6.4388  -45.4996   11.7122 O   0  0  0  0  0  0  0  0  0  0  0  0
    1.2488  -52.7495   10.4400 C   0  0  0  0  0  0  0  0  0  0  0  0
    0.2632  -51.9718   11.2295 N   0  0  0  0  0  0  0  0  0  0  0  0
   -2.0043  -49.7257    4.1588 C   0  0  0  0  0  0  0  0  0  0  0  0
   -2.1948  -50.4962    2.9322 O   0  0  0  0  0  0  0  0  0  0  0  0
  1  2  1  1  0  0  0
  1  8  1  0  0  0  0
  1 36  1  0  0  0  0
  3  4  1  6  0  0  0
  3 10  1  0  0  0  0
  3 47  1  0  0  0  0
  5 11  1  0  0  0  0
  5 30  1  0  0  0  0
  5 38  1  1  0  0  0
  6 21  1  1  0  0  0
  6 42  1  0  0  0  0
  7 15  1  0  0  0  0
  7 44  1  0  0  0  0
  7 32  1  6  0  0  0
  8  9  1  1  0  0  0
  8 17  1  0  0  0  0
 11 12  1  6  0  0  0
 11 20  1  0  0  0  0
 13  6  1  0  0  0  0
 13 14  1  1  0  0  0
 15 16  1  1  0  0  0
 15 24  1  0  0  0  0
 17 26  1  0  0  0  0
 18 10  1  0  0  0  0
 18 19  1  1  0  0  0
 20 21  1  6  0  0  0
 20 29  1  0  0  0  0
 22 13  1  0  0  0  0
 22 23  1  1  0  0  0
 24 25  1  1  0  0  0
 24 33  1  0  0  0  0
 26 27  1  1  0  0  0
 26 35  1  0  0  0  0
 28  2  1  1  0  0  0
 28 18  1  0  0  0  0
 29 30  1  0  0  0  0
 29 39  1  1  0  0  0
 31 22  1  0  0  0  0
 31 32  1  1  0  0  0
 31 41  1  0  0  0  0
 33 34  1  6  0  0  0
 33 43  1  0  0  0  0
 35 36  1  0  0  0  0
 35 45  1  6  0  0  0
 37 28  1  0  0  0  0
 37 38  1  6  0  0  0
 39 40  1  0  0  0  0
 41 42  1  0  0  0  0
 41 49  1  1  0  0  0
 43 44  1  0  0  0  0
 43 51  1  6  0  0  0
 45 46  1  0  0  0  0
 47 37  1  0  0  0  0
 47 48  1  6  0  0  0
 49 50  1  0  0  0  0
 51 52  1  0  0  0  0
M  END
>  <CHROM.1>
-178.92856567,175.92163206,94.30112148,65.59192429,89.94563279,-159.93631423
62.97897817,66.40452853,-73.77715889,-134.26483220,-63.99469986,-62.19797558
2.98691426,-49.58704493,11.08969993,0.44645653,0.71543010,2.25739158

>  <Name>
2fd0_lig

>  <RI>
1.29864e+07

>  <Rbt.Current_Directory>
/home/itssahil/PROJECTS/Mol_Feturizer/New_Systems/rnas/2fd0

>  <Rbt.Executable>
rbdock ($Id: //depot/dev/client3/rdock/2013.1/src/exe/rbdock.cxx#4 $)

>  <Rbt.Library>
libRbt.so (2013.1, Build901 2013/11/27)

>  <Rbt.Parameter_File>
/export/apps/rDock/src/rDock_2013.1_src/data/scripts/dock_solv.prm

>  <Rbt.Receptor>
prm/pocket_docking_3.prm

>  <SCORE>
-17.6647

>  <SCORE.INTER>
-19.9044

>  <SCORE.INTER.CONST>
1

>  <SCORE.INTER.POLAR>
-2.07861

>  <SCORE.INTER.ROT>
12

>  <SCORE.INTER.SOLV>
17.806

>  <SCORE.INTER.VDW>
-23.8763

>  <SCORE.INTER.norm>
-0.382778

>  <SCORE.INTRA>
1.68808

>  <SCORE.INTRA.DIHEDRAL>
-5.08733

>  <SCORE.INTRA.DIHEDRAL.0>
23.9727

>  <SCORE.INTRA.POLAR>
0

>  <SCORE.INTRA.POLAR.0>
0

>  <SCORE.INTRA.REPUL>
0

>  <SCORE.INTRA.REPUL.0>
0

>  <SCORE.INTRA.SOLV>
1.44184

>  <SCORE.INTRA.SOLV.lig_0>
-115.028

>  <SCORE.INTRA.VDW>
3.51083

>  <SCORE.INTRA.VDW.0>
-6.82393

>  <SCORE.INTRA.norm>
0.0324632

>  <SCORE.RESTR>
0.551666

>  <SCORE.RESTR.CAVITY>
0.551666

>  <SCORE.RESTR.norm>
0.010609

>  <SCORE.SYSTEM>
0

>  <SCORE.SYSTEM.CONST>
0

>  <SCORE.SYSTEM.DIHEDRAL>
0

>  <SCORE.SYSTEM.SOLV>
0

>  <SCORE.SYSTEM.norm>
0

>  <SCORE.heavy>
52

>  <SCORE.norm>
-0.339705

>  <RMSD>
2.505

$$$$
2fd0_lig
 OpenBabel11021811433D
libRbt.so/2013.1/901 2013/11/27
 52 56  0  0  0  0  0  0  0  0999 V2000
    4.2021  -49.9244   14.5788 C   0  0  2  0  0  0  0  0  0  0  0  0
    4.7070  -48.5848   14.4932 O   0  0  0  0  0  0  0  0  0  0  0  0
    5.1315  -45.8507   11.1411 C   0  0  2  0  0  0  0  0  0  0  0  0
    5.6518  -45.1954    9.9299 N   0  0  0  0  0  0  0  0  0  0  0  0
    3.0933  -49.8769   10.7991 C   0  0  1  0  0  0  0  0  0  0  0  0
    1.1368  -52.9651    8.2462 C   0  0  1  0  0  0  0  0  0  0  0  0
   -2.4820  -51.5695    4.7762 C   0  0  1  0  0  0  0  0  0  0  0  0
    3.2374  -50.0170   15.8167 C   0  0  2  0  0  0  0  0  0  0  0  0
    2.1524  -49.0493   15.7324 N   0  0  0  0  0  0  0  0  0  0  0  0
    6.2344  -45.8459   12.2885 C   0  0  0  0  0  0  0  0  0  0  0  0
    3.6582  -51.2039   10.3263 C   0  0  2  0  0  0  0  0  0  0  0  0
    4.5951  -51.0432    9.2242 O   0  0  0  0  0  0  0  0  0  0  0  0
    1.3715  -53.3335    6.7072 C   0  0  2  0  0  0  0  0  0  0  0  0
    1.6096  -52.1017    5.9063 N   0  0  0  0  0  0  0  0  0  0  0  0
   -2.2926  -50.2885    5.6194 C   0  0  1  0  0  0  0  0  0  0  0  0
   -1.1233  -49.5778    5.1423 O   0  0  0  0  0  0  0  0  0  0  0  0
    4.0476  -49.8547   17.1559 C   0  0  0  0  0  0  0  0  0  0  0  0
    5.6619  -46.5499   13.6098 C   0  0  2  0  0  0  0  0  0  0  0  0
    6.6636  -46.5611   14.6861 N   0  0  0  0  0  0  0  0  0  0  0  0
    2.4102  -52.0177   10.0283 C   0  0  2  0  0  0  0  0  0  0  0  0
    2.2201  -52.1789    8.6490 O   0  0  0  0  0  0  0  0  0  0  0  0
    0.1216  -54.2411    6.2330 C   0  0  1  0  0  0  0  0  0  0  0  0
    0.0488  -55.3856    7.1025 O   0  0  0  0  0  0  0  0  0  0  0  0
   -3.4772  -49.2862    5.6737 C   0  0  1  0  0  0  0  0  0  0  0  0
   -3.2785  -48.3117    4.6416 O   0  0  0  0  0  0  0  0  0  0  0  0
    5.1848  -50.9275   17.1815 C   0  0  2  0  0  0  0  0  0  0  0  0
    5.9322  -50.8256   18.3895 O   0  0  0  0  0  0  0  0  0  0  0  0
    5.2299  -48.0029   13.2664 C   0  0  2  0  0  0  0  0  0  0  0  0
    1.1742  -51.2273   10.5204 C   0  0  2  0  0  0  0  0  0  0  0  0
    1.7628  -50.1354   11.2122 O   0  0  0  0  0  0  0  0  0  0  0  0
   -1.2844  -53.4575    6.3866 C   0  0  2  0  0  0  0  0  0  0  0  0
   -1.1723  -52.3360    5.4903 O   0  0  0  0  0  0  0  0  0  0  0  0
   -4.8902  -49.8945    5.5184 C   0  0  2  0  0  0  0  0  0  0  0  0
   -5.7220  -49.2020    6.4749 O   0  0  0  0  0  0  0  0  0  0  0  0
    6.1228  -50.7165   15.9586 C   0  0  2  0  0  0  0  0  0  0  0  0
    5.3125  -50.8465   14.7273 O   0  0  0  0  0  0  0  0  0  0  0  0
    4.1907  -48.0655   12.1058 C   0  0  2  0  0  0  0  0  0  0  0  0
    3.9044  -49.4618   11.8522 O   0  0  0  0  0  0  0  0  0  0  0  0
    0.2704  -51.9787   11.4914 C   0  0  0  0  0  0  0  0  0  0  0  0
   -0.7877  -51.0817   11.8614 O   0  0  0  0  0  0  0  0  0  0  0  0
   -1.3089  -52.9367    7.8112 C   0  0  1  0  0  0  0  0  0  0  0  0
   -0.2126  -52.2535    8.4542 O   0  0  0  0  0  0  0  0  0  0  0  0
   -4.8605  -51.4075    5.7176 C   0  0  2  0  0  0  0  0  0  0  0  0
   -3.8665  -52.1076    4.9193 O   0  0  0  0  0  0  0  0  0  0  0  0
    7.2151  -51.7368   15.9051 C   0  0  0  0  0  0  0  0  0  0  0  0
    8.1354  -51.4408   16.9205 O   0  0  0  0  0  0  0  0  0  0  0  0
    4.7670  -47.3570   10.8257 C   0  0  1  0  0  0  0  0  0  0  0  0
    3.7428  -47.3898    9.7724 O   0  0  0  0  0  0  0  0  0  0  0  0
   -2.5941  -52.0979    8.1416 C   0  0  0  0  0  0  0  0  0  0  0  0
   -2.5985  -51.5313    9.5121 N   0  0  0  0  0  0  0  0  0  0  0  0
   -6.1212  -52.2623    5.6084 C   0  0  0  0  0  0  0  0  0  0  0  0
   -5.7892  -53.6780    5.7504 O   0  0  0  0  0  0  0  0  0  0  0  0
  1  2  1  1  0  0  0
  1  8  1  0  0  0  0
  1 36  1  0  0  0  0
  3  4  1  6  0  0  0
  3 10  1  0  0  0  0
  3 47  1  0  0  0  0
  5 11  1  0  0  0  0
  5 30  1  0  0  0  0
  5 38  1  1  0  0  0
  6 21  1  6  0  0  0
  6 42  1  0  0  0  0
  7 15  1  0  0  0  0
  7 44  1  0  0  0  0
  7 32  1  1  0  0  0
  8  9  1  6  0  0  0
  8 17  1  0  0  0  0
 11 12  1  6  0  0  0
 11 20  1  0  0  0  0
 13  6  1  0  0  0  0
 13 14  1  6  0  0  0
 15 16  1  6  0  0  0
 15 24  1  0  0  0  0
 17 26  1  0  0  0  0
 18 10  1  0  0  0  0
 18 19  1  1  0  0  0
 20 21  1  6  0  0  0
 20 29  1  0  0  0  0
 22 13  1  0  0  0  0
 22 23  1  1  0  0  0
 24 25  1  6  0  0  0
 24 33  1  0  0  0  0
 26 27  1  1  0  0  0
 26 35  1  0  0  0  0
 28  2  1  1  0  0  0
 28 18  1  0  0  0  0
 29 30  1  0  0  0  0
 29 39  1  1  0  0  0
 31 22  1  0  0  0  0
 31 32  1  6  0  0  0
 31 41  1  0  0  0  0
 33 34  1  1  0  0  0
 33 43  1  0  0  0  0
 35 36  1  0  0  0  0
 35 45  1  6  0  0  0
 37 28  1  0  0  0  0
 37 38  1  6  0  0  0
 39 40  1  0  0  0  0
 41 42  1  0  0  0  0
 41 49  1  6  0  0  0
 43 44  1  0  0  0  0
 43 51  1  6  0  0  0
 45 46  1  0  0  0  0
 47 37  1  0  0  0  0
 47 48  1  6  0  0  0
 49 50  1  0  0  0  0
 51 52  1  0  0  0  0
M  END
>  <CHROM.1>
-157.80804901,146.28851598,-164.30267742,110.30250288,177.06895460,179.84589312
178.38946566,153.82259901,-72.75007475,-174.64854560,-177.31442372,176.01973682
1.45661949,-50.50329857,10.18280882,0.22179944,0.79787022,2.57092868

>  <Name>
2fd0_lig

>  <RI>
1.29864e+07

>  <Rbt.Current_Directory>
/home/itssahil/PROJECTS/Mol_Feturizer/New_Systems/rnas/2fd0

>  <Rbt.Executable>
rbdock ($Id: //depot/dev/client3/rdock/2013.1/src/exe/rbdock.cxx#4 $)

>  <Rbt.Library>
libRbt.so (2013.1, Build901 2013/11/27)

>  <Rbt.Parameter_File>
/export/apps/rDock/src/rDock_2013.1_src/data/scripts/dock_solv.prm

>  <Rbt.Receptor>
prm/pocket_docking_3.prm

>  <SCORE>
-17.6399

>  <SCORE.INTER>
-16.5585

>  <SCORE.INTER.CONST>
1

>  <SCORE.INTER.POLAR>
-1.94203

>  <SCORE.INTER.ROT>
12

>  <SCORE.INTER.SOLV>
17.4919

>  <SCORE.INTER.VDW>
-21.9962

>  <SCORE.INTER.norm>
-0.318433

>  <SCORE.INTRA>
-1.10399

>  <SCORE.INTRA.DIHEDRAL>
-4.48129

>  <SCORE.INTRA.DIHEDRAL.0>
23.9727

>  <SCORE.INTRA.POLAR>
0

>  <SCORE.INTRA.POLAR.0>
0

>  <SCORE.INTRA.REPUL>
0

>  <SCORE.INTRA.REPUL.0>
0

>  <SCORE.INTRA.SOLV>
-1.70015

>  <SCORE.INTRA.SOLV.lig_0>
-115.028

>  <SCORE.INTRA.VDW>
1.98673

>  <SCORE.INTRA.VDW.0>
-6.82393

>  <SCORE.INTRA.norm>
-0.0212305

>  <SCORE.RESTR>
0.0226324

>  <SCORE.RESTR.CAVITY>
0.0226324

>  <SCORE.RESTR.norm>
0.000435239

>  <SCORE.SYSTEM>
0

>  <SCORE.SYSTEM.CONST>
0

>  <SCORE.SYSTEM.DIHEDRAL>
0

>  <SCORE.SYSTEM.SOLV>
0

>  <SCORE.SYSTEM.norm>
0

>  <SCORE.heavy>
52

>  <SCORE.norm>
-0.339228

>  <RMSD>
2.506

$$$$
2fd0_lig
 OpenBabel11021811433D
libRbt.so/2013.1/901 2013/11/27
 52 56  0  0  0  0  0  0  0  0999 V2000
    4.6494  -49.5746   14.0613 C   0  0  2  0  0  0  0  0  0  0  0  0
    4.8945  -48.1775   14.2737 O   0  0  0  0  0  0  0  0  0  0  0  0
    4.9352  -44.7373   11.6174 C   0  0  2  0  0  0  0  0  0  0  0  0
    5.3601  -43.7651   10.5969 N   0  0  0  0  0  0  0  0  0  0  0  0
    3.0440  -49.0634   10.9584 C   0  0  1  0  0  0  0  0  0  0  0  0
    1.4345  -50.7956    7.1266 C   0  0  1  0  0  0  0  0  0  0  0  0
   -2.5991  -52.3183    4.6801 C   0  0  1  0  0  0  0  0  0  0  0  0
    3.4354  -50.0114   14.9597 C   0  0  2  0  0  0  0  0  0  0  0  0
    2.2446  -49.2196   14.6848 N   0  0  0  0  0  0  0  0  0  0  0  0
    6.0242  -44.8354   12.7739 C   0  0  0  0  0  0  0  0  0  0  0  0
    3.2959  -49.2935    9.4795 C   0  0  2  0  0  0  0  0  0  0  0  0
    2.8803  -48.1603    8.6664 O   0  0  0  0  0  0  0  0  0  0  0  0
    0.1133  -50.2091    6.4413 C   0  0  2  0  0  0  0  0  0  0  0  0
   -1.0964  -50.6164    7.2069 N   0  0  0  0  0  0  0  0  0  0  0  0
   -3.3412  -53.0778    5.8027 C   0  0  1  0  0  0  0  0  0  0  0  0
   -3.2311  -52.3239    7.0354 O   0  0  0  0  0  0  0  0  0  0  0  0
    3.8289  -49.9454   16.4819 C   0  0  0  0  0  0  0  0  0  0  0  0
    5.5543  -45.8863   13.8893 C   0  0  2  0  0  0  0  0  0  0  0  0
    6.5456  -45.9979   14.9695 N   0  0  0  0  0  0  0  0  0  0  0  0
    2.5780  -50.6058    9.2127 C   0  0  2  0  0  0  0  0  0  0  0  0
    1.4064  -50.4076    8.4692 O   0  0  0  0  0  0  0  0  0  0  0  0
    0.1372  -50.6555    4.8885 C   0  0  1  0  0  0  0  0  0  0  0  0
    1.3609  -50.1713    4.3061 O   0  0  0  0  0  0  0  0  0  0  0  0
   -4.8406  -53.4088    5.5722 C   0  0  1  0  0  0  0  0  0  0  0  0
   -5.6193  -52.3501    6.1440 O   0  0  0  0  0  0  0  0  0  0  0  0
    5.1043  -50.8222   16.7037 C   0  0  2  0  0  0  0  0  0  0  0  0
    5.4834  -50.8037   18.0763 O   0  0  0  0  0  0  0  0  0  0  0  0
    5.3324  -47.2723   13.2220 C   0  0  2  0  0  0  0  0  0  0  0  0
    2.1083  -51.1971   10.5633 C   0  0  2  0  0  0  0  0  0  0  0  0
    2.7164  -50.3278   11.5078 O   0  0  0  0  0  0  0  0  0  0  0  0
    0.1554  -52.2639    4.7245 C   0  0  2  0  0  0  0  0  0  0  0  0
   -1.0893  -52.6999    5.3026 O   0  0  0  0  0  0  0  0  0  0  0  0
   -5.2747  -53.6075    4.1016 C   0  0  2  0  0  0  0  0  0  0  0  0
   -6.1827  -54.7309    4.1097 O   0  0  0  0  0  0  0  0  0  0  0  0
    6.2665  -50.2765   15.8255 C   0  0  2  0  0  0  0  0  0  0  0  0
    5.8392  -50.3283   14.4098 O   0  0  0  0  0  0  0  0  0  0  0  0
    4.3145  -47.2183   12.0422 C   0  0  2  0  0  0  0  0  0  0  0  0
    4.2287  -48.5496   11.4796 O   0  0  0  0  0  0  0  0  0  0  0  0
    2.5813  -52.6186   10.8465 C   0  0  0  0  0  0  0  0  0  0  0  0
    4.0157  -52.5827   10.8961 O   0  0  0  0  0  0  0  0  0  0  0  0
    1.2927  -52.7519    5.6019 C   0  0  1  0  0  0  0  0  0  0  0  0
    1.5227  -52.3238    6.9606 O   0  0  0  0  0  0  0  0  0  0  0  0
   -4.0635  -53.8081    3.1948 C   0  0  2  0  0  0  0  0  0  0  0  0
   -3.0253  -52.7989    3.3331 O   0  0  0  0  0  0  0  0  0  0  0  0
    7.5098  -51.0962   15.9652 C   0  0  0  0  0  0  0  0  0  0  0  0
    8.5424  -50.4379   15.2826 O   0  0  0  0  0  0  0  0  0  0  0  0
    4.7875  -46.1718   10.9680 C   0  0  1  0  0  0  0  0  0  0  0  0
    3.7802  -46.1108    9.8998 O   0  0  0  0  0  0  0  0  0  0  0  0
    1.4416  -54.3146    5.6101 C   0  0  0  0  0  0  0  0  0  0  0  0
    2.6920  -54.7895    6.2506 N   0  0  0  0  0  0  0  0  0  0  0  0
   -4.2065  -54.0169    1.6889 C   0  0  0  0  0  0  0  0  0  0  0  0
   -4.9220  -55.2607    1.4139 O   0  0  0  0  0  0  0  0  0  0  0  0
  1  2  1  1  0  0  0
  1  8  1  0  0  0  0
  1 36  1  0  0  0  0
  3  4  1  6  0  0  0
  3 10  1  0  0  0  0
  3 47  1  0  0  0  0
  5 11  1  0  0  0  0
  5 30  1  0  0  0  0
  5 38  1  1  0  0  0
  6 21  1  1  0  0  0
  6 42  1  0  0  0  0
  7 15  1  0  0  0  0
  7 44  1  0  0  0  0
  7 32  1  1  0  0  0
  8  9  1  1  0  0  0
  8 17  1  0  0  0  0
 11 12  1  6  0  0  0
 11 20  1  0  0  0  0
 13  6  1  0  0  0  0
 13 14  1  1  0  0  0
 15 16  1  1  0  0  0
 15 24  1  0  0  0  0
 17 26  1  0  0  0  0
 18 10  1  0  0  0  0
 18 19  1  1  0  0  0
 20 21  1  6  0  0  0
 20 29  1  0  0  0  0
 22 13  1  0  0  0  0
 22 23  1  1  0  0  0
 24 25  1  6  0  0  0
 24 33  1  0  0  0  0
 26 27  1  1  0  0  0
 26 35  1  0  0  0  0
 28  2  1  1  0  0  0
 28 18  1  0  0  0  0
 29 30  1  0  0  0  0
 29 39  1  1  0  0  0
 31 22  1  0  0  0  0
 31 32  1  1  0  0  0
 31 41  1  0  0  0  0
 33 34  1  1  0  0  0
 33 43  1  0  0  0  0
 35 36  1  0  0  0  0
 35 45  1  6  0  0  0
 37 28  1  0  0  0  0
 37 38  1  6  0  0  0
 39 40  1  0  0  0  0
 41 42  1  0  0  0  0
 41 49  1  1  0  0  0
 43 44  1  0  0  0  0
 43 51  1  6  0  0  0
 45 46  1  0  0  0  0
 47 37  1  0  0  0  0
 47 48  1  6  0  0  0
 49 50  1  0  0  0  0
 51 52  1  0  0  0  0
M  END
>  <CHROM.1>
-144.34934429,116.24309078,-168.99588989,-178.91934405,106.31665541,-176.85003313
61.96178826,64.97275199,-172.46741065,145.61187036,169.14050100,-63.95306639
1.78434523,-50.51149636,9.48390666,0.19606174,0.89821646,2.44593519

>  <Name>
2fd0_lig

>  <RI>
0

>  <Rbt.Current_Directory>
/home/itssahil/PROJECTS/Mol_Feturizer/New_Systems/rnas/2fd0

>  <Rbt.Executable>
rbdock ($Id: //depot/dev/client3/rdock/2013.1/src/exe/rbdock.cxx#4 $)

>  <Rbt.Library>
libRbt.so (2013.1, Build901 2013/11/27)

>  <Rbt.Parameter_File>
/export/apps/rDock/src/rDock_2013.1_src/data/scripts/dock_solv.prm

>  <Rbt.Receptor>
prm/pocket_docking_5.prm

>  <SCORE>
-21.724

>  <SCORE.INTER>
-22.0329

>  <SCORE.INTER.CONST>
1

>  <SCORE.INTER.POLAR>
-2.74798

>  <SCORE.INTER.ROT>
12

>  <SCORE.INTER.SOLV>
15.8115

>  <SCORE.INTER.VDW>
-22.3991

>  <SCORE.INTER.norm>
-0.423709

>  <SCORE.INTRA>
0.308916

>  <SCORE.INTRA.DIHEDRAL>
1.44534

>  <SCORE.INTRA.DIHEDRAL.0>
23.9727

>  <SCORE.INTRA.POLAR>
0

>  <SCORE.INTRA.POLAR.0>
0

>  <SCORE.INTRA.REPUL>
0

>  <SCORE.INTRA.REPUL.0>
0

>  <SCORE.INTRA.SOLV>
-1.42269

>  <SCORE.INTRA.SOLV.lig_0>
-115.028

>  <SCORE.INTRA.VDW>
0.29759

>  <SCORE.INTRA.VDW.0>
-6.82393

>  <SCORE.INTRA.norm>
0.00594069

>  <SCORE.RESTR>
0

>  <SCORE.RESTR.CAVITY>
0

>  <SCORE.RESTR.norm>
0

>  <SCORE.SYSTEM>
0

>  <SCORE.SYSTEM.CONST>
0

>  <SCORE.SYSTEM.DIHEDRAL>
0

>  <SCORE.SYSTEM.SOLV>
0

>  <SCORE.SYSTEM.norm>
0

>  <SCORE.heavy>
52

>  <SCORE.norm>
-0.417768

>  <RMSD>
2.510

$$$$
2fd0_lig
 OpenBabel11021811433D
libRbt.so/2013.1/901 2013/11/27
 52 56  0  0  0  0  0  0  0  0999 V2000
    5.2620  -49.4823   14.8308 C   0  0  2  0  0  0  0  0  0  0  0  0
    6.0338  -48.3092   15.1224 O   0  0  0  0  0  0  0  0  0  0  0  0
    8.2366  -45.3479   12.8265 C   0  0  2  0  0  0  0  0  0  0  0  0
    9.2395  -44.7250   11.9471 N   0  0  0  0  0  0  0  0  0  0  0  0
    4.5518  -47.9124   11.4195 C   0  0  1  0  0  0  0  0  0  0  0  0
    0.6123  -49.5985    9.7803 C   0  0  1  0  0  0  0  0  0  0  0  0
   -0.7475  -53.1003    6.0593 C   0  0  1  0  0  0  0  0  0  0  0  0
    4.0928  -49.5843   15.8768 C   0  0  2  0  0  0  0  0  0  0  0  0
    3.2584  -48.3908   15.8757 N   0  0  0  0  0  0  0  0  0  0  0  0
    8.9487  -46.0573   14.0605 C   0  0  0  0  0  0  0  0  0  0  0  0
    3.8878  -49.2529   11.1629 C   0  0  2  0  0  0  0  0  0  0  0  0
    4.3728  -49.8844    9.9447 O   0  0  0  0  0  0  0  0  0  0  0  0
    0.8839  -51.1654    9.9558 C   0  0  2  0  0  0  0  0  0  0  0  0
    1.9529  -51.6171    9.0238 N   0  0  0  0  0  0  0  0  0  0  0  0
   -0.9057  -51.8252    5.2009 C   0  0  1  0  0  0  0  0  0  0  0  0
    0.4083  -51.2979    4.8921 O   0  0  0  0  0  0  0  0  0  0  0  0
    4.6660  -49.8816   17.3119 C   0  0  0  0  0  0  0  0  0  0  0  0
    7.8542  -46.7251   15.0224 C   0  0  2  0  0  0  0  0  0  0  0  0
    8.4870  -47.3906   16.1707 N   0  0  0  0  0  0  0  0  0  0  0  0
    2.4078  -48.9105   11.1938 C   0  0  2  0  0  0  0  0  0  0  0  0
    1.8448  -48.9521    9.9108 O   0  0  0  0  0  0  0  0  0  0  0  0
   -0.5366  -51.9204    9.8039 C   0  0  1  0  0  0  0  0  0  0  0  0
   -1.4381  -51.3713   10.7821 O   0  0  0  0  0  0  0  0  0  0  0  0
   -1.6991  -51.9513    3.8722 C   0  0  1  0  0  0  0  0  0  0  0  0
   -0.7612  -52.2163    2.8214 O   0  0  0  0  0  0  0  0  0  0  0  0
    5.5401  -51.1760   17.2391 C   0  0  2  0  0  0  0  0  0  0  0  0
    6.0641  -51.4906   18.5255 O   0  0  0  0  0  0  0  0  0  0  0  0
    7.0159  -47.7487   14.2067 C   0  0  2  0  0  0  0  0  0  0  0  0
    2.2482  -47.4441   11.6615 C   0  0  2  0  0  0  0  0  0  0  0  0
    3.5728  -47.0952   12.0371 O   0  0  0  0  0  0  0  0  0  0  0  0
   -1.2093  -51.6532    8.3581 C   0  0  2  0  0  0  0  0  0  0  0  0
   -0.2852  -52.2319    7.4175 O   0  0  0  0  0  0  0  0  0  0  0  0
   -2.8024  -53.0341    3.8392 C   0  0  2  0  0  0  0  0  0  0  0  0
   -3.9189  -52.4347    3.1459 O   0  0  0  0  0  0  0  0  0  0  0  0
    6.7048  -50.9579   16.2313 C   0  0  2  0  0  0  0  0  0  0  0  0
    6.1187  -50.6509   14.9078 O   0  0  0  0  0  0  0  0  0  0  0  0
    6.3429  -47.1140   12.9516 C   0  0  2  0  0  0  0  0  0  0  0  0
    5.6343  -48.1684   12.2572 O   0  0  0  0  0  0  0  0  0  0  0  0
    1.3395  -47.2457   12.8695 C   0  0  0  0  0  0  0  0  0  0  0  0
    1.2747  -45.8335   13.1199 O   0  0  0  0  0  0  0  0  0  0  0  0
   -1.2038  -50.1471    8.1764 C   0  0  1  0  0  0  0  0  0  0  0  0
   -0.0691  -49.2936    8.4338 O   0  0  0  0  0  0  0  0  0  0  0  0
   -3.1438  -53.5119    5.2480 C   0  0  2  0  0  0  0  0  0  0  0  0
   -1.9984  -53.9140    6.0492 O   0  0  0  0  0  0  0  0  0  0  0  0
    7.5604  -52.1764   16.0884 C   0  0  0  0  0  0  0  0  0  0  0  0
    8.1959  -52.4067   17.3167 O   0  0  0  0  0  0  0  0  0  0  0  0
    7.4324  -46.4528   12.0305 C   0  0  1  0  0  0  0  0  0  0  0  0
    6.7577  -45.8216   10.8877 O   0  0  0  0  0  0  0  0  0  0  0  0
   -1.7843  -49.6885    6.7918 C   0  0  0  0  0  0  0  0  0  0  0  0
   -1.7457  -48.2201    6.5877 N   0  0  0  0  0  0  0  0  0  0  0  0
   -4.1962  -54.5884    5.5040 C   0  0  0  0  0  0  0  0  0  0  0  0
   -5.5235  -54.0984    5.1396 O   0  0  0  0  0  0  0  0  0  0  0  0
  1  2  1  1  0  0  0
  1  8  1  0  0  0  0
  1 36  1  0  0  0  0
  3  4  1  6  0  0  0
  3 10  1  0  0  0  0
  3 47  1  0  0  0  0
  5 11  1  0  0  0  0
  5 30  1  0  0  0  0
  5 38  1  1  0  0  0
  6 21  1  6  0  0  0
  6 42  1  0  0  0  0
  7 15  1  0  0  0  0
  7 44  1  0  0  0  0
  7 32  1  1  0  0  0
  8  9  1  1  0  0  0
  8 17  1  0  0  0  0
 11 12  1  6  0  0  0
 11 20  1  0  0  0  0
 13  6  1  0  0  0  0
 13 14  1  6  0  0  0
 15 16  1  6  0  0  0
 15 24  1  0  0  0  0
 17 26  1  0  0  0  0
 18 10  1  0  0  0  0
 18 19  1  1  0  0  0
 20 21  1  6  0  0  0
 20 29  1  0  0  0  0
 22 13  1  0  0  0  0
 22 23  1  1  0  0  0
 24 25  1  6  0  0  0
 24 33  1  0  0  0  0
 26 27  1  1  0  0  0
 26 35  1  0  0  0  0
 28  2  1  1  0  0  0
 28 18  1  0  0  0  0
 29 30  1  0  0  0  0
 29 39  1  1  0  0  0
 31 22  1  0  0  0  0
 31 32  1  6  0  0  0
 31 41  1  0  0  0  0
 33 34  1  1  0  0  0
 33 43  1  0  0  0  0
 35 36  1  0  0  0  0
 35 45  1  6  0  0  0
 37 28  1  0  0  0  0
 37 38  1  6  0  0  0
 39 40  1  0  0  0  0
 41 42  1  0  0  0  0
 41 49  1  6  0  0  0
 43 44  1  0  0  0  0
 43 51  1  6  0  0  0
 45 46  1  0  0  0  0
 47 37  1  0  0  0  0
 47 48  1  6  0  0  0
 49 50  1  0  0  0  0
 51 52  1  0  0  0  0
M  END
>  <CHROM.1>
-166.79374827,-166.55430517,-71.36410614,85.63858922,135.02638191,-166.44125691
-177.83072262,139.83851647,-65.33955604,155.59370975,-178.25894188,-66.57438974
2.56350739,-49.85886295,10.77621982,0.36306693,0.79022593,2.26702324

>  <Name>
2fd0_lig

>  <RI>
2.89522e+07

>  <Rbt.Current_Directory>
/home/itssahil/PROJECTS/Mol_Feturizer/New_Systems/rnas/2fd0

>  <Rbt.Executable>
rbdock ($Id: //depot/dev/client3/rdock/2013.1/src/exe/rbdock.cxx#4 $)

>  <Rbt.Library>
libRbt.so (2013.1, Build901 2013/11/27)

>  <Rbt.Parameter_File>
/export/apps/rDock/src/rDock_2013.1_src/data/scripts/dock_solv.prm

>  <Rbt.Receptor>
prm/pocket_docking_2.prm

>  <SCORE>
-14.0825

>  <SCORE.INTER>
-18.3489

>  <SCORE.INTER.CONST>
1

>  <SCORE.INTER.POLAR>
-1.81616

>  <SCORE.INTER.ROT>
12

>  <SCORE.INTER.SOLV>
16.0798

>  <SCORE.INTER.VDW>
-23.1387

>  <SCORE.INTER.norm>
-0.352864

>  <SCORE.INTRA>
-0.25385

>  <SCORE.INTRA.DIHEDRAL>
-2.30277

>  <SCORE.INTRA.DIHEDRAL.0>
23.9727

>  <SCORE.INTRA.POLAR>
0

>  <SCORE.INTRA.POLAR.0>
0

>  <SCORE.INTRA.REPUL>
0

>  <SCORE.INTRA.REPUL.0>
0

>  <SCORE.INTRA.SOLV>
-1.99757

>  <SCORE.INTRA.SOLV.lig_0>
-115.028

>  <SCORE.INTRA.VDW>
1.89632

>  <SCORE.INTRA.VDW.0>
-6.82393

>  <SCORE.INTRA.norm>
-0.00488173

>  <SCORE.RESTR>
4.5203

>  <SCORE.RESTR.CAVITY>
4.5203

>  <SCORE.RESTR.norm>
0.0869288

>  <SCORE.SYSTEM>
0

>  <SCORE.SYSTEM.CONST>
0

>  <SCORE.SYSTEM.DIHEDRAL>
0

>  <SCORE.SYSTEM.SOLV>
0

>  <SCORE.SYSTEM.norm>
0

>  <SCORE.heavy>
52

>  <SCORE.norm>
-0.270817

>  <RMSD>
2.525

$$$$
2fd0_lig
 OpenBabel11021811433D
libRbt.so/2013.1/901 2013/11/27
 52 56  0  0  0  0  0  0  0  0999 V2000
    5.1185  -49.7351   15.1877 C   0  0  2  0  0  0  0  0  0  0  0  0
    5.6335  -48.4416   15.5320 O   0  0  0  0  0  0  0  0  0  0  0  0
    7.4332  -44.9952   13.5888 C   0  0  2  0  0  0  0  0  0  0  0  0
    8.3236  -44.1646   12.7616 N   0  0  0  0  0  0  0  0  0  0  0  0
    4.1543  -47.6060   11.7235 C   0  0  1  0  0  0  0  0  0  0  0  0
    2.0257  -49.6928    8.7653 C   0  0  1  0  0  0  0  0  0  0  0  0
   -1.8904  -52.3723    7.3759 C   0  0  1  0  0  0  0  0  0  0  0  0
    4.0821  -50.1694   16.2871 C   0  0  2  0  0  0  0  0  0  0  0  0
    3.0083  -49.1969   16.4348 N   0  0  0  0  0  0  0  0  0  0  0  0
    8.2778  -45.8039   14.6685 C   0  0  0  0  0  0  0  0  0  0  0  0
    3.6525  -48.9226   11.1592 C   0  0  2  0  0  0  0  0  0  0  0  0
    4.4296  -49.3619   10.0098 O   0  0  0  0  0  0  0  0  0  0  0  0
    0.8277  -49.6747    7.7051 C   0  0  2  0  0  0  0  0  0  0  0  0
   -0.4768  -49.4807    8.3952 N   0  0  0  0  0  0  0  0  0  0  0  0
   -1.4771  -53.6952    6.6927 C   0  0  1  0  0  0  0  0  0  0  0  0
   -1.5825  -54.7754    7.6529 O   0  0  0  0  0  0  0  0  0  0  0  0
    4.8127  -50.4292   17.6565 C   0  0  0  0  0  0  0  0  0  0  0  0
    7.3051  -46.6990   15.5752 C   0  0  2  0  0  0  0  0  0  0  0  0
    8.0618  -47.4594   16.5807 N   0  0  0  0  0  0  0  0  0  0  0  0
    2.1810  -48.6438   10.9031 C   0  0  2  0  0  0  0  0  0  0  0  0
    1.9115  -48.5299    9.5323 O   0  0  0  0  0  0  0  0  0  0  0  0
    0.9514  -51.0178    6.8154 C   0  0  1  0  0  0  0  0  0  0  0  0
    2.2600  -51.0349    6.2169 O   0  0  0  0  0  0  0  0  0  0  0  0
   -2.2506  -54.1112    5.4123 C   0  0  1  0  0  0  0  0  0  0  0  0
   -3.3305  -54.9668    5.8072 O   0  0  0  0  0  0  0  0  0  0  0  0
    5.9416  -51.4858   17.4245 C   0  0  2  0  0  0  0  0  0  0  0  0
    6.6169  -51.7630   18.6473 O   0  0  0  0  0  0  0  0  0  0  0  0
    6.5062  -47.6692   14.6609 C   0  0  2  0  0  0  0  0  0  0  0  0
    1.8265  -47.2627   11.5042 C   0  0  2  0  0  0  0  0  0  0  0  0
    3.0128  -46.9189   12.2058 O   0  0  0  0  0  0  0  0  0  0  0  0
    0.8431  -52.3526    7.7214 C   0  0  2  0  0  0  0  0  0  0  0  0
   -0.4818  -52.3012    8.2832 O   0  0  0  0  0  0  0  0  0  0  0  0
   -2.8186  -52.9560    4.5557 C   0  0  2  0  0  0  0  0  0  0  0  0
   -2.5800  -53.3332    3.1819 O   0  0  0  0  0  0  0  0  0  0  0  0
    6.9509  -50.9422   16.3730 C   0  0  2  0  0  0  0  0  0  0  0  0
    6.2141  -50.6837   15.1162 O   0  0  0  0  0  0  0  0  0  0  0  0
    5.7055  -46.9276   13.5474 C   0  0  2  0  0  0  0  0  0  0  0  0
    5.0457  -47.9336   12.7419 O   0  0  0  0  0  0  0  0  0  0  0  0
    0.6679  -47.2666   12.4951 C   0  0  0  0  0  0  0  0  0  0  0  0
    1.0218  -48.1706   13.5528 O   0  0  0  0  0  0  0  0  0  0  0  0
    1.8501  -52.1697    8.8412 C   0  0  1  0  0  0  0  0  0  0  0  0
    1.9941  -50.9682    9.6272 O   0  0  0  0  0  0  0  0  0  0  0  0
   -2.1830  -51.6233    4.9421 C   0  0  2  0  0  0  0  0  0  0  0  0
   -2.2141  -51.3233    6.3649 O   0  0  0  0  0  0  0  0  0  0  0  0
    8.0400  -51.9243   16.0787 C   0  0  0  0  0  0  0  0  0  0  0  0
    7.4534  -53.0673   15.5174 O   0  0  0  0  0  0  0  0  0  0  0  0
    6.6762  -46.0453   12.6803 C   0  0  1  0  0  0  0  0  0  0  0  0
    5.8811  -45.3233   11.6773 O   0  0  0  0  0  0  0  0  0  0  0  0
    1.8602  -53.3597    9.8650 C   0  0  0  0  0  0  0  0  0  0  0  0
    2.4208  -54.6161    9.3112 N   0  0  0  0  0  0  0  0  0  0  0  0
   -2.5712  -50.3140    4.2588 C   0  0  0  0  0  0  0  0  0  0  0  0
   -2.4120  -50.4295    2.8111 O   0  0  0  0  0  0  0  0  0  0  0  0
  1  2  1  1  0  0  0
  1  8  1  0  0  0  0
  1 36  1  0  0  0  0
  3  4  1  6  0  0  0
  3 10  1  0  0  0  0
  3 47  1  0  0  0  0
  5 11  1  0  0  0  0
  5 30  1  0  0  0  0
  5 38  1  1  0  0  0
  6 21  1  1  0  0  0
  6 42  1  0  0  0  0
  7 15  1  0  0  0  0
  7 44  1  0  0  0  0
  7 32  1  1  0  0  0
  8  9  1  1  0  0  0
  8 17  1  0  0  0  0
 11 12  1  6  0  0  0
 11 20  1  0  0  0  0
 13  6  1  0  0  0  0
 13 14  1  1  0  0  0
 15 16  1  1  0  0  0
 15 24  1  0  0  0  0
 17 26  1  0  0  0  0
 18 10  1  0  0  0  0
 18 19  1  1  0  0  0
 20 21  1  6  0  0  0
 20 29  1  0  0  0  0
 22 13  1  0  0  0  0
 22 23  1  1  0  0  0
 24 25  1  1  0  0  0
 24 33  1  0  0  0  0
 26 27  1  1  0  0  0
 26 35  1  0  0  0  0
 28  2  1  1  0  0  0
 28 18  1  0  0  0  0
 29 30  1  0  0  0  0
 29 39  1  1  0  0  0
 31 22  1  0  0  0  0
 31 32  1  1  0  0  0
 31 41  1  0  0  0  0
 33 34  1  6  0  0  0
 33 43  1  0  0  0  0
 35 36  1  0  0  0  0
 35 45  1  6  0  0  0
 37 28  1  0  0  0  0
 37 38  1  6  0  0  0
 39 40  1  0  0  0  0
 41 42  1  0  0  0  0
 41 49  1  1  0  0  0
 43 44  1  0  0  0  0
 43 51  1  6  0  0  0
 45 46  1  0  0  0  0
 47 37  1  0  0  0  0
 47 48  1  6  0  0  0
 49 50  1  0  0  0  0
 51 52  1  0  0  0  0
M  END
>  <CHROM.1>
-173.04352925,-178.16941022,140.76999833,54.73447485,68.41080448,-156.01953824
58.16749483,63.93419748,62.84923903,174.52498458,70.21246416,-54.77200107
2.75365565,-50.03143860,10.97669158,0.08594757,0.90962989,2.64725950

>  <Name>
2fd0_lig

>  <RI>
2.00683e+07

>  <Rbt.Current_Directory>
/home/itssahil/PROJECTS/Mol_Feturizer/New_Systems/rnas/2fd0

>  <Rbt.Executable>
rbdock ($Id: //depot/dev/client3/rdock/2013.1/src/exe/rbdock.cxx#4 $)

>  <Rbt.Library>
libRbt.so (2013.1, Build901 2013/11/27)

>  <Rbt.Parameter_File>
/export/apps/rDock/src/rDock_2013.1_src/data/scripts/dock_solv.prm

>  <Rbt.Receptor>
prm/pocket_docking_4.prm

>  <SCORE>
-21.1502

>  <SCORE.INTER>
-15.9024

>  <SCORE.INTER.CONST>
1

>  <SCORE.INTER.POLAR>
-1.83251

>  <SCORE.INTER.ROT>
12

>  <SCORE.INTER.SOLV>
15.4323

>  <SCORE.INTER.VDW>
-21.2373

>  <SCORE.INTER.norm>
-0.305815

>  <SCORE.INTRA>
-5.2478

>  <SCORE.INTRA.DIHEDRAL>
-13.2644

>  <SCORE.INTRA.DIHEDRAL.0>
23.9727

>  <SCORE.INTRA.POLAR>
0

>  <SCORE.INTRA.POLAR.0>
0

>  <SCORE.INTRA.REPUL>
0.0193899

>  <SCORE.INTRA.REPUL.0>
0

>  <SCORE.INTRA.SOLV>
-1.78825

>  <SCORE.INTRA.SOLV.lig_0>
-115.028

>  <SCORE.INTRA.VDW>
2.18155

>  <SCORE.INTRA.VDW.0>
-6.82393

>  <SCORE.INTRA.norm>
-0.100919

>  <SCORE.RESTR>
0

>  <SCORE.RESTR.CAVITY>
0

>  <SCORE.RESTR.norm>
0

>  <SCORE.SYSTEM>
0

>  <SCORE.SYSTEM.CONST>
0

>  <SCORE.SYSTEM.DIHEDRAL>
0

>  <SCORE.SYSTEM.SOLV>
0

>  <SCORE.SYSTEM.norm>
0

>  <SCORE.heavy>
52

>  <SCORE.norm>
-0.406734

>  <RMSD>
2.529

$$$$
2fd0_lig
 OpenBabel11021811433D
libRbt.so/2013.1/901 2013/11/27
 52 56  0  0  0  0  0  0  0  0999 V2000
    4.4002  -49.9593   14.7155 C   0  0  2  0  0  0  0  0  0  0  0  0
    5.0753  -48.7134   14.4940 O   0  0  0  0  0  0  0  0  0  0  0  0
    5.1688  -45.8341   11.2392 C   0  0  2  0  0  0  0  0  0  0  0  0
    5.4365  -45.2104    9.9329 N   0  0  0  0  0  0  0  0  0  0  0  0
    1.9724  -49.0728   11.7084 C   0  0  1  0  0  0  0  0  0  0  0  0
   -0.0324  -51.4088    8.8124 C   0  0  1  0  0  0  0  0  0  0  0  0
   -3.4427  -52.2432    5.4083 C   0  0  1  0  0  0  0  0  0  0  0  0
    3.6130  -49.8669   16.0732 C   0  0  2  0  0  0  0  0  0  0  0  0
    2.6770  -48.7513   16.0827 N   0  0  0  0  0  0  0  0  0  0  0  0
    6.5342  -46.2542   11.9407 C   0  0  0  0  0  0  0  0  0  0  0  0
    1.9319  -50.3062   10.8249 C   0  0  2  0  0  0  0  0  0  0  0  0
    2.2755  -50.0061    9.4428 O   0  0  0  0  0  0  0  0  0  0  0  0
   -0.7764  -50.7004    7.5861 C   0  0  2  0  0  0  0  0  0  0  0  0
   -2.2144  -50.4835    7.9031 N   0  0  0  0  0  0  0  0  0  0  0  0
   -4.7352  -52.6817    6.1327 C   0  0  1  0  0  0  0  0  0  0  0  0
   -4.9005  -51.8813    7.3294 O   0  0  0  0  0  0  0  0  0  0  0  0
    4.6158  -49.7841   17.2832 C   0  0  0  0  0  0  0  0  0  0  0  0
    6.2408  -46.9229   13.3676 C   0  0  2  0  0  0  0  0  0  0  0  0
    7.4875  -47.3231   14.0365 N   0  0  0  0  0  0  0  0  0  0  0  0
    0.5326  -50.8485   11.0623 C   0  0  2  0  0  0  0  0  0  0  0  0
   -0.2941  -50.6396    9.9498 O   0  0  0  0  0  0  0  0  0  0  0  0
   -0.4804  -51.5853    6.2669 C   0  0  1  0  0  0  0  0  0  0  0  0
    0.9467  -51.6807    6.1073 O   0  0  0  0  0  0  0  0  0  0  0  0
   -6.0614  -52.6241    5.3271 C   0  0  1  0  0  0  0  0  0  0  0  0
   -6.6745  -51.3528    5.5766 O   0  0  0  0  0  0  0  0  0  0  0  0
    5.5799  -51.0131   17.2142 C   0  0  2  0  0  0  0  0  0  0  0  0
    6.4941  -50.9850   18.3058 O   0  0  0  0  0  0  0  0  0  0  0  0
    5.3190  -48.1588   13.1710 C   0  0  2  0  0  0  0  0  0  0  0  0
   -0.1213  -50.0459   12.2124 C   0  0  2  0  0  0  0  0  0  0  0  0
    0.9550  -49.2453   12.6795 O   0  0  0  0  0  0  0  0  0  0  0  0
   -1.0275  -53.0989    6.4216 C   0  0  2  0  0  0  0  0  0  0  0  0
   -2.4535  -52.9548    6.5605 O   0  0  0  0  0  0  0  0  0  0  0  0
   -5.9380  -52.8259    3.7992 C   0  0  2  0  0  0  0  0  0  0  0  0
   -7.0521  -53.6652    3.4238 O   0  0  0  0  0  0  0  0  0  0  0  0
    6.3599  -50.9840   15.8687 C   0  0  2  0  0  0  0  0  0  0  0  0
    5.3767  -51.0314   14.7638 O   0  0  0  0  0  0  0  0  0  0  0  0
    3.9899  -47.8096   12.4345 C   0  0  2  0  0  0  0  0  0  0  0  0
    3.2448  -49.0404   12.2734 O   0  0  0  0  0  0  0  0  0  0  0  0
   -0.6346  -50.8855   13.3769 C   0  0  0  0  0  0  0  0  0  0  0  0
   -1.5025  -51.8863   12.8235 O   0  0  0  0  0  0  0  0  0  0  0  0
   -0.4629  -53.6057    7.7353 C   0  0  1  0  0  0  0  0  0  0  0  0
   -0.4869  -52.8706    8.9768 O   0  0  0  0  0  0  0  0  0  0  0  0
   -4.5788  -53.4151    3.4320 C   0  0  2  0  0  0  0  0  0  0  0  0
   -3.4372  -52.7073    3.9900 O   0  0  0  0  0  0  0  0  0  0  0  0
    7.2766  -52.1571   15.7245 C   0  0  0  0  0  0  0  0  0  0  0  0
    8.3526  -51.9775   16.6051 O   0  0  0  0  0  0  0  0  0  0  0  0
    4.3013  -47.1422   11.0452 C   0  0  1  0  0  0  0  0  0  0  0  0
    3.0290  -46.7807   10.4048 O   0  0  0  0  0  0  0  0  0  0  0  0
   -0.9270  -55.0635    8.0872 C   0  0  0  0  0  0  0  0  0  0  0  0
   -0.4930  -56.0806    7.0990 N   0  0  0  0  0  0  0  0  0  0  0  0
   -4.1880  -53.7064    1.9848 C   0  0  0  0  0  0  0  0  0  0  0  0
   -2.8209  -54.2176    1.9206 O   0  0  0  0  0  0  0  0  0  0  0  0
  1  2  1  1  0  0  0
  1  8  1  0  0  0  0
  1 36  1  0  0  0  0
  3  4  1  6  0  0  0
  3 10  1  0  0  0  0
  3 47  1  0  0  0  0
  5 11  1  0  0  0  0
  5 30  1  0  0  0  0
  5 38  1  1  0  0  0
  6 21  1  1  0  0  0
  6 42  1  0  0  0  0
  7 15  1  0  0  0  0
  7 44  1  0  0  0  0
  7 32  1  1  0  0  0
  8  9  1  6  0  0  0
  8 17  1  0  0  0  0
 11 12  1  6  0  0  0
 11 20  1  0  0  0  0
 13  6  1  0  0  0  0
 13 14  1  1  0  0  0
 15 16  1  1  0  0  0
 15 24  1  0  0  0  0
 17 26  1  0  0  0  0
 18 10  1  0  0  0  0
 18 19  1  6  0  0  0
 20 21  1  6  0  0  0
 20 29  1  0  0  0  0
 22 13  1  0  0  0  0
 22 23  1  1  0  0  0
 24 25  1  6  0  0  0
 24 33  1  0  0  0  0
 26 27  1  1  0  0  0
 26 35  1  0  0  0  0
 28  2  1  1  0  0  0
 28 18  1  0  0  0  0
 29 30  1  0  0  0  0
 29 39  1  1  0  0  0
 31 22  1  0  0  0  0
 31 32  1  1  0  0  0
 31 41  1  0  0  0  0
 33 34  1  1  0  0  0
 33 43  1  0  0  0  0
 35 36  1  0  0  0  0
 35 45  1  1  0  0  0
 37 28  1  0  0  0  0
 37 38  1  6  0  0  0
 39 40  1  0  0  0  0
 41 42  1  0  0  0  0
 41 49  1  1  0  0  0
 43 44  1  0  0  0  0
 43 51  1  6  0  0  0
 45 46  1  0  0  0  0
 47 37  1  0  0  0  0
 47 48  1  1  0  0  0
 49 50  1  0  0  0  0
 51 52  1  0  0  0  0
M  END
>  <CHROM.1>
-148.05037635,139.83672469,-163.20315401,170.84404821,71.06801662,-172.12904575
-53.34126196,59.75922819,-71.99177286,176.76321258,61.85127420,177.92861399
0.99733836,-50.78798615,10.19257668,0.36778088,0.77304569,2.27444742

>  <Name>
2fd0_lig

>  <RI>
2.00683e+07

>  <Rbt.Current_Directory>
/home/itssahil/PROJECTS/Mol_Feturizer/New_Systems/rnas/2fd0

>  <Rbt.Executable>
rbdock ($Id: //depot/dev/client3/rdock/2013.1/src/exe/rbdock.cxx#4 $)

>  <Rbt.Library>
libRbt.so (2013.1, Build901 2013/11/27)

>  <Rbt.Parameter_File>
/export/apps/rDock/src/rDock_2013.1_src/data/scripts/dock_solv.prm

>  <Rbt.Receptor>
prm/pocket_docking_4.prm

>  <SCORE>
-20.8878

>  <SCORE.INTER>
-16.5082

>  <SCORE.INTER.CONST>
1

>  <SCORE.INTER.POLAR>
-1.81288

>  <SCORE.INTER.ROT>
12

>  <SCORE.INTER.SOLV>
17.2654

>  <SCORE.INTER.VDW>
-22.3176

>  <SCORE.INTER.norm>
-0.317465

>  <SCORE.INTRA>
-4.37966

>  <SCORE.INTRA.DIHEDRAL>
-9.65055

>  <SCORE.INTRA.DIHEDRAL.0>
23.9727

>  <SCORE.INTRA.POLAR>
0

>  <SCORE.INTRA.POLAR.0>
0

>  <SCORE.INTRA.REPUL>
0

>  <SCORE.INTRA.REPUL.0>
0

>  <SCORE.INTRA.SOLV>
-2.46553

>  <SCORE.INTRA.SOLV.lig_0>
-115.028

>  <SCORE.INTRA.VDW>
1.67838

>  <SCORE.INTRA.VDW.0>
-6.82393

>  <SCORE.INTRA.norm>
-0.0842242

>  <SCORE.RESTR>
0

>  <SCORE.RESTR.CAVITY>
0

>  <SCORE.RESTR.norm>
0

>  <SCORE.SYSTEM>
0

>  <SCORE.SYSTEM.CONST>
0

>  <SCORE.SYSTEM.DIHEDRAL>
0

>  <SCORE.SYSTEM.SOLV>
0

>  <SCORE.SYSTEM.norm>
0

>  <SCORE.heavy>
52

>  <SCORE.norm>
-0.401689

>  <RMSD>
2.533

$$$$
2fd0_lig
 OpenBabel11021811433D
libRbt.so/2013.1/901 2013/11/27
 52 56  0  0  0  0  0  0  0  0999 V2000
    5.0008  -49.5540   14.8721 C   0  0  2  0  0  0  0  0  0  0  0  0
    5.7523  -48.3653   15.1539 O   0  0  0  0  0  0  0  0  0  0  0  0
    7.9177  -45.3669   12.8708 C   0  0  2  0  0  0  0  0  0  0  0  0
    8.9047  -44.7302   11.9833 N   0  0  0  0  0  0  0  0  0  0  0  0
    4.4403  -47.8935   11.2369 C   0  0  1  0  0  0  0  0  0  0  0  0
    1.8376  -50.0986    8.7807 C   0  0  1  0  0  0  0  0  0  0  0  0
   -1.6825  -51.3715    5.4941 C   0  0  1  0  0  0  0  0  0  0  0  0
    3.9138  -49.7358   15.9933 C   0  0  2  0  0  0  0  0  0  0  0  0
    3.0424  -48.5737   16.0975 N   0  0  0  0  0  0  0  0  0  0  0  0
    8.6522  -46.1016   14.0765 C   0  0  0  0  0  0  0  0  0  0  0  0
    3.6815  -49.1783   10.9592 C   0  0  2  0  0  0  0  0  0  0  0  0
    4.3172  -49.9819    9.9256 O   0  0  0  0  0  0  0  0  0  0  0  0
    1.5082  -49.9583    7.2215 C   0  0  2  0  0  0  0  0  0  0  0  0
    0.3463  -49.0517    7.0132 N   0  0  0  0  0  0  0  0  0  0  0  0
   -2.1729  -52.8369    5.4819 C   0  0  1  0  0  0  0  0  0  0  0  0
   -3.3171  -52.9592    6.3626 O   0  0  0  0  0  0  0  0  0  0  0  0
    4.5983  -50.0645   17.3716 C   0  0  0  0  0  0  0  0  0  0  0  0
    7.5751  -46.7846   15.0474 C   0  0  2  0  0  0  0  0  0  0  0  0
    8.2288  -47.4735   16.1699 N   0  0  0  0  0  0  0  0  0  0  0  0
    2.2779  -48.6844   10.6518 C   0  0  2  0  0  0  0  0  0  0  0  0
    1.9793  -48.8037    9.2875 O   0  0  0  0  0  0  0  0  0  0  0  0
    1.3406  -51.4520    6.6282 C   0  0  1  0  0  0  0  0  0  0  0  0
    2.5515  -52.1784    6.9058 O   0  0  0  0  0  0  0  0  0  0  0  0
   -2.5539  -53.4522    4.1081 C   0  0  1  0  0  0  0  0  0  0  0  0
   -3.9615  -53.2633    3.9150 O   0  0  0  0  0  0  0  0  0  0  0  0
    5.5072  -51.3232   17.1871 C   0  0  2  0  0  0  0  0  0  0  0  0
    6.1325  -51.6655   18.4201 O   0  0  0  0  0  0  0  0  0  0  0  0
    6.7175  -47.7902   14.2294 C   0  0  2  0  0  0  0  0  0  0  0  0
    2.2093  -47.1681   10.9529 C   0  0  2  0  0  0  0  0  0  0  0  0
    3.4657  -46.9192   11.5667 O   0  0  0  0  0  0  0  0  0  0  0  0
    0.1437  -52.2587    7.3569 C   0  0  2  0  0  0  0  0  0  0  0  0
   -1.0435  -51.5084    7.0386 O   0  0  0  0  0  0  0  0  0  0  0  0
   -1.8030  -52.8894    2.8793 C   0  0  2  0  0  0  0  0  0  0  0  0
   -1.5028  -54.0312    2.0471 O   0  0  0  0  0  0  0  0  0  0  0  0
    6.5886  -51.0270   16.1088 C   0  0  2  0  0  0  0  0  0  0  0  0
    5.8991  -50.6931   14.8429 O   0  0  0  0  0  0  0  0  0  0  0  0
    6.0214  -47.1299   13.0004 C   0  0  2  0  0  0  0  0  0  0  0  0
    5.2958  -48.1690   12.3005 O   0  0  0  0  0  0  0  0  0  0  0  0
    1.1105  -46.7504   11.9238 C   0  0  0  0  0  0  0  0  0  0  0  0
   -0.1398  -47.1478   11.3406 O   0  0  0  0  0  0  0  0  0  0  0  0
    0.4111  -52.1315    8.8447 C   0  0  1  0  0  0  0  0  0  0  0  0
    0.7469  -50.8990    9.5157 O   0  0  0  0  0  0  0  0  0  0  0  0
   -0.5665  -52.1026    3.3055 C   0  0  2  0  0  0  0  0  0  0  0  0
   -0.8099  -51.0867    4.3175 O   0  0  0  0  0  0  0  0  0  0  0  0
    7.4716  -52.2080   15.8586 C   0  0  0  0  0  0  0  0  0  0  0  0
    8.2697  -52.4015   16.9950 O   0  0  0  0  0  0  0  0  0  0  0  0
    7.0943  -46.4543   12.0703 C   0  0  1  0  0  0  0  0  0  0  0  0
    6.3988  -45.7997   10.9534 O   0  0  0  0  0  0  0  0  0  0  0  0
   -0.6847  -52.8219    9.7318 C   0  0  0  0  0  0  0  0  0  0  0  0
   -0.7129  -54.2988    9.6000 N   0  0  0  0  0  0  0  0  0  0  0  0
    0.3531  -51.4288    2.2895 C   0  0  0  0  0  0  0  0  0  0  0  0
    0.9979  -52.4312    1.4445 O   0  0  0  0  0  0  0  0  0  0  0  0
  1  2  1  1  0  0  0
  1  8  1  0  0  0  0
  1 36  1  0  0  0  0
  3  4  1  6  0  0  0
  3 10  1  0  0  0  0
  3 47  1  0  0  0  0
  5 11  1  0  0  0  0
  5 30  1  0  0  0  0
  5 38  1  1  0  0  0
  6 21  1  1  0  0  0
  6 42  1  0  0  0  0
  7 15  1  0  0  0  0
  7 44  1  0  0  0  0
  7 32  1  1  0  0  0
  8  9  1  1  0  0  0
  8 17  1  0  0  0  0
 11 12  1  6  0  0  0
 11 20  1  0  0  0  0
 13  6  1  0  0  0  0
 13 14  1  1  0  0  0
 15 16  1  1  0  0  0
 15 24  1  0  0  0  0
 17 26  1  0  0  0  0
 18 10  1  0  0  0  0
 18 19  1  1  0  0  0
 20 21  1  6  0  0  0
 20 29  1  0  0  0  0
 22 13  1  0  0  0  0
 22 23  1  1  0  0  0
 24 25  1  6  0  0  0
 24 33  1  0  0  0  0
 26 27  1  1  0  0  0
 26 35  1  0  0  0  0
 28  2  1  1  0  0  0
 28 18  1  0  0  0  0
 29 30  1  0  0  0  0
 29 39  1  1  0  0  0
 31 22  1  0  0  0  0
 31 32  1  1  0  0  0
 31 41  1  0  0  0  0
 33 34  1  6  0  0  0
 33 43  1  0  0  0  0
 35 36  1  0  0  0  0
 35 45  1  6  0  0  0
 37 28  1  0  0  0  0
 37 38  1  6  0  0  0
 39 40  1  0  0  0  0
 41 42  1  0  0  0  0
 41 49  1  1  0  0  0
 43 44  1  0  0  0  0
 43 51  1  6  0  0  0
 45 46  1  0  0  0  0
 47 37  1  0  0  0  0
 47 48  1  6  0  0  0
 49 50  1  0  0  0  0
 51 52  1  0  0  0  0
M  END
>  <CHROM.1>
-171.29287959,-169.31265587,-179.81712887,71.74194247,68.78870771,-164.47285464
-59.76248239,66.93828057,-69.48461692,172.72713629,66.76336875,-64.54114159
2.81422031,-49.99748725,10.34530229,0.51721763,0.85373545,2.15178993

>  <Name>
2fd0_lig

>  <RI>
0

>  <Rbt.Current_Directory>
/home/itssahil/PROJECTS/Mol_Feturizer/New_Systems/rnas/2fd0

>  <Rbt.Executable>
rbdock ($Id: //depot/dev/client3/rdock/2013.1/src/exe/rbdock.cxx#4 $)

>  <Rbt.Library>
libRbt.so (2013.1, Build901 2013/11/27)

>  <Rbt.Parameter_File>
/export/apps/rDock/src/rDock_2013.1_src/data/scripts/dock_solv.prm

>  <Rbt.Receptor>
prm/pocket_docking_5.prm

>  <SCORE>
-29.424

>  <SCORE.INTER>
-19.7386

>  <SCORE.INTER.CONST>
1

>  <SCORE.INTER.POLAR>
-1.80473

>  <SCORE.INTER.ROT>
12

>  <SCORE.INTER.SOLV>
16.7471

>  <SCORE.INTER.VDW>
-24.3257

>  <SCORE.INTER.norm>
-0.379589

>  <SCORE.INTRA>
-9.7018

>  <SCORE.INTRA.DIHEDRAL>
-18.2766

>  <SCORE.INTRA.DIHEDRAL.0>
23.9727

>  <SCORE.INTRA.POLAR>
0

>  <SCORE.INTRA.POLAR.0>
0

>  <SCORE.INTRA.REPUL>
0

>  <SCORE.INTRA.REPUL.0>
0

>  <SCORE.INTRA.SOLV>
-3.91233

>  <SCORE.INTRA.SOLV.lig_0>
-115.028

>  <SCORE.INTRA.VDW>
1.39265

>  <SCORE.INTRA.VDW.0>
-6.82393

>  <SCORE.INTRA.norm>
-0.186573

>  <SCORE.RESTR>
0.016413

>  <SCORE.RESTR.CAVITY>
0.016413

>  <SCORE.RESTR.norm>
0.000315635

>  <SCORE.SYSTEM>
0

>  <SCORE.SYSTEM.CONST>
0

>  <SCORE.SYSTEM.DIHEDRAL>
0

>  <SCORE.SYSTEM.SOLV>
0

>  <SCORE.SYSTEM.norm>
0

>  <SCORE.heavy>
52

>  <SCORE.norm>
-0.565846

>  <RMSD>
2.541

$$$$
2fd0_lig
 OpenBabel11021811433D
libRbt.so/2013.1/901 2013/11/27
 52 56  0  0  0  0  0  0  0  0999 V2000
    4.8527  -49.4281   15.0915 C   0  0  2  0  0  0  0  0  0  0  0  0
    5.3277  -48.1417   15.5116 O   0  0  0  0  0  0  0  0  0  0  0  0
    7.4104  -44.5833   14.1358 C   0  0  2  0  0  0  0  0  0  0  0  0
    8.2807  -43.6874   13.3568 N   0  0  0  0  0  0  0  0  0  0  0  0
    4.6686  -47.4772   12.0391 C   0  0  1  0  0  0  0  0  0  0  0  0
    3.4344  -49.7369    8.3067 C   0  0  1  0  0  0  0  0  0  0  0  0
   -1.1964  -50.6342    6.9528 C   0  0  1  0  0  0  0  0  0  0  0  0
    3.8019  -49.9408   16.1425 C   0  0  2  0  0  0  0  0  0  0  0  0
    2.7015  -49.0021   16.3116 N   0  0  0  0  0  0  0  0  0  0  0  0
    8.2554  -45.7931   14.7319 C   0  0  0  0  0  0  0  0  0  0  0  0
    3.4666  -48.3508   11.7297 C   0  0  2  0  0  0  0  0  0  0  0  0
    3.5806  -49.6755   12.3218 O   0  0  0  0  0  0  0  0  0  0  0  0
    2.0387  -48.9927    8.0666 C   0  0  2  0  0  0  0  0  0  0  0  0
    1.0384  -49.4192    9.0828 N   0  0  0  0  0  0  0  0  0  0  0  0
   -1.7753  -51.7624    7.8360 C   0  0  1  0  0  0  0  0  0  0  0  0
   -1.3558  -51.5511    9.2068 O   0  0  0  0  0  0  0  0  0  0  0  0
    4.5066  -50.2513   17.5148 C   0  0  0  0  0  0  0  0  0  0  0  0
    7.3079  -46.7612   15.5889 C   0  0  2  0  0  0  0  0  0  0  0  0
    8.0646  -47.8903   16.1494 N   0  0  0  0  0  0  0  0  0  0  0  0
    3.3922  -48.3017   10.2129 C   0  0  2  0  0  0  0  0  0  0  0  0
    3.7917  -49.5170    9.6400 O   0  0  0  0  0  0  0  0  0  0  0  0
    1.6174  -49.2441    6.5270 C   0  0  1  0  0  0  0  0  0  0  0  0
    2.6858  -48.7648    5.6904 O   0  0  0  0  0  0  0  0  0  0  0  0
   -3.3156  -51.9581    7.8278 C   0  0  1  0  0  0  0  0  0  0  0  0
   -3.8630  -51.1970    8.9119 O   0  0  0  0  0  0  0  0  0  0  0  0
    5.6663  -51.2684   17.2587 C   0  0  2  0  0  0  0  0  0  0  0  0
    6.3195  -51.5904   18.4826 O   0  0  0  0  0  0  0  0  0  0  0  0
    6.1602  -47.2849   14.6810 C   0  0  2  0  0  0  0  0  0  0  0  0
    4.4107  -47.2554    9.7006 C   0  0  2  0  0  0  0  0  0  0  0  0
    4.8632  -46.6517   10.9040 O   0  0  0  0  0  0  0  0  0  0  0  0
    1.4473  -50.8180    6.1984 C   0  0  2  0  0  0  0  0  0  0  0  0
    0.3619  -51.2476    7.0416 O   0  0  0  0  0  0  0  0  0  0  0  0
   -4.0445  -51.5613    6.5233 C   0  0  2  0  0  0  0  0  0  0  0  0
   -5.0370  -52.5871    6.3017 O   0  0  0  0  0  0  0  0  0  0  0  0
    6.6861  -50.6497   16.2603 C   0  0  2  0  0  0  0  0  0  0  0  0
    5.9726  -50.3461   15.0001 O   0  0  0  0  0  0  0  0  0  0  0  0
    5.3364  -46.1350   14.0254 C   0  0  2  0  0  0  0  0  0  0  0  0
    4.3354  -46.7456   13.1761 O   0  0  0  0  0  0  0  0  0  0  0  0
    3.8257  -46.1662    8.8085 C   0  0  0  0  0  0  0  0  0  0  0  0
    2.7916  -45.5152    9.5624 O   0  0  0  0  0  0  0  0  0  0  0  0
    2.7251  -51.4774    6.6822 C   0  0  1  0  0  0  0  0  0  0  0  0
    3.3383  -51.2352    7.9657 O   0  0  0  0  0  0  0  0  0  0  0  0
   -3.0577  -51.4071    5.3691 C   0  0  2  0  0  0  0  0  0  0  0  0
   -1.9205  -50.5452    5.6510 O   0  0  0  0  0  0  0  0  0  0  0  0
    7.8055  -51.5902   15.9447 C   0  0  0  0  0  0  0  0  0  0  0  0
    7.2574  -52.7287   15.3372 O   0  0  0  0  0  0  0  0  0  0  0  0
    6.2870  -45.1904   13.2026 C   0  0  1  0  0  0  0  0  0  0  0  0
    5.4857  -44.0926   12.6440 O   0  0  0  0  0  0  0  0  0  0  0  0
    2.7296  -53.0352    6.4880 C   0  0  0  0  0  0  0  0  0  0  0  0
    1.9080  -53.4940    5.3418 N   0  0  0  0  0  0  0  0  0  0  0  0
   -3.5102  -51.0095    3.9659 C   0  0  0  0  0  0  0  0  0  0  0  0
   -4.3586  -52.0510    3.3913 O   0  0  0  0  0  0  0  0  0  0  0  0
  1  2  1  1  0  0  0
  1  8  1  0  0  0  0
  1 36  1  0  0  0  0
  3  4  1  6  0  0  0
  3 10  1  0  0  0  0
  3 47  1  0  0  0  0
  5 11  1  0  0  0  0
  5 30  1  0  0  0  0
  5 38  1  1  0  0  0
  6 21  1  1  0  0  0
  6 42  1  0  0  0  0
  7 15  1  0  0  0  0
  7 44  1  0  0  0  0
  7 32  1  6  0  0  0
  8  9  1  1  0  0  0
  8 17  1  0  0  0  0
 11 12  1  6  0  0  0
 11 20  1  0  0  0  0
 13  6  1  0  0  0  0
 13 14  1  1  0  0  0
 15 16  1  1  0  0  0
 15 24  1  0  0  0  0
 17 26  1  0  0  0  0
 18 10  1  0  0  0  0
 18 19  1  6  0  0  0
 20 21  1  6  0  0  0
 20 29  1  0  0  0  0
 22 13  1  0  0  0  0
 22 23  1  6  0  0  0
 24 25  1  1  0  0  0
 24 33  1  0  0  0  0
 26 27  1  1  0  0  0
 26 35  1  0  0  0  0
 28  2  1  1  0  0  0
 28 18  1  0  0  0  0
 29 30  1  0  0  0  0
 29 39  1  6  0  0  0
 31 22  1  0  0  0  0
 31 32  1  1  0  0  0
 31 41  1  0  0  0  0
 33 34  1  6  0  0  0
 33 43  1  0  0  0  0
 35 36  1  0  0  0  0
 35 45  1  6  0  0  0
 37 28  1  0  0  0  0
 37 38  1  6  0  0  0
 39 40  1  0  0  0  0
 41 42  1  0  0  0  0
 41 49  1  1  0  0  0
 43 44  1  0  0  0  0
 43 51  1  6  0  0  0
 45 46  1  0  0  0  0
 47 37  1  0  0  0  0
 47 48  1  1  0  0  0
 49 50  1  0  0  0  0
 51 52  1  0  0  0  0
M  END
>  <CHROM.1>
-170.65696309,159.61934135,-31.90341171,167.09992036,163.12339853,-134.42479599
57.46033850,61.06274454,61.71211058,-65.69037025,28.94135269,-65.14802600
2.89758267,-49.36363238,10.83722951,0.38576980,0.80547530,2.29031713

>  <Name>
2fd0_lig

>  <RI>
2.00683e+07

>  <Rbt.Current_Directory>
/home/itssahil/PROJECTS/Mol_Feturizer/New_Systems/rnas/2fd0

>  <Rbt.Executable>
rbdock ($Id: //depot/dev/client3/rdock/2013.1/src/exe/rbdock.cxx#4 $)

>  <Rbt.Library>
libRbt.so (2013.1, Build901 2013/11/27)

>  <Rbt.Parameter_File>
/export/apps/rDock/src/rDock_2013.1_src/data/scripts/dock_solv.prm

>  <Rbt.Receptor>
prm/pocket_docking_4.prm

>  <SCORE>
-19.6108

>  <SCORE.INTER>
-20.7747

>  <SCORE.INTER.CONST>
1

>  <SCORE.INTER.POLAR>
-1.72703

>  <SCORE.INTER.ROT>
12

>  <SCORE.INTER.SOLV>
15.3145

>  <SCORE.INTER.VDW>
-24.7979

>  <SCORE.INTER.norm>
-0.399514

>  <SCORE.INTRA>
1.16388

>  <SCORE.INTRA.DIHEDRAL>
-6.33037

>  <SCORE.INTRA.DIHEDRAL.0>
23.9727

>  <SCORE.INTRA.POLAR>
0

>  <SCORE.INTRA.POLAR.0>
0

>  <SCORE.INTRA.REPUL>
0

>  <SCORE.INTRA.REPUL.0>
0

>  <SCORE.INTRA.SOLV>
1.8586

>  <SCORE.INTRA.SOLV.lig_0>
-115.028

>  <SCORE.INTRA.VDW>
3.39976

>  <SCORE.INTRA.VDW.0>
-6.82393

>  <SCORE.INTRA.norm>
0.0223823

>  <SCORE.RESTR>
0

>  <SCORE.RESTR.CAVITY>
0

>  <SCORE.RESTR.norm>
0

>  <SCORE.SYSTEM>
0

>  <SCORE.SYSTEM.CONST>
0

>  <SCORE.SYSTEM.DIHEDRAL>
0

>  <SCORE.SYSTEM.SOLV>
0

>  <SCORE.SYSTEM.norm>
0

>  <SCORE.heavy>
52

>  <SCORE.norm>
-0.377131

>  <RMSD>
2.584

$$$$
2fd0_lig
 OpenBabel11021811433D
libRbt.so/2013.1/901 2013/11/27
 52 56  0  0  0  0  0  0  0  0999 V2000
    4.9727  -50.0902   15.2128 C   0  0  2  0  0  0  0  0  0  0  0  0
    5.6670  -48.8373   15.1422 O   0  0  0  0  0  0  0  0  0  0  0  0
    6.6982  -46.1714   11.8676 C   0  0  2  0  0  0  0  0  0  0  0  0
    7.3595  -45.6104   10.6781 N   0  0  0  0  0  0  0  0  0  0  0  0
    3.4225  -49.6152   12.0232 C   0  0  1  0  0  0  0  0  0  0  0  0
    0.6060  -50.5346   10.4681 C   0  0  1  0  0  0  0  0  0  0  0  0
   -0.9984  -51.5167    6.0089 C   0  0  1  0  0  0  0  0  0  0  0  0
    4.2054  -50.1600   16.5832 C   0  0  2  0  0  0  0  0  0  0  0  0
    3.2897  -49.0400   16.7498 N   0  0  0  0  0  0  0  0  0  0  0  0
    7.7630  -46.4270   13.0225 C   0  0  0  0  0  0  0  0  0  0  0  0
    3.1803  -51.1106   11.9301 C   0  0  2  0  0  0  0  0  0  0  0  0
    3.4448  -51.6302   10.5966 O   0  0  0  0  0  0  0  0  0  0  0  0
   -0.7105  -50.9570    9.6631 C   0  0  2  0  0  0  0  0  0  0  0  0
   -0.5549  -52.3208    9.0875 N   0  0  0  0  0  0  0  0  0  0  0  0
   -1.0536  -50.3638    4.9816 C   0  0  1  0  0  0  0  0  0  0  0  0
    0.0869  -50.4676    4.0937 O   0  0  0  0  0  0  0  0  0  0  0  0
    5.2254  -50.2493   17.7782 C   0  0  0  0  0  0  0  0  0  0  0  0
    7.0389  -47.0274   14.3204 C   0  0  2  0  0  0  0  0  0  0  0  0
    8.0024  -47.2756   15.4029 N   0  0  0  0  0  0  0  0  0  0  0  0
    1.7536  -51.2558   12.4323 C   0  0  2  0  0  0  0  0  0  0  0  0
    0.8696  -51.5549   11.3864 O   0  0  0  0  0  0  0  0  0  0  0  0
   -1.0209  -49.7829    8.5972 C   0  0  1  0  0  0  0  0  0  0  0  0
   -1.1522  -48.5474    9.3234 O   0  0  0  0  0  0  0  0  0  0  0  0
   -2.3333  -50.2424    4.1107 C   0  0  1  0  0  0  0  0  0  0  0  0
   -2.1061  -50.9585    2.8901 O   0  0  0  0  0  0  0  0  0  0  0  0
    6.1662  -51.4747   17.5376 C   0  0  2  0  0  0  0  0  0  0  0  0
    7.0952  -51.6014   18.6096 O   0  0  0  0  0  0  0  0  0  0  0  0
    6.3158  -48.3482   13.9351 C   0  0  2  0  0  0  0  0  0  0  0  0
    1.2821  -49.8901   12.9864 C   0  0  2  0  0  0  0  0  0  0  0  0
    2.4716  -49.1149   12.9470 O   0  0  0  0  0  0  0  0  0  0  0  0
    0.1989  -49.5765    7.5562 C   0  0  2  0  0  0  0  0  0  0  0  0
    0.2811  -50.8255    6.8442 O   0  0  0  0  0  0  0  0  0  0  0  0
   -3.6434  -50.7553    4.7520 C   0  0  2  0  0  0  0  0  0  0  0  0
   -4.6590  -49.7940    4.3902 O   0  0  0  0  0  0  0  0  0  0  0  0
    6.9288  -51.2858   16.1950 C   0  0  2  0  0  0  0  0  0  0  0  0
    5.9304  -51.1753   15.1085 O   0  0  0  0  0  0  0  0  0  0  0  0
    5.3012  -48.1620   12.7660 C   0  0  2  0  0  0  0  0  0  0  0  0
    4.7312  -49.4602   12.4729 O   0  0  0  0  0  0  0  0  0  0  0  0
    0.7742  -49.9157   14.4237 C   0  0  0  0  0  0  0  0  0  0  0  0
   -0.3877  -50.7589   14.4444 O   0  0  0  0  0  0  0  0  0  0  0  0
    1.4438  -49.4243    8.4097 C   0  0  1  0  0  0  0  0  0  0  0  0
    1.7900  -50.2829    9.5166 O   0  0  0  0  0  0  0  0  0  0  0  0
   -3.4822  -50.9351    6.2591 C   0  0  2  0  0  0  0  0  0  0  0  0
   -2.3262  -51.7223    6.6584 O   0  0  0  0  0  0  0  0  0  0  0  0
    7.8223  -52.4453   15.8878 C   0  0  0  0  0  0  0  0  0  0  0  0
    8.8756  -52.4384   16.8131 O   0  0  0  0  0  0  0  0  0  0  0  0
    6.0293  -47.5591   11.5094 C   0  0  1  0  0  0  0  0  0  0  0  0
    5.0344  -47.3497   10.4484 O   0  0  0  0  0  0  0  0  0  0  0  0
    2.7567  -49.2574    7.5653 C   0  0  0  0  0  0  0  0  0  0  0  0
    3.9975  -49.4970    8.3414 N   0  0  0  0  0  0  0  0  0  0  0  0
   -4.6223  -51.4419    7.1395 C   0  0  0  0  0  0  0  0  0  0  0  0
   -5.7530  -50.5180    7.0886 O   0  0  0  0  0  0  0  0  0  0  0  0
  1  2  1  1  0  0  0
  1  8  1  0  0  0  0
  1 36  1  0  0  0  0
  3  4  1  6  0  0  0
  3 10  1  0  0  0  0
  3 47  1  0  0  0  0
  5 11  1  0  0  0  0
  5 30  1  0  0  0  0
  5 38  1  1  0  0  0
  6 21  1  1  0  0  0
  6 42  1  0  0  0  0
  7 15  1  0  0  0  0
  7 44  1  0  0  0  0
  7 32  1  1  0  0  0
  8  9  1  1  0  0  0
  8 17  1  0  0  0  0
 11 12  1  6  0  0  0
 11 20  1  0  0  0  0
 13  6  1  0  0  0  0
 13 14  1  6  0  0  0
 15 16  1  6  0  0  0
 15 24  1  0  0  0  0
 17 26  1  0  0  0  0
 18 10  1  0  0  0  0
 18 19  1  1  0  0  0
 20 21  1  6  0  0  0
 20 29  1  0  0  0  0
 22 13  1  0  0  0  0
 22 23  1  1  0  0  0
 24 25  1  6  0  0  0
 24 33  1  0  0  0  0
 26 27  1  1  0  0  0
 26 35  1  0  0  0  0
 28  2  1  1  0  0  0
 28 18  1  0  0  0  0
 29 30  1  0  0  0  0
 29 39  1  1  0  0  0
 31 22  1  0  0  0  0
 31 32  1  6  0  0  0
 31 41  1  0  0  0  0
 33 34  1  1  0  0  0
 33 43  1  0  0  0  0
 35 36  1  0  0  0  0
 35 45  1  6  0  0  0
 37 28  1  0  0  0  0
 37 38  1  6  0  0  0
 39 40  1  0  0  0  0
 41 42  1  0  0  0  0
 41 49  1  6  0  0  0
 43 44  1  0  0  0  0
 43 51  1  6  0  0  0
 45 46  1  0  0  0  0
 47 37  1  0  0  0  0
 47 48  1  6  0  0  0
 49 50  1  0  0  0  0
 51 52  1  0  0  0  0
M  END
>  <CHROM.1>
-170.46362146,-176.05850666,-163.68659328,65.05377790,-70.58670297,-175.47307876
-63.16128627,56.03685505,-68.90654569,147.50137795,-163.38204032,-61.87406158
2.35329574,-49.96266612,11.03516612,0.72187115,0.46446654,1.94417180

>  <Name>
2fd0_lig

>  <RI>
1.29864e+07

>  <Rbt.Current_Directory>
/home/itssahil/PROJECTS/Mol_Feturizer/New_Systems/rnas/2fd0

>  <Rbt.Executable>
rbdock ($Id: //depot/dev/client3/rdock/2013.1/src/exe/rbdock.cxx#4 $)

>  <Rbt.Library>
libRbt.so (2013.1, Build901 2013/11/27)

>  <Rbt.Parameter_File>
/export/apps/rDock/src/rDock_2013.1_src/data/scripts/dock_solv.prm

>  <Rbt.Receptor>
prm/pocket_docking_3.prm

>  <SCORE>
-24.3182

>  <SCORE.INTER>
-20.4853

>  <SCORE.INTER.CONST>
1

>  <SCORE.INTER.POLAR>
-2.00031

>  <SCORE.INTER.ROT>
12

>  <SCORE.INTER.SOLV>
21.8781

>  <SCORE.INTER.VDW>
-25.8819

>  <SCORE.INTER.norm>
-0.393948

>  <SCORE.INTRA>
-3.86142

>  <SCORE.INTRA.DIHEDRAL>
-14.7324

>  <SCORE.INTRA.DIHEDRAL.0>
23.9727

>  <SCORE.INTRA.POLAR>
0

>  <SCORE.INTRA.POLAR.0>
0

>  <SCORE.INTRA.REPUL>
0.00529553

>  <SCORE.INTRA.REPUL.0>
0

>  <SCORE.INTRA.SOLV>
1.73652

>  <SCORE.INTRA.SOLV.lig_0>
-115.028

>  <SCORE.INTRA.VDW>
2.61002

>  <SCORE.INTRA.VDW.0>
-6.82393

>  <SCORE.INTRA.norm>
-0.0742581

>  <SCORE.RESTR>
0.0285195

>  <SCORE.RESTR.CAVITY>
0.0285195

>  <SCORE.RESTR.norm>
0.000548453

>  <SCORE.SYSTEM>
0

>  <SCORE.SYSTEM.CONST>
0

>  <SCORE.SYSTEM.DIHEDRAL>
0

>  <SCORE.SYSTEM.SOLV>
0

>  <SCORE.SYSTEM.norm>
0

>  <SCORE.heavy>
52

>  <SCORE.norm>
-0.467658

>  <RMSD>
2.605

$$$$
2fd0_lig
 OpenBabel11021811433D
libRbt.so/2013.1/901 2013/11/27
 52 56  0  0  0  0  0  0  0  0999 V2000
    5.9525  -48.5499   17.0643 C   0  0  2  0  0  0  0  0  0  0  0  0
    6.4382  -48.8886   15.7580 O   0  0  0  0  0  0  0  0  0  0  0  0
    7.4143  -45.0410   13.9871 C   0  0  2  0  0  0  0  0  0  0  0  0
    8.0114  -44.0147   13.1169 N   0  0  0  0  0  0  0  0  0  0  0  0
    4.1259  -47.7875   12.4278 C   0  0  1  0  0  0  0  0  0  0  0  0
    2.5889  -49.0754    8.6944 C   0  0  1  0  0  0  0  0  0  0  0  0
   -0.5980  -50.8729    5.0119 C   0  0  1  0  0  0  0  0  0  0  0  0
    5.3157  -49.8343   17.7095 C   0  0  2  0  0  0  0  0  0  0  0  0
    6.2637  -50.9381   17.7695 N   0  0  0  0  0  0  0  0  0  0  0  0
    8.5541  -45.8587   14.7389 C   0  0  0  0  0  0  0  0  0  0  0  0
    4.1214  -48.7982   11.2955 C   0  0  2  0  0  0  0  0  0  0  0  0
    4.8629  -48.3289   10.1344 O   0  0  0  0  0  0  0  0  0  0  0  0
    2.1702  -48.0853    7.5096 C   0  0  2  0  0  0  0  0  0  0  0  0
    0.7252  -47.7412    7.6032 N   0  0  0  0  0  0  0  0  0  0  0  0
   -1.7975  -50.0580    5.5456 C   0  0  1  0  0  0  0  0  0  0  0  0
   -1.8411  -48.7802    4.8635 O   0  0  0  0  0  0  0  0  0  0  0  0
    4.0072  -50.2439   16.9372 C   0  0  0  0  0  0  0  0  0  0  0  0
    7.9013  -46.9681   15.6942 C   0  0  2  0  0  0  0  0  0  0  0  0
    8.9345  -47.7406   16.3995 N   0  0  0  0  0  0  0  0  0  0  0  0
    2.6404  -49.0609   11.0803 C   0  0  2  0  0  0  0  0  0  0  0  0
    2.1834  -48.4770    9.8908 O   0  0  0  0  0  0  0  0  0  0  0  0
    2.6339  -48.7714    6.1220 C   0  0  1  0  0  0  0  0  0  0  0  0
    4.0489  -49.0212    6.2013 O   0  0  0  0  0  0  0  0  0  0  0  0
   -3.2046  -50.7068    5.4446 C   0  0  1  0  0  0  0  0  0  0  0  0
   -3.8033  -50.2736    4.2165 O   0  0  0  0  0  0  0  0  0  0  0  0
    3.0361  -49.0185   16.9208 C   0  0  2  0  0  0  0  0  0  0  0  0
    1.8286  -49.3549   16.2448 O   0  0  0  0  0  0  0  0  0  0  0  0
    7.0138  -47.9167   14.8408 C   0  0  2  0  0  0  0  0  0  0  0  0
    1.8444  -48.3630   12.2089 C   0  0  2  0  0  0  0  0  0  0  0  0
    2.8735  -47.9134   13.0785 O   0  0  0  0  0  0  0  0  0  0  0  0
    1.9261  -50.2071    5.8940 C   0  0  2  0  0  0  0  0  0  0  0  0
    0.5207  -49.9065    5.8040 O   0  0  0  0  0  0  0  0  0  0  0  0
   -3.2468  -52.2513    5.5012 C   0  0  2  0  0  0  0  0  0  0  0  0
   -4.3842  -52.5820    6.3278 O   0  0  0  0  0  0  0  0  0  0  0  0
    3.7265  -47.8207   16.2079 C   0  0  2  0  0  0  0  0  0  0  0  0
    4.9646  -47.4934   16.9492 O   0  0  0  0  0  0  0  0  0  0  0  0
    5.9154  -47.1556   14.0376 C   0  0  2  0  0  0  0  0  0  0  0  0
    5.1908  -48.1348   13.2551 O   0  0  0  0  0  0  0  0  0  0  0  0
    0.9116  -49.2729   13.0004 C   0  0  0  0  0  0  0  0  0  0  0  0
    1.7169  -50.3286   13.5463 O   0  0  0  0  0  0  0  0  0  0  0  0
    2.1715  -50.9914    7.1692 C   0  0  1  0  0  0  0  0  0  0  0  0
    1.9744  -50.4739    8.5016 O   0  0  0  0  0  0  0  0  0  0  0  0
   -1.9284  -52.8170    6.0221 C   0  0  2  0  0  0  0  0  0  0  0  0
   -0.7419  -52.3210    5.3426 O   0  0  0  0  0  0  0  0  0  0  0  0
    2.8603  -46.6015   16.1903 C   0  0  0  0  0  0  0  0  0  0  0  0
    1.7365  -46.8791   15.3992 O   0  0  0  0  0  0  0  0  0  0  0  0
    6.5764  -46.0637   13.1192 C   0  0  1  0  0  0  0  0  0  0  0  0
    5.5102  -45.3342   12.4189 O   0  0  0  0  0  0  0  0  0  0  0  0
    1.5115  -52.4157    7.1567 C   0  0  0  0  0  0  0  0  0  0  0  0
    1.7132  -53.1757    8.4140 N   0  0  0  0  0  0  0  0  0  0  0  0
   -1.6947  -54.3189    6.1689 C   0  0  0  0  0  0  0  0  0  0  0  0
   -1.3917  -54.9156    4.8702 O   0  0  0  0  0  0  0  0  0  0  0  0
  1  2  1  6  0  0  0
  1  8  1  0  0  0  0
  1 36  1  0  0  0  0
  3  4  1  6  0  0  0
  3 10  1  0  0  0  0
  3 47  1  0  0  0  0
  5 11  1  0  0  0  0
  5 30  1  0  0  0  0
  5 38  1  1  0  0  0
  6 21  1  1  0  0  0
  6 42  1  0  0  0  0
  7 15  1  0  0  0  0
  7 44  1  0  0  0  0
  7 32  1  1  0  0  0
  8  9  1  6  0  0  0
  8 17  1  0  0  0  0
 11 12  1  6  0  0  0
 11 20  1  0  0  0  0
 13  6  1  0  0  0  0
 13 14  1  6  0  0  0
 15 16  1  6  0  0  0
 15 24  1  0  0  0  0
 17 26  1  0  0  0  0
 18 10  1  0  0  0  0
 18 19  1  6  0  0  0
 20 21  1  6  0  0  0
 20 29  1  0  0  0  0
 22 13  1  0  0  0  0
 22 23  1  1  0  0  0
 24 25  1  6  0  0  0
 24 33  1  0  0  0  0
 26 27  1  6  0  0  0
 26 35  1  0  0  0  0
 28  2  1  1  0  0  0
 28 18  1  0  0  0  0
 29 30  1  0  0  0  0
 29 39  1  1  0  0  0
 31 22  1  0  0  0  0
 31 32  1  1  0  0  0
 31 41  1  0  0  0  0
 33 34  1  1  0  0  0
 33 43  1  0  0  0  0
 35 36  1  0  0  0  0
 35 45  1  1  0  0  0
 37 28  1  0  0  0  0
 37 38  1  6  0  0  0
 39 40  1  0  0  0  0
 41 42  1  0  0  0  0
 41 49  1  6  0  0  0
 43 44  1  0  0  0  0
 43 51  1  6  0  0  0
 45 46  1  0  0  0  0
 47 37  1  0  0  0  0
 47 48  1  1  0  0  0
 49 50  1  0  0  0  0
 51 52  1  0  0  0  0
M  END
>  <CHROM.1>
175.97498041,150.43715145,-169.82043293,171.25647729,72.20858633,40.39330706
57.33888573,155.52562116,-65.45824973,179.34233669,-178.36567641,78.60707519
2.63733280,-49.20888185,10.92261182,0.78433137,0.67756775,1.76341940

>  <Name>
2fd0_lig

>  <RI>
0

>  <Rbt.Current_Directory>
/home/itssahil/PROJECTS/Mol_Feturizer/New_Systems/rnas/2fd0

>  <Rbt.Executable>
rbdock ($Id: //depot/dev/client3/rdock/2013.1/src/exe/rbdock.cxx#4 $)

>  <Rbt.Library>
libRbt.so (2013.1, Build901 2013/11/27)

>  <Rbt.Parameter_File>
/export/apps/rDock/src/rDock_2013.1_src/data/scripts/dock_solv.prm

>  <Rbt.Receptor>
prm/pocket_docking_5.prm

>  <SCORE>
-19.5599

>  <SCORE.INTER>
-13.2435

>  <SCORE.INTER.CONST>
1

>  <SCORE.INTER.POLAR>
-0.359707

>  <SCORE.INTER.ROT>
12

>  <SCORE.INTER.SOLV>
15.5338

>  <SCORE.INTER.VDW>
-24.4079

>  <SCORE.INTER.norm>
-0.254682

>  <SCORE.INTRA>
-6.31644

>  <SCORE.INTRA.DIHEDRAL>
-11.7839

>  <SCORE.INTRA.DIHEDRAL.0>
23.9727

>  <SCORE.INTRA.POLAR>
0

>  <SCORE.INTRA.POLAR.0>
0

>  <SCORE.INTRA.REPUL>
0

>  <SCORE.INTRA.REPUL.0>
0

>  <SCORE.INTRA.SOLV>
-0.864285

>  <SCORE.INTRA.SOLV.lig_0>
-115.028

>  <SCORE.INTRA.VDW>
0.0076739

>  <SCORE.INTRA.VDW.0>
-6.82393

>  <SCORE.INTRA.norm>
-0.12147

>  <SCORE.RESTR>
0

>  <SCORE.RESTR.CAVITY>
0

>  <SCORE.RESTR.norm>
0

>  <SCORE.SYSTEM>
0

>  <SCORE.SYSTEM.CONST>
0

>  <SCORE.SYSTEM.DIHEDRAL>
0

>  <SCORE.SYSTEM.SOLV>
0

>  <SCORE.SYSTEM.norm>
0

>  <SCORE.heavy>
52

>  <SCORE.norm>
-0.376152

>  <RMSD>
2.610

$$$$
2fd0_lig
 OpenBabel11021811433D
libRbt.so/2013.1/901 2013/11/27
 52 56  0  0  0  0  0  0  0  0999 V2000
    4.6859  -50.1433   14.9901 C   0  0  2  0  0  0  0  0  0  0  0  0
    5.2786  -48.8380   14.9460 O   0  0  0  0  0  0  0  0  0  0  0  0
    6.6099  -46.1789   11.7759 C   0  0  2  0  0  0  0  0  0  0  0  0
    7.3872  -45.6138   10.6608 N   0  0  0  0  0  0  0  0  0  0  0  0
    3.4118  -49.6941   11.6060 C   0  0  1  0  0  0  0  0  0  0  0  0
    0.9843  -50.6044    9.5660 C   0  0  1  0  0  0  0  0  0  0  0  0
   -2.7476  -50.0479    6.1389 C   0  0  1  0  0  0  0  0  0  0  0  0
    3.6391  -50.1777   16.1626 C   0  0  2  0  0  0  0  0  0  0  0  0
    2.6250  -49.1431   16.0149 N   0  0  0  0  0  0  0  0  0  0  0  0
    7.5451  -46.4002   13.0446 C   0  0  0  0  0  0  0  0  0  0  0  0
    3.3354  -51.1641   11.2364 C   0  0  2  0  0  0  0  0  0  0  0  0
    3.7546  -51.4105    9.8647 O   0  0  0  0  0  0  0  0  0  0  0  0
   -0.5696  -50.2235    9.5610 C   0  0  2  0  0  0  0  0  0  0  0  0
   -1.3971  -51.4130    9.2208 N   0  0  0  0  0  0  0  0  0  0  0  0
   -3.0105  -51.5524    5.9046 C   0  0  1  0  0  0  0  0  0  0  0  0
   -3.1135  -52.2190    7.1872 O   0  0  0  0  0  0  0  0  0  0  0  0
    4.3696  -50.0702   17.5523 C   0  0  0  0  0  0  0  0  0  0  0  0
    6.6943  -47.0052   14.2609 C   0  0  2  0  0  0  0  0  0  0  0  0
    7.5366  -47.2219   15.4464 N   0  0  0  0  0  0  0  0  0  0  0  0
    1.8974  -51.5241   11.5699 C   0  0  2  0  0  0  0  0  0  0  0  0
    1.1326  -51.7088   10.4098 O   0  0  0  0  0  0  0  0  0  0  0  0
   -0.7498  -48.9481    8.5854 C   0  0  1  0  0  0  0  0  0  0  0  0
    0.1072  -47.8967    9.0662 O   0  0  0  0  0  0  0  0  0  0  0  0
   -4.2547  -51.9381    5.0596 C   0  0  1  0  0  0  0  0  0  0  0  0
   -5.3471  -52.1637    5.9597 O   0  0  0  0  0  0  0  0  0  0  0  0
    5.4330  -51.2128   17.6441 C   0  0  2  0  0  0  0  0  0  0  0  0
    6.1055  -51.1614   18.8984 O   0  0  0  0  0  0  0  0  0  0  0  0
    6.0468  -48.3452   13.8129 C   0  0  2  0  0  0  0  0  0  0  0  0
    1.2443  -50.3276   12.3023 C   0  0  2  0  0  0  0  0  0  0  0  0
    2.3456  -49.4546   12.5081 O   0  0  0  0  0  0  0  0  0  0  0  0
   -0.2744  -49.2735    7.0746 C   0  0  2  0  0  0  0  0  0  0  0  0
   -1.1667  -50.3133    6.6314 O   0  0  0  0  0  0  0  0  0  0  0  0
   -4.6950  -50.9119    3.9902 C   0  0  2  0  0  0  0  0  0  0  0  0
   -5.0558  -51.6887    2.8270 O   0  0  0  0  0  0  0  0  0  0  0  0
    6.4595  -51.0586   16.4856 C   0  0  2  0  0  0  0  0  0  0  0  0
    5.7241  -51.1341   15.2038 O   0  0  0  0  0  0  0  0  0  0  0  0
    5.1646  -48.1924   12.5364 C   0  0  2  0  0  0  0  0  0  0  0  0
    4.6587  -49.5057   12.1967 O   0  0  0  0  0  0  0  0  0  0  0  0
    0.6328  -50.6558   13.6598 C   0  0  0  0  0  0  0  0  0  0  0  0
   -0.3730  -51.6560   13.4375 O   0  0  0  0  0  0  0  0  0  0  0  0
    1.1208  -49.8556    7.2012 C   0  0  1  0  0  0  0  0  0  0  0  0
    1.4994  -50.8822    8.1419 O   0  0  0  0  0  0  0  0  0  0  0  0
   -3.5926  -49.8903    3.7241 C   0  0  2  0  0  0  0  0  0  0  0  0
   -3.0539  -49.2515    4.9145 O   0  0  0  0  0  0  0  0  0  0  0  0
    7.4867  -52.1458   16.4959 C   0  0  0  0  0  0  0  0  0  0  0  0
    8.5185  -51.7761   15.6216 O   0  0  0  0  0  0  0  0  0  0  0  0
    6.0149  -47.5845   11.3616 C   0  0  1  0  0  0  0  0  0  0  0  0
    5.1397  -47.4070   10.1945 O   0  0  0  0  0  0  0  0  0  0  0  0
    1.7409  -50.2820    5.8235 C   0  0  0  0  0  0  0  0  0  0  0  0
    0.9567  -51.3224    5.1148 N   0  0  0  0  0  0  0  0  0  0  0  0
   -3.7676  -48.7554    2.7175 C   0  0  0  0  0  0  0  0  0  0  0  0
   -4.8648  -47.8804    3.1239 O   0  0  0  0  0  0  0  0  0  0  0  0
  1  2  1  1  0  0  0
  1  8  1  0  0  0  0
  1 36  1  0  0  0  0
  3  4  1  6  0  0  0
  3 10  1  0  0  0  0
  3 47  1  0  0  0  0
  5 11  1  0  0  0  0
  5 30  1  0  0  0  0
  5 38  1  1  0  0  0
  6 21  1  1  0  0  0
  6 42  1  0  0  0  0
  7 15  1  0  0  0  0
  7 44  1  0  0  0  0
  7 32  1  6  0  0  0
  8  9  1  6  0  0  0
  8 17  1  0  0  0  0
 11 12  1  6  0  0  0
 11 20  1  0  0  0  0
 13  6  1  0  0  0  0
 13 14  1  6  0  0  0
 15 16  1  1  0  0  0
 15 24  1  0  0  0  0
 17 26  1  0  0  0  0
 18 10  1  0  0  0  0
 18 19  1  1  0  0  0
 20 21  1  6  0  0  0
 20 29  1  0  0  0  0
 22 13  1  0  0  0  0
 22 23  1  1  0  0  0
 24 25  1  1  0  0  0
 24 33  1  0  0  0  0
 26 27  1  1  0  0  0
 26 35  1  0  0  0  0
 28  2  1  1  0  0  0
 28 18  1  0  0  0  0
 29 30  1  0  0  0  0
 29 39  1  1  0  0  0
 31 22  1  0  0  0  0
 31 32  1  1  0  0  0
 31 41  1  0  0  0  0
 33 34  1  6  0  0  0
 33 43  1  0  0  0  0
 35 36  1  0  0  0  0
 35 45  1  6  0  0  0
 37 28  1  0  0  0  0
 37 38  1  6  0  0  0
 39 40  1  0  0  0  0
 41 42  1  0  0  0  0
 41 49  1  6  0  0  0
 43 44  1  0  0  0  0
 43 51  1  6  0  0  0
 45 46  1  0  0  0  0
 47 37  1  0  0  0  0
 47 48  1  6  0  0  0
 49 50  1  0  0  0  0
 51 52  1  0  0  0  0
M  END
>  <CHROM.1>
-165.04070606,172.30371387,-115.60701796,-177.80788434,-62.33106013,-170.96534188
-59.41055659,77.39070790,-167.38982743,147.52539112,-60.46138107,61.92792882
1.87517416,-49.93235850,10.54250565,0.66303377,0.56027309,2.07941171

>  <Name>
2fd0_lig

>  <RI>
2.00683e+07

>  <Rbt.Current_Directory>
/home/itssahil/PROJECTS/Mol_Feturizer/New_Systems/rnas/2fd0

>  <Rbt.Executable>
rbdock ($Id: //depot/dev/client3/rdock/2013.1/src/exe/rbdock.cxx#4 $)

>  <Rbt.Library>
libRbt.so (2013.1, Build901 2013/11/27)

>  <Rbt.Parameter_File>
/export/apps/rDock/src/rDock_2013.1_src/data/scripts/dock_solv.prm

>  <Rbt.Receptor>
prm/pocket_docking_4.prm

>  <SCORE>
-18.6283

>  <SCORE.INTER>
-16.1721

>  <SCORE.INTER.CONST>
1

>  <SCORE.INTER.POLAR>
-1.14157

>  <SCORE.INTER.ROT>
12

>  <SCORE.INTER.SOLV>
19.3598

>  <SCORE.INTER.VDW>
-25.0294

>  <SCORE.INTER.norm>
-0.311001

>  <SCORE.INTRA>
-2.45624

>  <SCORE.INTRA.DIHEDRAL>
-7.4518

>  <SCORE.INTRA.DIHEDRAL.0>
23.9727

>  <SCORE.INTRA.POLAR>
0

>  <SCORE.INTRA.POLAR.0>
0

>  <SCORE.INTRA.REPUL>
0

>  <SCORE.INTRA.REPUL.0>
0

>  <SCORE.INTRA.SOLV>
0.533237

>  <SCORE.INTRA.SOLV.lig_0>
-115.028

>  <SCORE.INTRA.VDW>
1.00304

>  <SCORE.INTRA.VDW.0>
-6.82393

>  <SCORE.INTRA.norm>
-0.0472355

>  <SCORE.RESTR>
0

>  <SCORE.RESTR.CAVITY>
0

>  <SCORE.RESTR.norm>
0

>  <SCORE.SYSTEM>
0

>  <SCORE.SYSTEM.CONST>
0

>  <SCORE.SYSTEM.DIHEDRAL>
0

>  <SCORE.SYSTEM.SOLV>
0

>  <SCORE.SYSTEM.norm>
0

>  <SCORE.heavy>
52

>  <SCORE.norm>
-0.358237

>  <RMSD>
2.627

$$$$
2fd0_lig
 OpenBabel11021811433D
libRbt.so/2013.1/901 2013/11/27
 52 56  0  0  0  0  0  0  0  0999 V2000
    4.6962  -49.3702   14.8480 C   0  0  2  0  0  0  0  0  0  0  0  0
    5.4246  -48.1525   15.0568 O   0  0  0  0  0  0  0  0  0  0  0  0
    7.6073  -45.3392   12.5640 C   0  0  2  0  0  0  0  0  0  0  0  0
    8.6191  -44.7648   11.6622 N   0  0  0  0  0  0  0  0  0  0  0  0
    4.1029  -48.1531   11.2402 C   0  0  1  0  0  0  0  0  0  0  0  0
    0.2838  -49.6342    9.3102 C   0  0  1  0  0  0  0  0  0  0  0  0
   -2.1242  -47.6745    5.4388 C   0  0  1  0  0  0  0  0  0  0  0  0
    3.5633  -49.4676   15.9336 C   0  0  2  0  0  0  0  0  0  0  0  0
    2.6783  -48.3116   15.8993 N   0  0  0  0  0  0  0  0  0  0  0  0
    8.2989  -45.9049   13.8811 C   0  0  0  0  0  0  0  0  0  0  0  0
    3.5919  -49.5540   10.9573 C   0  0  2  0  0  0  0  0  0  0  0  0
    4.2449  -50.1570    9.8049 O   0  0  0  0  0  0  0  0  0  0  0  0
    0.0705  -49.8738    7.7429 C   0  0  2  0  0  0  0  0  0  0  0  0
    0.7143  -48.7865    6.9564 N   0  0  0  0  0  0  0  0  0  0  0  0
   -3.6490  -47.4665    5.5783 C   0  0  1  0  0  0  0  0  0  0  0  0
   -3.9014  -46.1132    6.0309 O   0  0  0  0  0  0  0  0  0  0  0  0
    4.1902  -49.6673   17.3631 C   0  0  0  0  0  0  0  0  0  0  0  0
    7.1940  -46.5198   14.8663 C   0  0  2  0  0  0  0  0  0  0  0  0
    7.8080  -47.0526   16.0915 N   0  0  0  0  0  0  0  0  0  0  0  0
    2.0903  -49.3516   10.8437 C   0  0  2  0  0  0  0  0  0  0  0  0
    1.6562  -49.4668    9.5159 O   0  0  0  0  0  0  0  0  0  0  0  0
   -1.5148  -50.0662    7.4963 C   0  0  1  0  0  0  0  0  0  0  0  0
   -1.9630  -51.1579    8.3199 O   0  0  0  0  0  0  0  0  0  0  0  0
   -4.5242  -47.7259    4.3222 C   0  0  1  0  0  0  0  0  0  0  0  0
   -4.6897  -46.4794    3.6344 O   0  0  0  0  0  0  0  0  0  0  0  0
    5.1171  -50.9260   17.3276 C   0  0  2  0  0  0  0  0  0  0  0  0
    5.6912  -51.1525   18.6110 O   0  0  0  0  0  0  0  0  0  0  0  0
    6.4190  -47.6442   14.1241 C   0  0  2  0  0  0  0  0  0  0  0  0
    1.7535  -47.8992   11.2580 C   0  0  2  0  0  0  0  0  0  0  0  0
    2.9993  -47.4214   11.7448 O   0  0  0  0  0  0  0  0  0  0  0  0
   -2.3582  -48.7663    7.9578 C   0  0  2  0  0  0  0  0  0  0  0  0
   -1.8907  -47.7090    7.0992 O   0  0  0  0  0  0  0  0  0  0  0  0
   -3.9865  -48.7773    3.3243 C   0  0  2  0  0  0  0  0  0  0  0  0
   -5.1368  -49.5442    2.9057 O   0  0  0  0  0  0  0  0  0  0  0  0
    6.2415  -50.7111   16.2744 C   0  0  2  0  0  0  0  0  0  0  0  0
    5.6046  -50.4965   14.9561 O   0  0  0  0  0  0  0  0  0  0  0  0
    5.7697  -47.1534   12.7943 C   0  0  2  0  0  0  0  0  0  0  0  0
    5.1210  -48.2926   12.1798 O   0  0  0  0  0  0  0  0  0  0  0  0
    0.7212  -47.7673   12.3722 C   0  0  0  0  0  0  0  0  0  0  0  0
    0.4453  -46.3669   12.5266 O   0  0  0  0  0  0  0  0  0  0  0  0
   -1.9100  -48.4702    9.3765 C   0  0  1  0  0  0  0  0  0  0  0  0
   -0.5345  -48.4300    9.8110 O   0  0  0  0  0  0  0  0  0  0  0  0
   -2.8867  -49.6238    3.9594 C   0  0  2  0  0  0  0  0  0  0  0  0
   -1.8191  -48.8627    4.5891 O   0  0  0  0  0  0  0  0  0  0  0  0
    7.1446  -51.8984   16.1656 C   0  0  0  0  0  0  0  0  0  0  0  0
    6.9274  -52.4956   14.9158 O   0  0  0  0  0  0  0  0  0  0  0  0
    6.8683  -46.5415   11.8502 C   0  0  1  0  0  0  0  0  0  0  0  0
    6.2135  -46.0439   10.6324 O   0  0  0  0  0  0  0  0  0  0  0  0
   -2.5940  -47.1968    9.9889 C   0  0  0  0  0  0  0  0  0  0  0  0
   -2.3235  -45.9527    9.2285 N   0  0  0  0  0  0  0  0  0  0  0  0
   -2.1733  -50.7329    3.1894 C   0  0  0  0  0  0  0  0  0  0  0  0
   -3.1091  -51.4173    2.3003 O   0  0  0  0  0  0  0  0  0  0  0  0
  1  2  1  1  0  0  0
  1  8  1  0  0  0  0
  1 36  1  0  0  0  0
  3  4  1  6  0  0  0
  3 10  1  0  0  0  0
  3 47  1  0  0  0  0
  5 11  1  0  0  0  0
  5 30  1  0  0  0  0
  5 38  1  1  0  0  0
  6 21  1  6  0  0  0
  6 42  1  0  0  0  0
  7 15  1  0  0  0  0
  7 44  1  0  0  0  0
  7 32  1  1  0  0  0
  8  9  1  1  0  0  0
  8 17  1  0  0  0  0
 11 12  1  6  0  0  0
 11 20  1  0  0  0  0
 13  6  1  0  0  0  0
 13 14  1  6  0  0  0
 15 16  1  6  0  0  0
 15 24  1  0  0  0  0
 17 26  1  0  0  0  0
 18 10  1  0  0  0  0
 18 19  1  1  0  0  0
 20 21  1  6  0  0  0
 20 29  1  0  0  0  0
 22 13  1  0  0  0  0
 22 23  1  1  0  0  0
 24 25  1  6  0  0  0
 24 33  1  0  0  0  0
 26 27  1  1  0  0  0
 26 35  1  0  0  0  0
 28  2  1  1  0  0  0
 28 18  1  0  0  0  0
 29 30  1  0  0  0  0
 29 39  1  1  0  0  0
 31 22  1  0  0  0  0
 31 32  1  6  0  0  0
 31 41  1  0  0  0  0
 33 34  1  1  0  0  0
 33 43  1  0  0  0  0
 35 36  1  0  0  0  0
 35 45  1  6  0  0  0
 37 28  1  0  0  0  0
 37 38  1  6  0  0  0
 39 40  1  0  0  0  0
 41 42  1  0  0  0  0
 41 49  1  6  0  0  0
 43 44  1  0  0  0  0
 43 51  1  6  0  0  0
 45 46  1  0  0  0  0
 47 37  1  0  0  0  0
 47 48  1  6  0  0  0
 49 50  1  0  0  0  0
 51 52  1  0  0  0  0
M  END
>  <CHROM.1>
-170.96156659,-173.99649072,-174.86373223,68.44888593,164.53011119,-166.87338411
-174.51925960,65.39835919,111.03890495,158.69962132,-60.06993904,-36.51434603
1.82902348,-48.56391216,10.47998177,0.57554114,0.62273080,2.31057791

>  <Name>
2fd0_lig

>  <RI>
0

>  <Rbt.Current_Directory>
/home/itssahil/PROJECTS/Mol_Feturizer/New_Systems/rnas/2fd0

>  <Rbt.Executable>
rbdock ($Id: //depot/dev/client3/rdock/2013.1/src/exe/rbdock.cxx#4 $)

>  <Rbt.Library>
libRbt.so (2013.1, Build901 2013/11/27)

>  <Rbt.Parameter_File>
/export/apps/rDock/src/rDock_2013.1_src/data/scripts/dock_solv.prm

>  <Rbt.Receptor>
prm/pocket_docking_5.prm

>  <SCORE>
-21.0116

>  <SCORE.INTER>
-16.4985

>  <SCORE.INTER.CONST>
1

>  <SCORE.INTER.POLAR>
-2.08944

>  <SCORE.INTER.ROT>
12

>  <SCORE.INTER.SOLV>
16.7392

>  <SCORE.INTER.VDW>
-21.2139

>  <SCORE.INTER.norm>
-0.317279

>  <SCORE.INTRA>
-4.51312

>  <SCORE.INTRA.DIHEDRAL>
-10.4697

>  <SCORE.INTRA.DIHEDRAL.0>
23.9727

>  <SCORE.INTRA.POLAR>
0

>  <SCORE.INTRA.POLAR.0>
0

>  <SCORE.INTRA.REPUL>
0

>  <SCORE.INTRA.REPUL.0>
0

>  <SCORE.INTRA.SOLV>
-1.20769

>  <SCORE.INTRA.SOLV.lig_0>
-115.028

>  <SCORE.INTRA.VDW>
1.32558

>  <SCORE.INTRA.VDW.0>
-6.82393

>  <SCORE.INTRA.norm>
-0.0867907

>  <SCORE.RESTR>
0

>  <SCORE.RESTR.CAVITY>
0

>  <SCORE.RESTR.norm>
0

>  <SCORE.SYSTEM>
0

>  <SCORE.SYSTEM.CONST>
0

>  <SCORE.SYSTEM.DIHEDRAL>
0

>  <SCORE.SYSTEM.SOLV>
0

>  <SCORE.SYSTEM.norm>
0

>  <SCORE.heavy>
52

>  <SCORE.norm>
-0.40407

>  <RMSD>
2.652

$$$$
2fd0_lig
 OpenBabel11021811433D
libRbt.so/2013.1/901 2013/11/27
 52 56  0  0  0  0  0  0  0  0999 V2000
    5.2831  -47.0050   14.5660 C   0  0  2  0  0  0  0  0  0  0  0  0
    6.0608  -45.8365   14.8605 O   0  0  0  0  0  0  0  0  0  0  0  0
    7.4666  -42.5736   12.3566 C   0  0  2  0  0  0  0  0  0  0  0  0
    8.2608  -41.7944   11.3927 N   0  0  0  0  0  0  0  0  0  0  0  0
    4.4062  -45.8134   11.0930 C   0  0  1  0  0  0  0  0  0  0  0  0
    2.8250  -48.3957    8.2767 C   0  0  1  0  0  0  0  0  0  0  0  0
    0.0656  -50.2781    4.8704 C   0  0  1  0  0  0  0  0  0  0  0  0
    4.2432  -47.2189   15.7254 C   0  0  2  0  0  0  0  0  0  0  0  0
    3.3916  -46.0524   15.9122 N   0  0  0  0  0  0  0  0  0  0  0  0
    8.3924  -43.0943   13.5418 C   0  0  0  0  0  0  0  0  0  0  0  0
    4.2484  -47.2277   10.5653 C   0  0  2  0  0  0  0  0  0  0  0  0
    5.0226  -47.4539    9.3539 O   0  0  0  0  0  0  0  0  0  0  0  0
    2.2571  -48.1370    6.8036 C   0  0  2  0  0  0  0  0  0  0  0  0
    0.7776  -47.9778    6.8354 N   0  0  0  0  0  0  0  0  0  0  0  0
   -1.3131  -50.6293    5.4733 C   0  0  1  0  0  0  0  0  0  0  0  0
   -1.6585  -49.6373    6.4715 O   0  0  0  0  0  0  0  0  0  0  0  0
    4.9821  -47.6087   17.0590 C   0  0  0  0  0  0  0  0  0  0  0  0
    7.5234  -43.9330   14.5957 C   0  0  2  0  0  0  0  0  0  0  0  0
    8.3568  -44.4285   15.7011 N   0  0  0  0  0  0  0  0  0  0  0  0
    2.7420  -47.3746   10.4321 C   0  0  2  0  0  0  0  0  0  0  0  0
    2.3425  -47.3653    9.0885 O   0  0  0  0  0  0  0  0  0  0  0  0
    2.8090  -49.3260    5.8588 C   0  0  1  0  0  0  0  0  0  0  0  0
    4.2459  -49.3259    5.9387 O   0  0  0  0  0  0  0  0  0  0  0  0
   -2.5095  -50.7633    4.4926 C   0  0  1  0  0  0  0  0  0  0  0  0
   -3.1663  -49.4914    4.4212 O   0  0  0  0  0  0  0  0  0  0  0  0
    5.8665  -48.8689   16.7866 C   0  0  2  0  0  0  0  0  0  0  0  0
    6.5399  -49.2659   17.9771 O   0  0  0  0  0  0  0  0  0  0  0  0
    6.8442  -45.1235   13.8630 C   0  0  2  0  0  0  0  0  0  0  0  0
    2.0654  -46.1363   11.0670 C   0  0  2  0  0  0  0  0  0  0  0  0
    3.1607  -45.4630   11.6707 O   0  0  0  0  0  0  0  0  0  0  0  0
    2.3206  -50.7793    6.3723 C   0  0  2  0  0  0  0  0  0  0  0  0
    0.8856  -50.7388    6.2588 O   0  0  0  0  0  0  0  0  0  0  0  0
   -2.1644  -51.2263    3.0583 C   0  0  2  0  0  0  0  0  0  0  0  0
   -3.2031  -52.1590    2.6873 O   0  0  0  0  0  0  0  0  0  0  0  0
    6.9041  -48.5424   15.6746 C   0  0  2  0  0  0  0  0  0  0  0  0
    6.1650  -48.1518   14.4537 O   0  0  0  0  0  0  0  0  0  0  0  0
    5.9696  -44.6691   12.6548 C   0  0  2  0  0  0  0  0  0  0  0  0
    5.4322  -45.8612   12.0333 O   0  0  0  0  0  0  0  0  0  0  0  0
    1.0371  -46.4450   12.1496 C   0  0  0  0  0  0  0  0  0  0  0  0
   -0.0045  -47.2168   11.5327 O   0  0  0  0  0  0  0  0  0  0  0  0
    2.6874  -50.8380    7.8432 C   0  0  1  0  0  0  0  0  0  0  0  0
    2.4237  -49.7880    8.7972 O   0  0  0  0  0  0  0  0  0  0  0  0
   -0.7599  -51.8207    2.9972 C   0  0  2  0  0  0  0  0  0  0  0  0
    0.2811  -50.9842    3.5735 O   0  0  0  0  0  0  0  0  0  0  0  0
    7.7608  -49.7222   15.3408 C   0  0  0  0  0  0  0  0  0  0  0  0
    6.9902  -50.6183   14.5866 O   0  0  0  0  0  0  0  0  0  0  0  0
    6.8380  -43.8367   11.6420 C   0  0  1  0  0  0  0  0  0  0  0  0
    5.9708  -43.3828   10.5460 O   0  0  0  0  0  0  0  0  0  0  0  0
    2.2458  -52.1745    8.5384 C   0  0  0  0  0  0  0  0  0  0  0  0
    3.1027  -53.3350    8.1946 N   0  0  0  0  0  0  0  0  0  0  0  0
   -0.1608  -52.3477    1.6952 C   0  0  0  0  0  0  0  0  0  0  0  0
    1.0753  -53.0787    1.9637 O   0  0  0  0  0  0  0  0  0  0  0  0
  1  2  1  1  0  0  0
  1  8  1  0  0  0  0
  1 36  1  0  0  0  0
  3  4  1  6  0  0  0
  3 10  1  0  0  0  0
  3 47  1  0  0  0  0
  5 11  1  0  0  0  0
  5 30  1  0  0  0  0
  5 38  1  1  0  0  0
  6 21  1  1  0  0  0
  6 42  1  0  0  0  0
  7 15  1  0  0  0  0
  7 44  1  0  0  0  0
  7 32  1  1  0  0  0
  8  9  1  1  0  0  0
  8 17  1  0  0  0  0
 11 12  1  6  0  0  0
 11 20  1  0  0  0  0
 13  6  1  0  0  0  0
 13 14  1  1  0  0  0
 15 16  1  1  0  0  0
 15 24  1  0  0  0  0
 17 26  1  0  0  0  0
 18 10  1  0  0  0  0
 18 19  1  1  0  0  0
 20 21  1  6  0  0  0
 20 29  1  0  0  0  0
 22 13  1  0  0  0  0
 22 23  1  1  0  0  0
 24 25  1  6  0  0  0
 24 33  1  0  0  0  0
 26 27  1  1  0  0  0
 26 35  1  0  0  0  0
 28  2  1  1  0  0  0
 28 18  1  0  0  0  0
 29 30  1  0  0  0  0
 29 39  1  1  0  0  0
 31 22  1  0  0  0  0
 31 32  1  1  0  0  0
 31 41  1  0  0  0  0
 33 34  1  1  0  0  0
 33 43  1  0  0  0  0
 35 36  1  0  0  0  0
 35 45  1  6  0  0  0
 37 28  1  0  0  0  0
 37 38  1  6  0  0  0
 39 40  1  0  0  0  0
 41 42  1  0  0  0  0
 41 49  1  1  0  0  0
 43 44  1  0  0  0  0
 43 51  1  6  0  0  0
 45 46  1  0  0  0  0
 47 37  1  0  0  0  0
 47 48  1  6  0  0  0
 49 50  1  0  0  0  0
 51 52  1  0  0  0  0
M  END
>  <CHROM.1>
-162.13018420,173.28161375,-178.69510795,174.53377549,62.26837604,-179.98471810
-61.46084369,51.18660940,74.69650785,167.16489759,75.34879869,-169.43867379
3.30270094,-48.13689809,9.96037207,0.15763525,1.01898817,2.49599296

>  <Name>
2fd0_lig

>  <RI>
0

>  <Rbt.Current_Directory>
/home/itssahil/PROJECTS/Mol_Feturizer/New_Systems/rnas/2fd0

>  <Rbt.Executable>
rbdock ($Id: //depot/dev/client3/rdock/2013.1/src/exe/rbdock.cxx#4 $)

>  <Rbt.Library>
libRbt.so (2013.1, Build901 2013/11/27)

>  <Rbt.Parameter_File>
/export/apps/rDock/src/rDock_2013.1_src/data/scripts/dock_solv.prm

>  <Rbt.Receptor>
prm/pocket_docking_5.prm

>  <SCORE>
-22.3701

>  <SCORE.INTER>
-14.2744

>  <SCORE.INTER.CONST>
1

>  <SCORE.INTER.POLAR>
-2.08571

>  <SCORE.INTER.ROT>
12

>  <SCORE.INTER.SOLV>
16.1415

>  <SCORE.INTER.VDW>
-19.5444

>  <SCORE.INTER.norm>
-0.274508

>  <SCORE.INTRA>
-8.09567

>  <SCORE.INTRA.DIHEDRAL>
-17.6608

>  <SCORE.INTRA.DIHEDRAL.0>
23.9727

>  <SCORE.INTRA.POLAR>
0

>  <SCORE.INTRA.POLAR.0>
0

>  <SCORE.INTRA.REPUL>
0

>  <SCORE.INTRA.REPUL.0>
0

>  <SCORE.INTRA.SOLV>
-3.53708

>  <SCORE.INTRA.SOLV.lig_0>
-115.028

>  <SCORE.INTRA.VDW>
2.50325

>  <SCORE.INTRA.VDW.0>
-6.82393

>  <SCORE.INTRA.norm>
-0.155686

>  <SCORE.RESTR>
0

>  <SCORE.RESTR.CAVITY>
0

>  <SCORE.RESTR.norm>
0

>  <SCORE.SYSTEM>
0

>  <SCORE.SYSTEM.CONST>
0

>  <SCORE.SYSTEM.DIHEDRAL>
0

>  <SCORE.SYSTEM.SOLV>
0

>  <SCORE.SYSTEM.norm>
0

>  <SCORE.heavy>
52

>  <SCORE.norm>
-0.430194

>  <RMSD>
2.712

$$$$
2fd0_lig
 OpenBabel11021811433D
libRbt.so/2013.1/901 2013/11/27
 52 56  0  0  0  0  0  0  0  0999 V2000
    4.2225  -49.1628   13.7848 C   0  0  2  0  0  0  0  0  0  0  0  0
    4.9372  -47.9316   13.9585 O   0  0  0  0  0  0  0  0  0  0  0  0
    5.0735  -44.2287   11.6864 C   0  0  2  0  0  0  0  0  0  0  0  0
    5.3790  -43.2458   10.6340 N   0  0  0  0  0  0  0  0  0  0  0  0
    3.6598  -48.2800   10.4757 C   0  0  1  0  0  0  0  0  0  0  0  0
    2.3516  -51.4918    7.5709 C   0  0  1  0  0  0  0  0  0  0  0  0
   -2.6030  -50.8918    5.9942 C   0  0  1  0  0  0  0  0  0  0  0  0
    2.8395  -49.0466   14.5233 C   0  0  2  0  0  0  0  0  0  0  0  0
    2.0615  -47.9133   14.0427 N   0  0  0  0  0  0  0  0  0  0  0  0
    6.4191  -44.8019   12.3139 C   0  0  0  0  0  0  0  0  0  0  0  0
    2.6940  -49.4267   10.2397 C   0  0  2  0  0  0  0  0  0  0  0  0
    3.1702  -50.6760   10.8147 O   0  0  0  0  0  0  0  0  0  0  0  0
    2.0523  -51.0630    6.0589 C   0  0  2  0  0  0  0  0  0  0  0  0
    1.5049  -49.6799    6.0074 N   0  0  0  0  0  0  0  0  0  0  0  0
   -2.4966  -49.3503    6.0024 C   0  0  1  0  0  0  0  0  0  0  0  0
   -2.0178  -48.9032    4.7099 O   0  0  0  0  0  0  0  0  0  0  0  0
    3.0544  -48.9752   16.0806 C   0  0  0  0  0  0  0  0  0  0  0  0
    6.0839  -45.8636   13.4671 C   0  0  2  0  0  0  0  0  0  0  0  0
    7.3118  -46.4112   14.0624 N   0  0  0  0  0  0  0  0  0  0  0  0
    2.5118  -49.4127    8.7314 C   0  0  2  0  0  0  0  0  0  0  0  0
    3.1616  -50.4971    8.1260 O   0  0  0  0  0  0  0  0  0  0  0  0
    1.1139  -52.2075    5.4104 C   0  0  1  0  0  0  0  0  0  0  0  0
    1.7991  -53.4668    5.5351 O   0  0  0  0  0  0  0  0  0  0  0  0
   -3.7801  -48.5465    6.3455 C   0  0  1  0  0  0  0  0  0  0  0  0
   -4.4414  -48.2246    5.1153 O   0  0  0  0  0  0  0  0  0  0  0  0
    3.8854  -50.2229   16.5249 C   0  0  2  0  0  0  0  0  0  0  0  0
    4.0866  -50.2052   17.9347 O   0  0  0  0  0  0  0  0  0  0  0  0
    5.2223  -47.0105   12.8688 C   0  0  2  0  0  0  0  0  0  0  0  0
    3.2043  -48.1522    8.1604 C   0  0  2  0  0  0  0  0  0  0  0  0
    3.5703  -47.4433    9.3356 O   0  0  0  0  0  0  0  0  0  0  0  0
   -0.2837  -52.3640    6.2081 C   0  0  2  0  0  0  0  0  0  0  0  0
   -0.9387  -51.0923    6.0419 O   0  0  0  0  0  0  0  0  0  0  0  0
   -4.7895  -49.2459    7.2849 C   0  0  2  0  0  0  0  0  0  0  0  0
   -5.2552  -48.2221    8.1913 O   0  0  0  0  0  0  0  0  0  0  0  0
    5.2583  -50.2175   15.7936 C   0  0  2  0  0  0  0  0  0  0  0  0
    5.0052  -50.2531   14.3361 O   0  0  0  0  0  0  0  0  0  0  0  0
    3.9175  -46.4940   12.1894 C   0  0  2  0  0  0  0  0  0  0  0  0
    3.2302  -47.6421   11.6366 O   0  0  0  0  0  0  0  0  0  0  0  0
    2.3116  -47.2504    7.3153 C   0  0  0  0  0  0  0  0  0  0  0  0
    3.0727  -46.0720    7.0097 O   0  0  0  0  0  0  0  0  0  0  0  0
    0.0945  -52.5252    7.6684 C   0  0  1  0  0  0  0  0  0  0  0  0
    1.0487  -51.6969    8.3652 O   0  0  0  0  0  0  0  0  0  0  0  0
   -4.1478  -50.4385    7.9887 C   0  0  2  0  0  0  0  0  0  0  0  0
   -3.4735  -51.3767    7.1052 O   0  0  0  0  0  0  0  0  0  0  0  0
    6.0897  -51.4088   16.1493 C   0  0  0  0  0  0  0  0  0  0  0  0
    7.0206  -51.6110   15.1206 O   0  0  0  0  0  0  0  0  0  0  0  0
    4.2688  -45.4441   11.0728 C   0  0  1  0  0  0  0  0  0  0  0  0
    3.0156  -44.9424   10.4921 O   0  0  0  0  0  0  0  0  0  0  0  0
   -1.1481  -52.6471    8.6199 C   0  0  0  0  0  0  0  0  0  0  0  0
   -0.7913  -52.9361   10.0301 N   0  0  0  0  0  0  0  0  0  0  0  0
   -4.9265  -51.3149    8.9672 C   0  0  0  0  0  0  0  0  0  0  0  0
   -5.3783  -50.5239   10.1094 O   0  0  0  0  0  0  0  0  0  0  0  0
  1  2  1  1  0  0  0
  1  8  1  0  0  0  0
  1 36  1  0  0  0  0
  3  4  1  6  0  0  0
  3 10  1  0  0  0  0
  3 47  1  0  0  0  0
  5 11  1  0  0  0  0
  5 30  1  0  0  0  0
  5 38  1  1  0  0  0
  6 21  1  1  0  0  0
  6 42  1  0  0  0  0
  7 15  1  0  0  0  0
  7 44  1  0  0  0  0
  7 32  1  1  0  0  0
  8  9  1  6  0  0  0
  8 17  1  0  0  0  0
 11 12  1  6  0  0  0
 11 20  1  0  0  0  0
 13  6  1  0  0  0  0
 13 14  1  1  0  0  0
 15 16  1  6  0  0  0
 15 24  1  0  0  0  0
 17 26  1  0  0  0  0
 18 10  1  0  0  0  0
 18 19  1  6  0  0  0
 20 21  1  6  0  0  0
 20 29  1  0  0  0  0
 22 13  1  0  0  0  0
 22 23  1  1  0  0  0
 24 25  1  6  0  0  0
 24 33  1  0  0  0  0
 26 27  1  1  0  0  0
 26 35  1  0  0  0  0
 28  2  1  1  0  0  0
 28 18  1  0  0  0  0
 29 30  1  0  0  0  0
 29 39  1  6  0  0  0
 31 22  1  0  0  0  0
 31 32  1  1  0  0  0
 31 41  1  0  0  0  0
 33 34  1  1  0  0  0
 33 43  1  0  0  0  0
 35 36  1  0  0  0  0
 35 45  1  1  0  0  0
 37 28  1  0  0  0  0
 37 38  1  6  0  0  0
 39 40  1  0  0  0  0
 41 42  1  0  0  0  0
 41 49  1  1  0  0  0
 43 44  1  0  0  0  0
 43 51  1  6  0  0  0
 45 46  1  0  0  0  0
 47 37  1  0  0  0  0
 47 48  1  1  0  0  0
 49 50  1  0  0  0  0
 51 52  1  0  0  0  0
M  END
>  <CHROM.1>
-112.45338062,179.52386725,88.74010867,172.70787770,110.55504923,-176.46261431
173.40698651,149.62545904,157.50746951,-75.05976641,174.41238781,-61.71984063
1.68994136,-49.21560921,10.06876236,0.39372023,0.71663292,2.26683658

>  <Name>
2fd0_lig

>  <RI>
0

>  <Rbt.Current_Directory>
/home/itssahil/PROJECTS/Mol_Feturizer/New_Systems/rnas/2fd0

>  <Rbt.Executable>
rbdock ($Id: //depot/dev/client3/rdock/2013.1/src/exe/rbdock.cxx#4 $)

>  <Rbt.Library>
libRbt.so (2013.1, Build901 2013/11/27)

>  <Rbt.Parameter_File>
/export/apps/rDock/src/rDock_2013.1_src/data/scripts/dock_solv.prm

>  <Rbt.Receptor>
prm/pocket_docking_5.prm

>  <SCORE>
-13.5904

>  <SCORE.INTER>
-16.3882

>  <SCORE.INTER.CONST>
1

>  <SCORE.INTER.POLAR>
-2.23545

>  <SCORE.INTER.ROT>
12

>  <SCORE.INTER.SOLV>
14.6698

>  <SCORE.INTER.VDW>
-19.9639

>  <SCORE.INTER.norm>
-0.315157

>  <SCORE.INTRA>
2.7883

>  <SCORE.INTRA.DIHEDRAL>
1.51589

>  <SCORE.INTRA.DIHEDRAL.0>
23.9727

>  <SCORE.INTRA.POLAR>
0

>  <SCORE.INTRA.POLAR.0>
0

>  <SCORE.INTRA.REPUL>
0

>  <SCORE.INTRA.REPUL.0>
0

>  <SCORE.INTRA.SOLV>
1.19289

>  <SCORE.INTRA.SOLV.lig_0>
-115.028

>  <SCORE.INTRA.VDW>
1.43391

>  <SCORE.INTRA.VDW.0>
-6.82393

>  <SCORE.INTRA.norm>
0.0536211

>  <SCORE.RESTR>
0.00943681

>  <SCORE.RESTR.CAVITY>
0.00943681

>  <SCORE.RESTR.norm>
0.000181477

>  <SCORE.SYSTEM>
0

>  <SCORE.SYSTEM.CONST>
0

>  <SCORE.SYSTEM.DIHEDRAL>
0

>  <SCORE.SYSTEM.SOLV>
0

>  <SCORE.SYSTEM.norm>
0

>  <SCORE.heavy>
52

>  <SCORE.norm>
-0.261355

>  <RMSD>
2.713

$$$$
2fd0_lig
 OpenBabel11021811433D
libRbt.so/2013.1/901 2013/11/27
 52 56  0  0  0  0  0  0  0  0999 V2000
    4.8914  -49.2597   13.9260 C   0  0  2  0  0  0  0  0  0  0  0  0
    5.1462  -47.8875   14.2564 O   0  0  0  0  0  0  0  0  0  0  0  0
    8.2147  -44.8615   13.6904 C   0  0  2  0  0  0  0  0  0  0  0  0
    9.2780  -44.0472   13.0794 N   0  0  0  0  0  0  0  0  0  0  0  0
    4.5391  -45.4741   11.3168 C   0  0  1  0  0  0  0  0  0  0  0  0
    4.0772  -48.1903    7.7307 C   0  0  1  0  0  0  0  0  0  0  0  0
   -0.4056  -50.2122    7.1019 C   0  0  1  0  0  0  0  0  0  0  0  0
    3.4298  -49.6200   14.3793 C   0  0  2  0  0  0  0  0  0  0  0  0
    2.4412  -48.7395   13.7726 N   0  0  0  0  0  0  0  0  0  0  0  0
    8.6347  -46.3965   13.7060 C   0  0  0  0  0  0  0  0  0  0  0  0
    4.4923  -46.9153   10.8431 C   0  0  2  0  0  0  0  0  0  0  0  0
    5.8202  -47.4604   10.6032 O   0  0  0  0  0  0  0  0  0  0  0  0
    2.7475  -47.9956    6.8627 C   0  0  2  0  0  0  0  0  0  0  0  0
    1.6190  -47.5565    7.7283 N   0  0  0  0  0  0  0  0  0  0  0  0
   -1.0660  -49.8838    8.4597 C   0  0  1  0  0  0  0  0  0  0  0  0
   -0.7062  -48.5342    8.8456 O   0  0  0  0  0  0  0  0  0  0  0  0
    3.3239  -49.6052   15.9493 C   0  0  0  0  0  0  0  0  0  0  0  0
    7.4802  -47.2796   14.3818 C   0  0  2  0  0  0  0  0  0  0  0  0
    7.8427  -48.7044   14.4064 N   0  0  0  0  0  0  0  0  0  0  0  0
    3.5708  -46.8468    9.6370 C   0  0  2  0  0  0  0  0  0  0  0  0
    4.2816  -47.0027    8.4389 O   0  0  0  0  0  0  0  0  0  0  0  0
    2.5029  -49.3659    6.0422 C   0  0  1  0  0  0  0  0  0  0  0  0
    3.6794  -49.6290    5.2564 O   0  0  0  0  0  0  0  0  0  0  0  0
   -2.6101  -50.0171    8.5550 C   0  0  1  0  0  0  0  0  0  0  0  0
   -3.1821  -48.7337    8.2725 O   0  0  0  0  0  0  0  0  0  0  0  0
    4.4040  -50.5758   16.5291 C   0  0  2  0  0  0  0  0  0  0  0  0
    4.3288  -50.6050   17.9510 O   0  0  0  0  0  0  0  0  0  0  0  0
    6.1567  -47.0782   13.5922 C   0  0  2  0  0  0  0  0  0  0  0  0
    2.9549  -45.4292    9.5639 C   0  0  2  0  0  0  0  0  0  0  0  0
    3.3892  -44.8419   10.7821 O   0  0  0  0  0  0  0  0  0  0  0  0
    2.3164  -50.6335    7.0285 C   0  0  2  0  0  0  0  0  0  0  0  0
    1.1240  -50.3350    7.7786 O   0  0  0  0  0  0  0  0  0  0  0  0
   -3.2605  -51.0674    7.6252 C   0  0  2  0  0  0  0  0  0  0  0  0
   -4.2767  -51.7177    8.4195 O   0  0  0  0  0  0  0  0  0  0  0  0
    5.8172  -50.1034   16.0827 C   0  0  2  0  0  0  0  0  0  0  0  0
    5.8582  -50.1032   14.6036 O   0  0  0  0  0  0  0  0  0  0  0  0
    5.7314  -45.5811   13.4985 C   0  0  2  0  0  0  0  0  0  0  0  0
    4.5198  -45.5211   12.7084 O   0  0  0  0  0  0  0  0  0  0  0  0
    1.4313  -45.3870    9.5281 C   0  0  0  0  0  0  0  0  0  0  0  0
    0.9684  -45.7946   10.8245 O   0  0  0  0  0  0  0  0  0  0  0  0
    3.5033  -50.5952    7.9726 C   0  0  1  0  0  0  0  0  0  0  0  0
    3.9684  -49.4141    8.6587 O   0  0  0  0  0  0  0  0  0  0  0  0
   -2.2141  -52.0282    7.0671 C   0  0  2  0  0  0  0  0  0  0  0  0
   -1.0622  -51.3855    6.4544 O   0  0  0  0  0  0  0  0  0  0  0  0
    6.8965  -51.0135   16.5767 C   0  0  0  0  0  0  0  0  0  0  0  0
    8.1291  -50.4905   16.1609 O   0  0  0  0  0  0  0  0  0  0  0  0
    6.8833  -44.7320   12.8466 C   0  0  1  0  0  0  0  0  0  0  0  0
    6.4685  -43.3224   12.8226 O   0  0  0  0  0  0  0  0  0  0  0  0
    3.4748  -51.7373    9.0493 C   0  0  0  0  0  0  0  0  0  0  0  0
    3.0991  -53.0628    8.5005 N   0  0  0  0  0  0  0  0  0  0  0  0
   -2.5839  -53.1600    6.1109 C   0  0  0  0  0  0  0  0  0  0  0  0
   -1.4511  -54.0654    5.9328 O   0  0  0  0  0  0  0  0  0  0  0  0
  1  2  1  1  0  0  0
  1  8  1  0  0  0  0
  1 36  1  0  0  0  0
  3  4  1  6  0  0  0
  3 10  1  0  0  0  0
  3 47  1  0  0  0  0
  5 11  1  0  0  0  0
  5 30  1  0  0  0  0
  5 38  1  1  0  0  0
  6 21  1  1  0  0  0
  6 42  1  0  0  0  0
  7 15  1  0  0  0  0
  7 44  1  0  0  0  0
  7 32  1  1  0  0  0
  8  9  1  6  0  0  0
  8 17  1  0  0  0  0
 11 12  1  6  0  0  0
 11 20  1  0  0  0  0
 13  6  1  0  0  0  0
 13 14  1  1  0  0  0
 15 16  1  6  0  0  0
 15 24  1  0  0  0  0
 17 26  1  0  0  0  0
 18 10  1  0  0  0  0
 18 19  1  6  0  0  0
 20 21  1  6  0  0  0
 20 29  1  0  0  0  0
 22 13  1  0  0  0  0
 22 23  1  6  0  0  0
 24 25  1  6  0  0  0
 24 33  1  0  0  0  0
 26 27  1  1  0  0  0
 26 35  1  0  0  0  0
 28  2  1  1  0  0  0
 28 18  1  0  0  0  0
 29 30  1  0  0  0  0
 29 39  1  1  0  0  0
 31 22  1  0  0  0  0
 31 32  1  1  0  0  0
 31 41  1  0  0  0  0
 33 34  1  1  0  0  0
 33 43  1  0  0  0  0
 35 36  1  0  0  0  0
 35 45  1  1  0  0  0
 37 28  1  0  0  0  0
 37 38  1  6  0  0  0
 39 40  1  0  0  0  0
 41 42  1  0  0  0  0
 41 49  1  1  0  0  0
 43 44  1  0  0  0  0
 43 51  1  6  0  0  0
 45 46  1  0  0  0  0
 47 37  1  0  0  0  0
 47 48  1  1  0  0  0
 49 50  1  0  0  0  0
 51 52  1  0  0  0  0
M  END
>  <CHROM.1>
-157.19639029,90.51022479,82.98559224,-179.51284726,110.21785546,-89.00523521
69.81079507,65.00777807,-178.33698796,-84.84426644,43.64504689,-169.50535917
3.17494261,-48.66392267,10.79578805,0.28319571,0.77993262,2.30986316

>  <Name>
2fd0_lig

>  <RI>
2.00683e+07

>  <Rbt.Current_Directory>
/home/itssahil/PROJECTS/Mol_Feturizer/New_Systems/rnas/2fd0

>  <Rbt.Executable>
rbdock ($Id: //depot/dev/client3/rdock/2013.1/src/exe/rbdock.cxx#4 $)

>  <Rbt.Library>
libRbt.so (2013.1, Build901 2013/11/27)

>  <Rbt.Parameter_File>
/export/apps/rDock/src/rDock_2013.1_src/data/scripts/dock_solv.prm

>  <Rbt.Receptor>
prm/pocket_docking_4.prm

>  <SCORE>
-23.2934

>  <SCORE.INTER>
-28.4088

>  <SCORE.INTER.CONST>
1

>  <SCORE.INTER.POLAR>
-2.77406

>  <SCORE.INTER.ROT>
12

>  <SCORE.INTER.SOLV>
13.7371

>  <SCORE.INTER.VDW>
-25.8714

>  <SCORE.INTER.norm>
-0.546324

>  <SCORE.INTRA>
5.10873

>  <SCORE.INTRA.DIHEDRAL>
0.163171

>  <SCORE.INTRA.DIHEDRAL.0>
23.9727

>  <SCORE.INTRA.POLAR>
0

>  <SCORE.INTRA.POLAR.0>
0

>  <SCORE.INTRA.REPUL>
0.0157274

>  <SCORE.INTRA.REPUL.0>
0

>  <SCORE.INTRA.SOLV>
5.32683

>  <SCORE.INTRA.SOLV.lig_0>
-115.028

>  <SCORE.INTRA.VDW>
2.28509

>  <SCORE.INTRA.VDW.0>
-6.82393

>  <SCORE.INTRA.norm>
0.0982448

>  <SCORE.RESTR>
0.00668837

>  <SCORE.RESTR.CAVITY>
0.00668837

>  <SCORE.RESTR.norm>
0.000128623

>  <SCORE.SYSTEM>
0

>  <SCORE.SYSTEM.CONST>
0

>  <SCORE.SYSTEM.DIHEDRAL>
0

>  <SCORE.SYSTEM.SOLV>
0

>  <SCORE.SYSTEM.norm>
0

>  <SCORE.heavy>
52

>  <SCORE.norm>
-0.447951

>  <RMSD>
2.738

$$$$
2fd0_lig
 OpenBabel11021811433D
libRbt.so/2013.1/901 2013/11/27
 52 56  0  0  0  0  0  0  0  0999 V2000
    6.2495  -48.6068   17.0367 C   0  0  2  0  0  0  0  0  0  0  0  0
    6.6540  -49.0030   15.7189 O   0  0  0  0  0  0  0  0  0  0  0  0
    7.5595  -45.2419   13.7374 C   0  0  2  0  0  0  0  0  0  0  0  0
    8.1152  -44.2584   12.7935 N   0  0  0  0  0  0  0  0  0  0  0  0
    4.1541  -48.0210   12.4984 C   0  0  1  0  0  0  0  0  0  0  0  0
    2.3407  -49.4577    8.9579 C   0  0  1  0  0  0  0  0  0  0  0  0
   -1.0344  -52.0076    6.4264 C   0  0  1  0  0  0  0  0  0  0  0  0
    5.7364  -49.8784   17.8056 C   0  0  2  0  0  0  0  0  0  0  0  0
    6.7469  -50.9257   17.8571 N   0  0  0  0  0  0  0  0  0  0  0  0
    8.7329  -46.0389   14.4591 C   0  0  0  0  0  0  0  0  0  0  0  0
    4.0544  -49.0852   11.4208 C   0  0  2  0  0  0  0  0  0  0  0  0
    4.7096  -48.6821   10.1854 O   0  0  0  0  0  0  0  0  0  0  0  0
    1.6774  -48.6142    7.7713 C   0  0  2  0  0  0  0  0  0  0  0  0
    0.2249  -48.4104    8.0247 N   0  0  0  0  0  0  0  0  0  0  0  0
   -0.8541  -52.2716    4.9146 C   0  0  1  0  0  0  0  0  0  0  0  0
    0.4486  -52.8658    4.6912 O   0  0  0  0  0  0  0  0  0  0  0  0
    4.3987  -50.4035   17.1644 C   0  0  0  0  0  0  0  0  0  0  0  0
    8.1257  -47.1013   15.4944 C   0  0  2  0  0  0  0  0  0  0  0  0
    9.1905  -47.8540   16.1737 N   0  0  0  0  0  0  0  0  0  0  0  0
    2.5590  -49.3391   11.3314 C   0  0  2  0  0  0  0  0  0  0  0  0
    2.0180  -48.8077   10.1525 O   0  0  0  0  0  0  0  0  0  0  0  0
    2.0441  -49.3609    6.3860 C   0  0  1  0  0  0  0  0  0  0  0  0
    3.4773  -49.4602    6.3011 O   0  0  0  0  0  0  0  0  0  0  0  0
   -1.9162  -53.1599    4.2119 C   0  0  1  0  0  0  0  0  0  0  0  0
   -1.4420  -54.5124    4.2297 O   0  0  0  0  0  0  0  0  0  0  0  0
    3.3616  -49.2335   17.1508 C   0  0  2  0  0  0  0  0  0  0  0  0
    2.1276  -49.6743   16.5931 O   0  0  0  0  0  0  0  0  0  0  0  0
    7.1853  -48.0757   14.7316 C   0  0  2  0  0  0  0  0  0  0  0  0
    1.8575  -48.5774   12.4812 C   0  0  2  0  0  0  0  0  0  0  0  0
    2.9538  -48.0994   13.2474 O   0  0  0  0  0  0  0  0  0  0  0  0
    1.4758  -50.8741    6.3486 C   0  0  2  0  0  0  0  0  0  0  0  0
    0.0453  -50.7244    6.4182 O   0  0  0  0  0  0  0  0  0  0  0  0
   -3.3395  -53.1236    4.8149 C   0  0  2  0  0  0  0  0  0  0  0  0
   -4.2420  -53.1017    3.6873 O   0  0  0  0  0  0  0  0  0  0  0  0
    3.9279  -48.0498   16.3154 C   0  0  2  0  0  0  0  0  0  0  0  0
    5.1978  -47.6123   16.9364 O   0  0  0  0  0  0  0  0  0  0  0  0
    6.0498  -47.3378   13.9588 C   0  0  2  0  0  0  0  0  0  0  0  0
    5.2757  -48.3414   13.2590 O   0  0  0  0  0  0  0  0  0  0  0  0
    0.9795  -49.4359   13.3848 C   0  0  0  0  0  0  0  0  0  0  0  0
    1.8231  -50.4508   13.9501 O   0  0  0  0  0  0  0  0  0  0  0  0
    1.9565  -51.5235    7.6326 C   0  0  1  0  0  0  0  0  0  0  0  0
    1.8647  -50.9218    8.9409 O   0  0  0  0  0  0  0  0  0  0  0  0
   -3.5067  -51.9321    5.7540 C   0  0  2  0  0  0  0  0  0  0  0  0
   -2.4729  -51.8070    6.7694 O   0  0  0  0  0  0  0  0  0  0  0  0
    2.9955  -46.8805   16.2929 C   0  0  0  0  0  0  0  0  0  0  0  0
    3.5183  -45.9257   15.4093 O   0  0  0  0  0  0  0  0  0  0  0  0
    6.6672  -46.2914   12.9605 C   0  0  1  0  0  0  0  0  0  0  0  0
    5.5694  -45.5811   12.2899 O   0  0  0  0  0  0  0  0  0  0  0  0
    1.4599  -53.0031    7.8016 C   0  0  0  0  0  0  0  0  0  0  0  0
    1.6057  -53.5254    9.1819 N   0  0  0  0  0  0  0  0  0  0  0  0
   -4.8151  -51.6632    6.4941 C   0  0  0  0  0  0  0  0  0  0  0  0
   -5.8981  -51.4269    5.5424 O   0  0  0  0  0  0  0  0  0  0  0  0
  1  2  1  6  0  0  0
  1  8  1  0  0  0  0
  1 36  1  0  0  0  0
  3  4  1  6  0  0  0
  3 10  1  0  0  0  0
  3 47  1  0  0  0  0
  5 11  1  0  0  0  0
  5 30  1  0  0  0  0
  5 38  1  1  0  0  0
  6 21  1  1  0  0  0
  6 42  1  0  0  0  0
  7 15  1  0  0  0  0
  7 44  1  0  0  0  0
  7 32  1  6  0  0  0
  8  9  1  6  0  0  0
  8 17  1  0  0  0  0
 11 12  1  6  0  0  0
 11 20  1  0  0  0  0
 13  6  1  0  0  0  0
 13 14  1  1  0  0  0
 15 16  1  1  0  0  0
 15 24  1  0  0  0  0
 17 26  1  0  0  0  0
 18 10  1  0  0  0  0
 18 19  1  6  0  0  0
 20 21  1  6  0  0  0
 20 29  1  0  0  0  0
 22 13  1  0  0  0  0
 22 23  1  1  0  0  0
 24 25  1  1  0  0  0
 24 33  1  0  0  0  0
 26 27  1  6  0  0  0
 26 35  1  0  0  0  0
 28  2  1  1  0  0  0
 28 18  1  0  0  0  0
 29 30  1  0  0  0  0
 29 39  1  1  0  0  0
 31 22  1  0  0  0  0
 31 32  1  1  0  0  0
 31 41  1  0  0  0  0
 33 34  1  6  0  0  0
 33 43  1  0  0  0  0
 35 36  1  0  0  0  0
 35 45  1  1  0  0  0
 37 28  1  0  0  0  0
 37 38  1  6  0  0  0
 39 40  1  0  0  0  0
 41 42  1  0  0  0  0
 41 49  1  1  0  0  0
 43 44  1  0  0  0  0
 43 51  1  1  0  0  0
 45 46  1  0  0  0  0
 47 37  1  0  0  0  0
 47 48  1  1  0  0  0
 49 50  1  0  0  0  0
 51 52  1  0  0  0  0
M  END
>  <CHROM.1>
-179.89171626,151.79278402,-176.77289087,-75.33356638,71.36391604,40.10155054
58.98661865,-179.44668331,-173.85149616,178.07924446,-164.58322300,-61.65884870
2.59569261,-49.56628388,11.00680102,0.81406862,0.55705745,1.61689793

>  <Name>
2fd0_lig

>  <RI>
1.29864e+07

>  <Rbt.Current_Directory>
/home/itssahil/PROJECTS/Mol_Feturizer/New_Systems/rnas/2fd0

>  <Rbt.Executable>
rbdock ($Id: //depot/dev/client3/rdock/2013.1/src/exe/rbdock.cxx#4 $)

>  <Rbt.Library>
libRbt.so (2013.1, Build901 2013/11/27)

>  <Rbt.Parameter_File>
/export/apps/rDock/src/rDock_2013.1_src/data/scripts/dock_solv.prm

>  <Rbt.Receptor>
prm/pocket_docking_3.prm

>  <SCORE>
-18.3177

>  <SCORE.INTER>
-11.2227

>  <SCORE.INTER.CONST>
1

>  <SCORE.INTER.POLAR>
-0.387698

>  <SCORE.INTER.ROT>
12

>  <SCORE.INTER.SOLV>
13.0441

>  <SCORE.INTER.VDW>
-22.1375

>  <SCORE.INTER.norm>
-0.215821

>  <SCORE.INTRA>
-7.11484

>  <SCORE.INTRA.DIHEDRAL>
-14.8917

>  <SCORE.INTRA.DIHEDRAL.0>
23.9727

>  <SCORE.INTRA.POLAR>
0

>  <SCORE.INTRA.POLAR.0>
0

>  <SCORE.INTRA.REPUL>
0

>  <SCORE.INTRA.REPUL.0>
0

>  <SCORE.INTRA.SOLV>
-1.17099

>  <SCORE.INTRA.SOLV.lig_0>
-115.028

>  <SCORE.INTRA.VDW>
0.91652

>  <SCORE.INTRA.VDW.0>
-6.82393

>  <SCORE.INTRA.norm>
-0.136824

>  <SCORE.RESTR>
0.0198799

>  <SCORE.RESTR.CAVITY>
0.0198799

>  <SCORE.RESTR.norm>
0.000382305

>  <SCORE.SYSTEM>
0

>  <SCORE.SYSTEM.CONST>
0

>  <SCORE.SYSTEM.DIHEDRAL>
0

>  <SCORE.SYSTEM.SOLV>
0

>  <SCORE.SYSTEM.norm>
0

>  <SCORE.heavy>
52

>  <SCORE.norm>
-0.352263

>  <RMSD>
2.780

$$$$
2fd0_lig
 OpenBabel11021811433D
libRbt.so/2013.1/901 2013/11/27
 52 56  0  0  0  0  0  0  0  0999 V2000
    4.0429  -49.6808   14.6127 C   0  0  2  0  0  0  0  0  0  0  0  0
    4.3649  -48.2836   14.5786 O   0  0  0  0  0  0  0  0  0  0  0  0
    4.3066  -45.1410   11.5763 C   0  0  2  0  0  0  0  0  0  0  0  0
    4.6222  -44.3498   10.3758 N   0  0  0  0  0  0  0  0  0  0  0  0
    1.7569  -49.0219   11.5036 C   0  0  1  0  0  0  0  0  0  0  0  0
    0.0678  -51.9441    8.8503 C   0  0  1  0  0  0  0  0  0  0  0  0
   -3.0363  -52.7207    5.3408 C   0  0  1  0  0  0  0  0  0  0  0  0
    3.1815  -49.9641   15.8970 C   0  0  2  0  0  0  0  0  0  0  0  0
    1.9781  -49.1448   15.9346 N   0  0  0  0  0  0  0  0  0  0  0  0
    5.6107  -45.3363   12.4675 C   0  0  0  0  0  0  0  0  0  0  0  0
    1.9080  -50.3105   10.7160 C   0  0  2  0  0  0  0  0  0  0  0  0
    2.2227  -50.0675    9.3159 O   0  0  0  0  0  0  0  0  0  0  0  0
   -0.5024  -51.3359    7.4849 C   0  0  2  0  0  0  0  0  0  0  0  0
   -1.9413  -50.9844    7.6311 N   0  0  0  0  0  0  0  0  0  0  0  0
   -4.4294  -52.9507    5.9686 C   0  0  1  0  0  0  0  0  0  0  0  0
   -4.5528  -52.1312    7.1573 O   0  0  0  0  0  0  0  0  0  0  0  0
    4.0504  -49.7662   17.1940 C   0  0  0  0  0  0  0  0  0  0  0  0
    5.2623  -46.1886   13.7796 C   0  0  2  0  0  0  0  0  0  0  0  0
    6.4524  -46.3860   14.6201 N   0  0  0  0  0  0  0  0  0  0  0  0
    0.5994  -51.0321   10.9906 C   0  0  2  0  0  0  0  0  0  0  0  0
   -0.2341  -51.0298    9.8636 O   0  0  0  0  0  0  0  0  0  0  0  0
   -0.1593  -52.3887    6.3082 C   0  0  1  0  0  0  0  0  0  0  0  0
    1.2641  -52.6006    6.3031 O   0  0  0  0  0  0  0  0  0  0  0  0
   -5.6699  -52.6894    5.0720 C   0  0  1  0  0  0  0  0  0  0  0  0
   -6.0941  -51.3376    5.2883 O   0  0  0  0  0  0  0  0  0  0  0  0
    5.3152  -50.6795   17.0885 C   0  0  2  0  0  0  0  0  0  0  0  0
    6.1210  -50.5429   18.2548 O   0  0  0  0  0  0  0  0  0  0  0  0
    4.6751  -47.5630   13.3532 C   0  0  2  0  0  0  0  0  0  0  0  0
   -0.1796  -50.2499   12.0750 C   0  0  2  0  0  0  0  0  0  0  0  0
    0.7626  -49.2682   12.4826 O   0  0  0  0  0  0  0  0  0  0  0  0
   -0.8375  -53.8321    6.5747 C   0  0  2  0  0  0  0  0  0  0  0  0
   -2.2542  -53.5746    6.5540 O   0  0  0  0  0  0  0  0  0  0  0  0
   -5.4713  -52.9120    3.5549 C   0  0  2  0  0  0  0  0  0  0  0  0
   -6.6729  -53.5686    3.0948 O   0  0  0  0  0  0  0  0  0  0  0  0
    6.1358  -50.2833   15.8279 C   0  0  2  0  0  0  0  0  0  0  0  0
    5.2698  -50.4548   14.6404 O   0  0  0  0  0  0  0  0  0  0  0  0
    3.4267  -47.4257   12.4291 C   0  0  2  0  0  0  0  0  0  0  0  0
    3.0034  -48.7621   12.0674 O   0  0  0  0  0  0  0  0  0  0  0  0
   -0.5808  -51.0661   13.2986 C   0  0  0  0  0  0  0  0  0  0  0  0
   -1.3714  -50.2085   14.1357 O   0  0  0  0  0  0  0  0  0  0  0  0
   -0.4372  -54.2179    7.9862 C   0  0  1  0  0  0  0  0  0  0  0  0
   -0.5153  -53.3414    9.1298 O   0  0  0  0  0  0  0  0  0  0  0  0
   -4.1977  -53.7067    3.2795 C   0  0  2  0  0  0  0  0  0  0  0  0
   -3.0025  -53.1838    3.9226 O   0  0  0  0  0  0  0  0  0  0  0  0
    7.3442  -51.1464   15.6493 C   0  0  0  0  0  0  0  0  0  0  0  0
    6.9123  -52.4233   15.2639 O   0  0  0  0  0  0  0  0  0  0  0  0
    3.7872  -46.5748   11.1569 C   0  0  1  0  0  0  0  0  0  0  0  0
    2.5767  -46.4231   10.3377 O   0  0  0  0  0  0  0  0  0  0  0  0
   -1.0465  -55.5884    8.4496 C   0  0  0  0  0  0  0  0  0  0  0  0
   -0.5151  -56.7570    7.7070 N   0  0  0  0  0  0  0  0  0  0  0  0
   -3.7551  -54.0590    1.8611 C   0  0  0  0  0  0  0  0  0  0  0  0
   -3.7664  -52.8683    1.0146 O   0  0  0  0  0  0  0  0  0  0  0  0
  1  2  1  1  0  0  0
  1  8  1  0  0  0  0
  1 36  1  0  0  0  0
  3  4  1  6  0  0  0
  3 10  1  0  0  0  0
  3 47  1  0  0  0  0
  5 11  1  0  0  0  0
  5 30  1  0  0  0  0
  5 38  1  1  0  0  0
  6 21  1  1  0  0  0
  6 42  1  0  0  0  0
  7 15  1  0  0  0  0
  7 44  1  0  0  0  0
  7 32  1  1  0  0  0
  8  9  1  1  0  0  0
  8 17  1  0  0  0  0
 11 12  1  6  0  0  0
 11 20  1  0  0  0  0
 13  6  1  0  0  0  0
 13 14  1  1  0  0  0
 15 16  1  1  0  0  0
 15 24  1  0  0  0  0
 17 26  1  0  0  0  0
 18 10  1  0  0  0  0
 18 19  1  6  0  0  0
 20 21  1  6  0  0  0
 20 29  1  0  0  0  0
 22 13  1  0  0  0  0
 22 23  1  1  0  0  0
 24 25  1  6  0  0  0
 24 33  1  0  0  0  0
 26 27  1  1  0  0  0
 26 35  1  0  0  0  0
 28  2  1  1  0  0  0
 28 18  1  0  0  0  0
 29 30  1  0  0  0  0
 29 39  1  1  0  0  0
 31 22  1  0  0  0  0
 31 32  1  1  0  0  0
 31 41  1  0  0  0  0
 33 34  1  1  0  0  0
 33 43  1  0  0  0  0
 35 36  1  0  0  0  0
 35 45  1  6  0  0  0
 37 28  1  0  0  0  0
 37 38  1  6  0  0  0
 39 40  1  0  0  0  0
 41 42  1  0  0  0  0
 41 49  1  1  0  0  0
 43 44  1  0  0  0  0
 43 51  1  6  0  0  0
 45 46  1  0  0  0  0
 47 37  1  0  0  0  0
 47 48  1  6  0  0  0
 49 50  1  0  0  0  0
 51 52  1  0  0  0  0
M  END
>  <CHROM.1>
-155.27496911,154.93394184,-153.99569064,176.85901224,78.01248480,-167.77775304
-175.75455859,49.70863318,70.91778067,165.27844353,66.98520847,50.07222933
0.85008318,-50.74469017,10.16986277,0.08247276,0.90649974,2.61606347

>  <Name>
2fd0_lig

>  <RI>
0

>  <Rbt.Current_Directory>
/home/itssahil/PROJECTS/Mol_Feturizer/New_Systems/rnas/2fd0

>  <Rbt.Executable>
rbdock ($Id: //depot/dev/client3/rdock/2013.1/src/exe/rbdock.cxx#4 $)

>  <Rbt.Library>
libRbt.so (2013.1, Build901 2013/11/27)

>  <Rbt.Parameter_File>
/export/apps/rDock/src/rDock_2013.1_src/data/scripts/dock_solv.prm

>  <Rbt.Receptor>
prm/pocket_docking_5.prm

>  <SCORE>
-20.3874

>  <SCORE.INTER>
-15.3855

>  <SCORE.INTER.CONST>
1

>  <SCORE.INTER.POLAR>
-1.8442

>  <SCORE.INTER.ROT>
12

>  <SCORE.INTER.SOLV>
15.2673

>  <SCORE.INTER.VDW>
-20.7988

>  <SCORE.INTER.norm>
-0.295876

>  <SCORE.INTRA>
-5.00189

>  <SCORE.INTRA.DIHEDRAL>
-9.60918

>  <SCORE.INTRA.DIHEDRAL.0>
23.9727

>  <SCORE.INTRA.POLAR>
0

>  <SCORE.INTRA.POLAR.0>
0

>  <SCORE.INTRA.REPUL>
0

>  <SCORE.INTRA.REPUL.0>
0

>  <SCORE.INTRA.SOLV>
-1.76889

>  <SCORE.INTRA.SOLV.lig_0>
-115.028

>  <SCORE.INTRA.VDW>
0.687141

>  <SCORE.INTRA.VDW.0>
-6.82393

>  <SCORE.INTRA.norm>
-0.0961902

>  <SCORE.RESTR>
0

>  <SCORE.RESTR.CAVITY>
0

>  <SCORE.RESTR.norm>
0

>  <SCORE.SYSTEM>
0

>  <SCORE.SYSTEM.CONST>
0

>  <SCORE.SYSTEM.DIHEDRAL>
0

>  <SCORE.SYSTEM.SOLV>
0

>  <SCORE.SYSTEM.norm>
0

>  <SCORE.heavy>
52

>  <SCORE.norm>
-0.392066

>  <RMSD>
2.783

$$$$
2fd0_lig
 OpenBabel11021811433D
libRbt.so/2013.1/901 2013/11/27
 52 56  0  0  0  0  0  0  0  0999 V2000
    4.3093  -49.7056   14.8712 C   0  0  2  0  0  0  0  0  0  0  0  0
    4.9174  -48.4094   14.9564 O   0  0  0  0  0  0  0  0  0  0  0  0
    6.8848  -45.3056   12.6352 C   0  0  2  0  0  0  0  0  0  0  0  0
    7.5809  -44.6084   11.5415 N   0  0  0  0  0  0  0  0  0  0  0  0
    3.3442  -47.9610   11.7696 C   0  0  1  0  0  0  0  0  0  0  0  0
    0.8740  -49.3974    8.1906 C   0  0  1  0  0  0  0  0  0  0  0  0
   -3.1626  -52.3481    7.2508 C   0  0  1  0  0  0  0  0  0  0  0  0
    3.3749  -49.9025   16.1201 C   0  0  2  0  0  0  0  0  0  0  0  0
    2.3691  -48.8537   16.2158 N   0  0  0  0  0  0  0  0  0  0  0  0
    7.7277  -46.5697   13.1090 C   0  0  0  0  0  0  0  0  0  0  0  0
    1.8697  -48.0377   11.4184 C   0  0  2  0  0  0  0  0  0  0  0  0
    1.2030  -49.1511   12.0774 O   0  0  0  0  0  0  0  0  0  0  0  0
   -0.6911  -49.4082    8.5222 C   0  0  2  0  0  0  0  0  0  0  0  0
   -1.0123  -50.4944    9.4877 N   0  0  0  0  0  0  0  0  0  0  0  0
   -3.1794  -53.0445    5.8714 C   0  0  1  0  0  0  0  0  0  0  0  0
   -2.4188  -54.2751    5.9546 O   0  0  0  0  0  0  0  0  0  0  0  0
    4.2323  -49.9963   17.4363 C   0  0  0  0  0  0  0  0  0  0  0  0
    6.9732  -47.3209   14.3073 C   0  0  2  0  0  0  0  0  0  0  0  0
    7.7309  -48.4959   14.7625 N   0  0  0  0  0  0  0  0  0  0  0  0
    1.8834  -48.0723    9.8995 C   0  0  2  0  0  0  0  0  0  0  0  0
    1.5511  -49.3439    9.4122 O   0  0  0  0  0  0  0  0  0  0  0  0
   -1.4814  -49.4722    7.1143 C   0  0  1  0  0  0  0  0  0  0  0  0
   -1.0613  -48.3495    6.3179 O   0  0  0  0  0  0  0  0  0  0  0  0
   -4.5652  -53.3750    5.2539 C   0  0  1  0  0  0  0  0  0  0  0  0
   -4.9092  -54.7139    5.6326 O   0  0  0  0  0  0  0  0  0  0  0  0
    5.2801  -51.1442   17.2657 C   0  0  2  0  0  0  0  0  0  0  0  0
    6.0664  -51.2741   18.4460 O   0  0  0  0  0  0  0  0  0  0  0  0
    5.5580  -47.7497   13.8288 C   0  0  2  0  0  0  0  0  0  0  0  0
    3.3288  -47.8138    9.4111 C   0  0  2  0  0  0  0  0  0  0  0  0
    4.0037  -47.4740   10.6139 O   0  0  0  0  0  0  0  0  0  0  0  0
   -1.1044  -50.7997    6.2717 C   0  0  2  0  0  0  0  0  0  0  0  0
   -1.5566  -51.8907    7.0957 O   0  0  0  0  0  0  0  0  0  0  0  0
   -5.7266  -52.4328    5.6462 C   0  0  2  0  0  0  0  0  0  0  0  0
   -6.4867  -52.2231    4.4359 O   0  0  0  0  0  0  0  0  0  0  0  0
    6.1977  -50.8306   16.0494 C   0  0  2  0  0  0  0  0  0  0  0  0
    5.3459  -50.7204   14.8445 O   0  0  0  0  0  0  0  0  0  0  0  0
    4.7111  -46.5524   13.2996 C   0  0  2  0  0  0  0  0  0  0  0  0
    3.4427  -47.0829   12.8459 O   0  0  0  0  0  0  0  0  0  0  0  0
    3.4832  -46.6558    8.4315 C   0  0  0  0  0  0  0  0  0  0  0  0
    2.6678  -46.9592    7.2895 O   0  0  0  0  0  0  0  0  0  0  0  0
    0.4112  -50.8323    6.2161 C   0  0  1  0  0  0  0  0  0  0  0  0
    1.2787  -50.6221    7.3499 O   0  0  0  0  0  0  0  0  0  0  0  0
   -5.1994  -51.1421    6.2674 C   0  0  2  0  0  0  0  0  0  0  0  0
   -4.2507  -51.3320    7.3534 O   0  0  0  0  0  0  0  0  0  0  0  0
    7.2029  -51.9120   15.8096 C   0  0  0  0  0  0  0  0  0  0  0  0
    8.0989  -51.9182   16.8879 O   0  0  0  0  0  0  0  0  0  0  0  0
    5.4759  -45.8222   12.1358 C   0  0  1  0  0  0  0  0  0  0  0  0
    4.6731  -44.6716   11.6987 O   0  0  0  0  0  0  0  0  0  0  0  0
    0.9762  -52.0910    5.4672 C   0  0  0  0  0  0  0  0  0  0  0  0
    0.6840  -52.0988    4.0132 N   0  0  0  0  0  0  0  0  0  0  0  0
   -6.1352  -50.0384    6.7553 C   0  0  0  0  0  0  0  0  0  0  0  0
   -7.0185  -49.6065    5.6747 O   0  0  0  0  0  0  0  0  0  0  0  0
  1  2  1  1  0  0  0
  1  8  1  0  0  0  0
  1 36  1  0  0  0  0
  3  4  1  6  0  0  0
  3 10  1  0  0  0  0
  3 47  1  0  0  0  0
  5 11  1  0  0  0  0
  5 30  1  0  0  0  0
  5 38  1  1  0  0  0
  6 21  1  1  0  0  0
  6 42  1  0  0  0  0
  7 15  1  0  0  0  0
  7 44  1  0  0  0  0
  7 32  1  6  0  0  0
  8  9  1  1  0  0  0
  8 17  1  0  0  0  0
 11 12  1  1  0  0  0
 11 20  1  0  0  0  0
 13  6  1  0  0  0  0
 13 14  1  1  0  0  0
 15 16  1  1  0  0  0
 15 24  1  0  0  0  0
 17 26  1  0  0  0  0
 18 10  1  0  0  0  0
 18 19  1  6  0  0  0
 20 21  1  1  0  0  0
 20 29  1  0  0  0  0
 22 13  1  0  0  0  0
 22 23  1  6  0  0  0
 24 25  1  1  0  0  0
 24 33  1  0  0  0  0
 26 27  1  1  0  0  0
 26 35  1  0  0  0  0
 28  2  1  1  0  0  0
 28 18  1  0  0  0  0
 29 30  1  0  0  0  0
 29 39  1  6  0  0  0
 31 22  1  0  0  0  0
 31 32  1  1  0  0  0
 31 41  1  0  0  0  0
 33 34  1  6  0  0  0
 33 43  1  0  0  0  0
 35 36  1  0  0  0  0
 35 45  1  6  0  0  0
 37 28  1  0  0  0  0
 37 38  1  6  0  0  0
 39 40  1  0  0  0  0
 41 42  1  0  0  0  0
 41 49  1  1  0  0  0
 43 44  1  0  0  0  0
 43 51  1  1  0  0  0
 45 46  1  0  0  0  0
 47 37  1  0  0  0  0
 47 48  1  1  0  0  0
 49 50  1  0  0  0  0
 51 52  1  0  0  0  0
M  END
>  <CHROM.1>
-163.52663998,-167.76415832,-92.22819032,76.41200491,148.10806743,-128.29281509
-59.51992374,76.44578647,-67.19102019,-64.68414881,67.73855747,-56.05837385
1.61472067,-49.64332073,10.39106304,0.35338919,0.70882102,2.29556254

>  <Name>
2fd0_lig

>  <RI>
1.29864e+07

>  <Rbt.Current_Directory>
/home/itssahil/PROJECTS/Mol_Feturizer/New_Systems/rnas/2fd0

>  <Rbt.Executable>
rbdock ($Id: //depot/dev/client3/rdock/2013.1/src/exe/rbdock.cxx#4 $)

>  <Rbt.Library>
libRbt.so (2013.1, Build901 2013/11/27)

>  <Rbt.Parameter_File>
/export/apps/rDock/src/rDock_2013.1_src/data/scripts/dock_solv.prm

>  <Rbt.Receptor>
prm/pocket_docking_3.prm

>  <SCORE>
-15.6966

>  <SCORE.INTER>
-14.9519

>  <SCORE.INTER.CONST>
1

>  <SCORE.INTER.POLAR>
-0.938083

>  <SCORE.INTER.ROT>
12

>  <SCORE.INTER.SOLV>
16.4319

>  <SCORE.INTER.VDW>
-23.9183

>  <SCORE.INTER.norm>
-0.287537

>  <SCORE.INTRA>
-1.02837

>  <SCORE.INTRA.DIHEDRAL>
-2.68959

>  <SCORE.INTRA.DIHEDRAL.0>
23.9727

>  <SCORE.INTRA.POLAR>
0

>  <SCORE.INTRA.POLAR.0>
0

>  <SCORE.INTRA.REPUL>
0

>  <SCORE.INTRA.REPUL.0>
0

>  <SCORE.INTRA.SOLV>
-0.369314

>  <SCORE.INTRA.SOLV.lig_0>
-115.028

>  <SCORE.INTRA.VDW>
0.501086

>  <SCORE.INTRA.VDW.0>
-6.82393

>  <SCORE.INTRA.norm>
-0.0197763

>  <SCORE.RESTR>
0.283738

>  <SCORE.RESTR.CAVITY>
0.283738

>  <SCORE.RESTR.norm>
0.00545649

>  <SCORE.SYSTEM>
0

>  <SCORE.SYSTEM.CONST>
0

>  <SCORE.SYSTEM.DIHEDRAL>
0

>  <SCORE.SYSTEM.SOLV>
0

>  <SCORE.SYSTEM.norm>
0

>  <SCORE.heavy>
52

>  <SCORE.norm>
-0.301857

>  <RMSD>
2.790

$$$$
2fd0_lig
 OpenBabel11021811433D
libRbt.so/2013.1/901 2013/11/27
 52 56  0  0  0  0  0  0  0  0999 V2000
    5.1966  -50.5616   15.6220 C   0  0  2  0  0  0  0  0  0  0  0  0
    5.8708  -49.7739   14.6310 O   0  0  0  0  0  0  0  0  0  0  0  0
    3.5151  -46.2643   13.6181 C   0  0  2  0  0  0  0  0  0  0  0  0
    2.8631  -45.1950   12.8446 N   0  0  0  0  0  0  0  0  0  0  0  0
    3.0521  -50.4286   12.1677 C   0  0  1  0  0  0  0  0  0  0  0  0
    0.8592  -49.5871    8.2500 C   0  0  1  0  0  0  0  0  0  0  0  0
   -2.8665  -51.2933    4.8571 C   0  0  1  0  0  0  0  0  0  0  0  0
    4.8589  -49.6389   16.8492 C   0  0  2  0  0  0  0  0  0  0  0  0
    4.0587  -48.4868   16.4578 N   0  0  0  0  0  0  0  0  0  0  0  0
    5.0890  -46.2344   13.3836 C   0  0  0  0  0  0  0  0  0  0  0  0
    1.6494  -49.9758   11.8060 C   0  0  2  0  0  0  0  0  0  0  0  0
    0.6764  -51.0524   11.9174 O   0  0  0  0  0  0  0  0  0  0  0  0
   -0.7067  -49.2974    8.4031 C   0  0  2  0  0  0  0  0  0  0  0  0
   -1.4337  -50.5421    8.7739 N   0  0  0  0  0  0  0  0  0  0  0  0
   -3.8801  -50.1517    5.0960 C   0  0  1  0  0  0  0  0  0  0  0  0
   -3.3669  -48.9329    4.5035 O   0  0  0  0  0  0  0  0  0  0  0  0
    6.1796  -49.1972   17.5822 C   0  0  0  0  0  0  0  0  0  0  0  0
    5.7979  -47.3925   14.2354 C   0  0  2  0  0  0  0  0  0  0  0  0
    7.2543  -47.3885   14.0342 N   0  0  0  0  0  0  0  0  0  0  0  0
    1.8311  -49.3809   10.4198 C   0  0  2  0  0  0  0  0  0  0  0  0
    1.2786  -50.2064    9.4308 O   0  0  0  0  0  0  0  0  0  0  0  0
   -1.2000  -48.5830    7.0403 C   0  0  1  0  0  0  0  0  0  0  0  0
   -0.4039  -47.4000    6.8458 O   0  0  0  0  0  0  0  0  0  0  0  0
   -5.3302  -50.3637    4.5829 C   0  0  1  0  0  0  0  0  0  0  0  0
   -5.4192  -49.8031    3.2669 O   0  0  0  0  0  0  0  0  0  0  0  0
    6.9798  -50.4802   17.9798 C   0  0  2  0  0  0  0  0  0  0  0  0
    8.1768  -50.1231   18.6639 O   0  0  0  0  0  0  0  0  0  0  0  0
    5.2044  -48.7673   13.8188 C   0  0  2  0  0  0  0  0  0  0  0  0
    3.3441  -49.3200   10.1013 C   0  0  2  0  0  0  0  0  0  0  0  0
    3.9342  -49.6922   11.3385 O   0  0  0  0  0  0  0  0  0  0  0  0
   -0.9539  -49.5201    5.7458 C   0  0  2  0  0  0  0  0  0  0  0  0
   -1.7794  -50.6774    5.9758 O   0  0  0  0  0  0  0  0  0  0  0  0
   -5.8275  -51.8270    4.5352 C   0  0  2  0  0  0  0  0  0  0  0  0
   -7.1929  -51.7922    5.0052 O   0  0  0  0  0  0  0  0  0  0  0  0
    7.3238  -51.2932   16.6990 C   0  0  2  0  0  0  0  0  0  0  0  0
    6.0559  -51.6576   16.0289 O   0  0  0  0  0  0  0  0  0  0  0  0
    3.6544  -48.8282   13.9757 C   0  0  2  0  0  0  0  0  0  0  0  0
    3.2211  -50.1315   13.5176 O   0  0  0  0  0  0  0  0  0  0  0  0
    3.8690  -47.9415    9.7156 C   0  0  0  0  0  0  0  0  0  0  0  0
    3.3758  -47.6571    8.3976 O   0  0  0  0  0  0  0  0  0  0  0  0
    0.5013  -49.9428    5.8175 C   0  0  1  0  0  0  0  0  0  0  0  0
    1.1533  -50.4423    7.0039 O   0  0  0  0  0  0  0  0  0  0  0  0
   -4.9221  -52.7407    5.3569 C   0  0  2  0  0  0  0  0  0  0  0  0
   -3.5045  -52.6283    5.0513 O   0  0  0  0  0  0  0  0  0  0  0  0
    8.0610  -52.5556   17.0152 C   0  0  0  0  0  0  0  0  0  0  0  0
    8.8738  -52.8700   15.9170 O   0  0  0  0  0  0  0  0  0  0  0  0
    2.9813  -47.6757   13.1443 C   0  0  1  0  0  0  0  0  0  0  0  0
    1.5285  -47.7327   13.3575 O   0  0  0  0  0  0  0  0  0  0  0  0
    0.9236  -50.9079    4.6535 C   0  0  0  0  0  0  0  0  0  0  0  0
    0.3245  -52.2607    4.7557 N   0  0  0  0  0  0  0  0  0  0  0  0
   -5.1785  -54.2416    5.4726 C   0  0  0  0  0  0  0  0  0  0  0  0
   -5.1684  -54.8624    4.1501 O   0  0  0  0  0  0  0  0  0  0  0  0
  1  2  1  6  0  0  0
  1  8  1  0  0  0  0
  1 36  1  0  0  0  0
  3  4  1  6  0  0  0
  3 10  1  0  0  0  0
  3 47  1  0  0  0  0
  5 11  1  0  0  0  0
  5 30  1  0  0  0  0
  5 38  1  1  0  0  0
  6 21  1  1  0  0  0
  6 42  1  0  0  0  0
  7 15  1  0  0  0  0
  7 44  1  0  0  0  0
  7 32  1  1  0  0  0
  8  9  1  6  0  0  0
  8 17  1  0  0  0  0
 11 12  1  6  0  0  0
 11 20  1  0  0  0  0
 13  6  1  0  0  0  0
 13 14  1  6  0  0  0
 15 16  1  6  0  0  0
 15 24  1  0  0  0  0
 17 26  1  0  0  0  0
 18 10  1  0  0  0  0
 18 19  1  6  0  0  0
 20 21  1  6  0  0  0
 20 29  1  0  0  0  0
 22 13  1  0  0  0  0
 22 23  1  6  0  0  0
 24 25  1  6  0  0  0
 24 33  1  0  0  0  0
 26 27  1  6  0  0  0
 26 35  1  0  0  0  0
 28  2  1  1  0  0  0
 28 18  1  0  0  0  0
 29 30  1  0  0  0  0
 29 39  1  1  0  0  0
 31 22  1  0  0  0  0
 31 32  1  1  0  0  0
 31 41  1  0  0  0  0
 33 34  1  1  0  0  0
 33 43  1  0  0  0  0
 35 36  1  0  0  0  0
 35 45  1  1  0  0  0
 37 28  1  0  0  0  0
 37 38  1  6  0  0  0
 39 40  1  0  0  0  0
 41 42  1  0  0  0  0
 41 49  1  6  0  0  0
 43 44  1  0  0  0  0
 43 51  1  6  0  0  0
 45 46  1  0  0  0  0
 47 37  1  0  0  0  0
 47 48  1  1  0  0  0
 49 50  1  0  0  0  0
 51 52  1  0  0  0  0
M  END
>  <CHROM.1>
-72.06956619,-85.32442689,-95.30376509,-74.47213606,153.51447918,113.73185789
-72.28701417,129.28563888,-151.45817300,-80.73932886,-69.97913143,58.71288160
1.52381243,-49.94771943,10.34751183,0.13350246,0.83083923,2.81348939

>  <Name>
2fd0_lig

>  <RI>
2.89522e+07

>  <Rbt.Current_Directory>
/home/itssahil/PROJECTS/Mol_Feturizer/New_Systems/rnas/2fd0

>  <Rbt.Executable>
rbdock ($Id: //depot/dev/client3/rdock/2013.1/src/exe/rbdock.cxx#4 $)

>  <Rbt.Library>
libRbt.so (2013.1, Build901 2013/11/27)

>  <Rbt.Parameter_File>
/export/apps/rDock/src/rDock_2013.1_src/data/scripts/dock_solv.prm

>  <Rbt.Receptor>
prm/pocket_docking_2.prm

>  <SCORE>
6.72689

>  <SCORE.INTER>
-7.27788

>  <SCORE.INTER.CONST>
1

>  <SCORE.INTER.POLAR>
-0.588461

>  <SCORE.INTER.ROT>
12

>  <SCORE.INTER.SOLV>
11.2612

>  <SCORE.INTER.VDW>
-18.2441

>  <SCORE.INTER.norm>
-0.139959

>  <SCORE.INTRA>
10.0885

>  <SCORE.INTRA.DIHEDRAL>
8.11396

>  <SCORE.INTRA.DIHEDRAL.0>
23.9727

>  <SCORE.INTRA.POLAR>
0

>  <SCORE.INTRA.POLAR.0>
0

>  <SCORE.INTRA.REPUL>
0

>  <SCORE.INTRA.REPUL.0>
0

>  <SCORE.INTRA.SOLV>
4.48918

>  <SCORE.INTRA.SOLV.lig_0>
-115.028

>  <SCORE.INTRA.VDW>
3.78691

>  <SCORE.INTRA.VDW.0>
-6.82393

>  <SCORE.INTRA.norm>
0.194009

>  <SCORE.RESTR>
3.91628

>  <SCORE.RESTR.CAVITY>
3.91628

>  <SCORE.RESTR.norm>
0.0753131

>  <SCORE.SYSTEM>
0

>  <SCORE.SYSTEM.CONST>
0

>  <SCORE.SYSTEM.DIHEDRAL>
0

>  <SCORE.SYSTEM.SOLV>
0

>  <SCORE.SYSTEM.norm>
0

>  <SCORE.heavy>
52

>  <SCORE.norm>
0.129363

>  <RMSD>
2.792

$$$$
2fd0_lig
 OpenBabel11021811433D
libRbt.so/2013.1/901 2013/11/27
 52 56  0  0  0  0  0  0  0  0999 V2000
    4.1878  -49.4694   13.8848 C   0  0  2  0  0  0  0  0  0  0  0  0
    4.5500  -48.0865   13.7689 O   0  0  0  0  0  0  0  0  0  0  0  0
    6.6966  -45.2182   11.3077 C   0  0  2  0  0  0  0  0  0  0  0  0
    7.5012  -44.6353   10.2215 N   0  0  0  0  0  0  0  0  0  0  0  0
    3.3692  -48.1483   10.4213 C   0  0  1  0  0  0  0  0  0  0  0  0
    1.4163  -50.8250    7.3449 C   0  0  1  0  0  0  0  0  0  0  0  0
   -3.1591  -52.5628    6.4999 C   0  0  1  0  0  0  0  0  0  0  0  0
    3.1163  -49.6116   15.0263 C   0  0  2  0  0  0  0  0  0  0  0  0
    1.9469  -48.7795   14.7795 N   0  0  0  0  0  0  0  0  0  0  0  0
    7.5113  -46.3728   12.0399 C   0  0  0  0  0  0  0  0  0  0  0  0
    1.9685  -48.7275   10.3418 C   0  0  2  0  0  0  0  0  0  0  0  0
    1.7864  -49.8559   11.2427 O   0  0  0  0  0  0  0  0  0  0  0  0
   -0.0846  -50.3015    7.1641 C   0  0  2  0  0  0  0  0  0  0  0  0
   -0.9276  -50.7268    8.3146 N   0  0  0  0  0  0  0  0  0  0  0  0
   -3.3722  -53.5431    5.3246 C   0  0  1  0  0  0  0  0  0  0  0  0
   -3.2449  -54.9013    5.8137 O   0  0  0  0  0  0  0  0  0  0  0  0
    3.7614  -49.2931   16.4259 C   0  0  0  0  0  0  0  0  0  0  0  0
    6.6375  -46.9985   13.2292 C   0  0  2  0  0  0  0  0  0  0  0  0
    7.3673  -48.0710   13.9212 N   0  0  0  0  0  0  0  0  0  0  0  0
    1.8067  -49.0232    8.8603 C   0  0  2  0  0  0  0  0  0  0  0  0
    1.8491  -50.4008    8.6045 O   0  0  0  0  0  0  0  0  0  0  0  0
   -0.5933  -50.7901    5.7104 C   0  0  1  0  0  0  0  0  0  0  0  0
    0.3245  -50.2825    4.7250 O   0  0  0  0  0  0  0  0  0  0  0  0
   -4.7066  -53.4372    4.5377 C   0  0  1  0  0  0  0  0  0  0  0  0
   -5.6373  -54.3580    5.1208 O   0  0  0  0  0  0  0  0  0  0  0  0
    4.9999  -50.2264   16.6258 C   0  0  2  0  0  0  0  0  0  0  0  0
    5.6030  -49.9814   17.8925 O   0  0  0  0  0  0  0  0  0  0  0  0
    5.3048  -47.5476   12.6478 C   0  0  2  0  0  0  0  0  0  0  0  0
    3.0180  -48.4304    8.1015 C   0  0  2  0  0  0  0  0  0  0  0  0
    3.6876  -47.6964    9.1166 O   0  0  0  0  0  0  0  0  0  0  0  0
   -0.5691  -52.4010    5.5738 C   0  0  2  0  0  0  0  0  0  0  0  0
   -1.5100  -52.8613    6.5619 O   0  0  0  0  0  0  0  0  0  0  0  0
   -5.3576  -52.0356    4.4887 C   0  0  2  0  0  0  0  0  0  0  0  0
   -5.8465  -51.8778    3.1387 O   0  0  0  0  0  0  0  0  0  0  0  0
    6.0305  -49.9690   15.4894 C   0  0  2  0  0  0  0  0  0  0  0  0
    5.3707  -50.2502   14.1952 O   0  0  0  0  0  0  0  0  0  0  0  0
    4.4948  -46.4663   11.8694 C   0  0  2  0  0  0  0  0  0  0  0  0
    3.3076  -47.1064   11.3431 O   0  0  0  0  0  0  0  0  0  0  0  0
    2.6661  -47.4714    6.9697 C   0  0  0  0  0  0  0  0  0  0  0  0
    1.9298  -46.3853    7.5523 O   0  0  0  0  0  0  0  0  0  0  0  0
    0.8239  -52.8267    5.9980 C   0  0  1  0  0  0  0  0  0  0  0  0
    1.5020  -52.3535    7.1805 O   0  0  0  0  0  0  0  0  0  0  0  0
   -4.3648  -50.9551    4.9087 C   0  0  2  0  0  0  0  0  0  0  0  0
   -3.6887  -51.2067    6.1717 O   0  0  0  0  0  0  0  0  0  0  0  0
    7.2271  -50.8591   15.6032 C   0  0  0  0  0  0  0  0  0  0  0  0
    6.7961  -52.1857   15.4614 O   0  0  0  0  0  0  0  0  0  0  0  0
    5.3752  -45.8566   10.7180 C   0  0  1  0  0  0  0  0  0  0  0  0
    4.5991  -44.8079   10.0417 O   0  0  0  0  0  0  0  0  0  0  0  0
    1.0294  -54.3828    5.9755 C   0  0  0  0  0  0  0  0  0  0  0  0
    0.1995  -55.1068    6.9688 N   0  0  0  0  0  0  0  0  0  0  0  0
   -4.7505  -49.4784    4.9601 C   0  0  0  0  0  0  0  0  0  0  0  0
   -5.1321  -49.0063    3.6312 O   0  0  0  0  0  0  0  0  0  0  0  0
  1  2  1  1  0  0  0
  1  8  1  0  0  0  0
  1 36  1  0  0  0  0
  3  4  1  6  0  0  0
  3 10  1  0  0  0  0
  3 47  1  0  0  0  0
  5 11  1  0  0  0  0
  5 30  1  0  0  0  0
  5 38  1  1  0  0  0
  6 21  1  1  0  0  0
  6 42  1  0  0  0  0
  7 15  1  0  0  0  0
  7 44  1  0  0  0  0
  7 32  1  6  0  0  0
  8  9  1  6  0  0  0
  8 17  1  0  0  0  0
 11 12  1  1  0  0  0
 11 20  1  0  0  0  0
 13  6  1  0  0  0  0
 13 14  1  1  0  0  0
 15 16  1  1  0  0  0
 15 24  1  0  0  0  0
 17 26  1  0  0  0  0
 18 10  1  0  0  0  0
 18 19  1  6  0  0  0
 20 21  1  1  0  0  0
 20 29  1  0  0  0  0
 22 13  1  0  0  0  0
 22 23  1  6  0  0  0
 24 25  1  1  0  0  0
 24 33  1  0  0  0  0
 26 27  1  1  0  0  0
 26 35  1  0  0  0  0
 28  2  1  1  0  0  0
 28 18  1  0  0  0  0
 29 30  1  0  0  0  0
 29 39  1  6  0  0  0
 31 22  1  0  0  0  0
 31 32  1  1  0  0  0
 31 41  1  0  0  0  0
 33 34  1  6  0  0  0
 33 43  1  0  0  0  0
 35 36  1  0  0  0  0
 35 45  1  1  0  0  0
 37 28  1  0  0  0  0
 37 38  1  6  0  0  0
 39 40  1  0  0  0  0
 41 42  1  0  0  0  0
 41 49  1  1  0  0  0
 43 44  1  0  0  0  0
 43 51  1  1  0  0  0
 45 46  1  0  0  0  0
 47 37  1  0  0  0  0
 47 48  1  1  0  0  0
 49 50  1  0  0  0  0
 51 52  1  0  0  0  0
M  END
>  <CHROM.1>
-167.08674223,168.54816857,-57.15656339,71.86688022,165.98092159,-117.46087705
59.84211609,65.74296565,62.80742418,-62.46854091,-65.60678295,-61.81400426
1.63448082,-49.90534003,9.47453932,0.22748509,0.79627620,2.41176251

>  <Name>
2fd0_lig

>  <RI>
1.29864e+07

>  <Rbt.Current_Directory>
/home/itssahil/PROJECTS/Mol_Feturizer/New_Systems/rnas/2fd0

>  <Rbt.Executable>
rbdock ($Id: //depot/dev/client3/rdock/2013.1/src/exe/rbdock.cxx#4 $)

>  <Rbt.Library>
libRbt.so (2013.1, Build901 2013/11/27)

>  <Rbt.Parameter_File>
/export/apps/rDock/src/rDock_2013.1_src/data/scripts/dock_solv.prm

>  <Rbt.Receptor>
prm/pocket_docking_3.prm

>  <SCORE>
-16.5426

>  <SCORE.INTER>
-13.0798

>  <SCORE.INTER.CONST>
1

>  <SCORE.INTER.POLAR>
-1.25585

>  <SCORE.INTER.ROT>
12

>  <SCORE.INTER.SOLV>
19.1247

>  <SCORE.INTER.VDW>
-22.5086

>  <SCORE.INTER.norm>
-0.251535

>  <SCORE.INTRA>
-3.46284

>  <SCORE.INTRA.DIHEDRAL>
-11.8084

>  <SCORE.INTRA.DIHEDRAL.0>
23.9727

>  <SCORE.INTRA.POLAR>
0

>  <SCORE.INTRA.POLAR.0>
0

>  <SCORE.INTRA.REPUL>
0

>  <SCORE.INTRA.REPUL.0>
0

>  <SCORE.INTRA.SOLV>
3.27698

>  <SCORE.INTRA.SOLV.lig_0>
-115.028

>  <SCORE.INTRA.VDW>
0.802882

>  <SCORE.INTRA.VDW.0>
-6.82393

>  <SCORE.INTRA.norm>
-0.0665931

>  <SCORE.RESTR>
0

>  <SCORE.RESTR.CAVITY>
0

>  <SCORE.RESTR.norm>
0

>  <SCORE.SYSTEM>
0

>  <SCORE.SYSTEM.CONST>
0

>  <SCORE.SYSTEM.DIHEDRAL>
0

>  <SCORE.SYSTEM.SOLV>
0

>  <SCORE.SYSTEM.norm>
0

>  <SCORE.heavy>
52

>  <SCORE.norm>
-0.318128

>  <RMSD>
2.828

$$$$
2fd0_lig
 OpenBabel11021811433D
libRbt.so/2013.1/901 2013/11/27
 52 56  0  0  0  0  0  0  0  0999 V2000
    6.1264  -48.6501   17.2036 C   0  0  2  0  0  0  0  0  0  0  0  0
    6.6338  -48.9934   15.9069 O   0  0  0  0  0  0  0  0  0  0  0  0
    7.2627  -45.1456   13.9855 C   0  0  2  0  0  0  0  0  0  0  0  0
    7.7669  -44.1044   13.0752 N   0  0  0  0  0  0  0  0  0  0  0  0
    4.1383  -48.2752   12.6795 C   0  0  1  0  0  0  0  0  0  0  0  0
    2.4938  -49.6228    9.0155 C   0  0  1  0  0  0  0  0  0  0  0  0
   -0.6037  -52.0867    5.8704 C   0  0  1  0  0  0  0  0  0  0  0  0
    5.5426  -49.9479   17.8718 C   0  0  2  0  0  0  0  0  0  0  0  0
    6.5375  -51.0078   17.9588 N   0  0  0  0  0  0  0  0  0  0  0  0
    8.4698  -45.8269   14.7678 C   0  0  0  0  0  0  0  0  0  0  0  0
    4.2066  -49.2017   11.4793 C   0  0  2  0  0  0  0  0  0  0  0  0
    4.7212  -48.5320   10.2941 O   0  0  0  0  0  0  0  0  0  0  0  0
    1.7342  -48.7006    7.9515 C   0  0  2  0  0  0  0  0  0  0  0  0
    0.2695  -48.6969    8.2159 N   0  0  0  0  0  0  0  0  0  0  0  0
   -0.5372  -51.7431    4.3653 C   0  0  1  0  0  0  0  0  0  0  0  0
    0.7914  -52.0433    3.8708 O   0  0  0  0  0  0  0  0  0  0  0  0
    4.2575  -50.4297   17.1018 C   0  0  0  0  0  0  0  0  0  0  0  0
    7.9174  -46.9525   15.7664 C   0  0  2  0  0  0  0  0  0  0  0  0
    9.0144  -47.6002   16.5006 N   0  0  0  0  0  0  0  0  0  0  0  0
    2.7876  -49.7359   11.3811 C   0  0  2  0  0  0  0  0  0  0  0  0
    2.1072  -49.1862   10.2858 O   0  0  0  0  0  0  0  0  0  0  0  0
    2.1744  -49.2008    6.4794 C   0  0  1  0  0  0  0  0  0  0  0  0
    3.6093  -49.1275    6.3962 O   0  0  0  0  0  0  0  0  0  0  0  0
   -1.5671  -52.4307    3.4285 C   0  0  1  0  0  0  0  0  0  0  0  0
   -0.9635  -53.6215    2.9071 O   0  0  0  0  0  0  0  0  0  0  0  0
    3.2340  -49.2486   17.0558 C   0  0  2  0  0  0  0  0  0  0  0  0
    2.0462  -49.6510   16.3811 O   0  0  0  0  0  0  0  0  0  0  0  0
    7.1216  -48.0101   14.9517 C   0  0  2  0  0  0  0  0  0  0  0  0
    1.9962  -49.2717   12.6272 C   0  0  2  0  0  0  0  0  0  0  0  0
    3.0069  -48.6797   13.4306 O   0  0  0  0  0  0  0  0  0  0  0  0
    1.7781  -50.7476    6.2253 C   0  0  2  0  0  0  0  0  0  0  0  0
    0.3402  -50.7689    6.3004 O   0  0  0  0  0  0  0  0  0  0  0  0
   -2.9261  -52.8000    4.0667 C   0  0  2  0  0  0  0  0  0  0  0  0
   -3.9257  -52.4723    3.0768 O   0  0  0  0  0  0  0  0  0  0  0  0
    3.8756  -48.0363   16.3220 C   0  0  2  0  0  0  0  0  0  0  0  0
    5.0940  -47.6404   17.0624 O   0  0  0  0  0  0  0  0  0  0  0  0
    5.9609  -47.3835   14.1203 C   0  0  2  0  0  0  0  0  0  0  0  0
    5.3299  -48.4541   13.3775 O   0  0  0  0  0  0  0  0  0  0  0  0
    1.3394  -50.3893   13.4297 C   0  0  0  0  0  0  0  0  0  0  0  0
    0.4160  -51.0510   12.5518 O   0  0  0  0  0  0  0  0  0  0  0  0
    2.3351  -51.5128    7.4109 C   0  0  1  0  0  0  0  0  0  0  0  0
    2.1838  -51.1139    8.7894 O   0  0  0  0  0  0  0  0  0  0  0  0
   -3.1225  -52.0756    5.3958 C   0  0  2  0  0  0  0  0  0  0  0  0
   -2.0175  -52.2100    6.3319 O   0  0  0  0  0  0  0  0  0  0  0  0
    2.9571  -46.8567   16.2755 C   0  0  0  0  0  0  0  0  0  0  0  0
    3.5938  -45.8394   15.5507 O   0  0  0  0  0  0  0  0  0  0  0  0
    6.5230  -46.2731   13.1592 C   0  0  1  0  0  0  0  0  0  0  0  0
    5.3971  -45.6710   12.4318 O   0  0  0  0  0  0  0  0  0  0  0  0
    2.0073  -53.0474    7.3666 C   0  0  0  0  0  0  0  0  0  0  0  0
    2.5946  -53.8137    8.4922 N   0  0  0  0  0  0  0  0  0  0  0  0
   -4.3779  -52.2680    6.2438 C   0  0  0  0  0  0  0  0  0  0  0  0
   -5.5522  -51.7652    5.5347 O   0  0  0  0  0  0  0  0  0  0  0  0
  1  2  1  6  0  0  0
  1  8  1  0  0  0  0
  1 36  1  0  0  0  0
  3  4  1  6  0  0  0
  3 10  1  0  0  0  0
  3 47  1  0  0  0  0
  5 11  1  0  0  0  0
  5 30  1  0  0  0  0
  5 38  1  1  0  0  0
  6 21  1  1  0  0  0
  6 42  1  0  0  0  0
  7 15  1  0  0  0  0
  7 44  1  0  0  0  0
  7 32  1  1  0  0  0
  8  9  1  6  0  0  0
  8 17  1  0  0  0  0
 11 12  1  6  0  0  0
 11 20  1  0  0  0  0
 13  6  1  0  0  0  0
 13 14  1  6  0  0  0
 15 16  1  6  0  0  0
 15 24  1  0  0  0  0
 17 26  1  0  0  0  0
 18 10  1  0  0  0  0
 18 19  1  6  0  0  0
 20 21  1  6  0  0  0
 20 29  1  0  0  0  0
 22 13  1  0  0  0  0
 22 23  1  1  0  0  0
 24 25  1  1  0  0  0
 24 33  1  0  0  0  0
 26 27  1  6  0  0  0
 26 35  1  0  0  0  0
 28  2  1  1  0  0  0
 28 18  1  0  0  0  0
 29 30  1  0  0  0  0
 29 39  1  1  0  0  0
 31 22  1  0  0  0  0
 31 32  1  1  0  0  0
 31 41  1  0  0  0  0
 33 34  1  6  0  0  0
 33 43  1  0  0  0  0
 35 36  1  0  0  0  0
 35 45  1  1  0  0  0
 37 28  1  0  0  0  0
 37 38  1  6  0  0  0
 39 40  1  0  0  0  0
 41 42  1  0  0  0  0
 41 49  1  1  0  0  0
 43 44  1  0  0  0  0
 43 51  1  1  0  0  0
 45 46  1  0  0  0  0
 47 37  1  0  0  0  0
 47 48  1  1  0  0  0
 49 50  1  0  0  0  0
 51 52  1  0  0  0  0
M  END
>  <CHROM.1>
173.39891424,148.01328138,-171.73479011,-81.27332316,72.04431700,39.85317290
-60.52114043,169.94458384,-177.52085862,170.64947348,177.62893749,-64.68349830
2.68117000,-49.59155647,10.89681086,0.87511233,0.57239564,1.61114003

>  <Name>
2fd0_lig

>  <RI>
2.00683e+07

>  <Rbt.Current_Directory>
/home/itssahil/PROJECTS/Mol_Feturizer/New_Systems/rnas/2fd0

>  <Rbt.Executable>
rbdock ($Id: //depot/dev/client3/rdock/2013.1/src/exe/rbdock.cxx#4 $)

>  <Rbt.Library>
libRbt.so (2013.1, Build901 2013/11/27)

>  <Rbt.Parameter_File>
/export/apps/rDock/src/rDock_2013.1_src/data/scripts/dock_solv.prm

>  <Rbt.Receptor>
prm/pocket_docking_4.prm

>  <SCORE>
-19.9646

>  <SCORE.INTER>
-12.7134

>  <SCORE.INTER.CONST>
1

>  <SCORE.INTER.POLAR>
-0.383093

>  <SCORE.INTER.ROT>
12

>  <SCORE.INTER.SOLV>
12.3564

>  <SCORE.INTER.VDW>
-22.9175

>  <SCORE.INTER.norm>
-0.244489

>  <SCORE.INTRA>
-7.27265

>  <SCORE.INTRA.DIHEDRAL>
-12.3189

>  <SCORE.INTRA.DIHEDRAL.0>
23.9727

>  <SCORE.INTRA.POLAR>
0

>  <SCORE.INTRA.POLAR.0>
0

>  <SCORE.INTRA.REPUL>
0

>  <SCORE.INTRA.REPUL.0>
0

>  <SCORE.INTRA.SOLV>
-2.56968

>  <SCORE.INTRA.SOLV.lig_0>
-115.028

>  <SCORE.INTRA.VDW>
0.171626

>  <SCORE.INTRA.VDW.0>
-6.82393

>  <SCORE.INTRA.norm>
-0.139859

>  <SCORE.RESTR>
0.0214727

>  <SCORE.RESTR.CAVITY>
0.0214727

>  <SCORE.RESTR.norm>
0.000412937

>  <SCORE.SYSTEM>
0

>  <SCORE.SYSTEM.CONST>
0

>  <SCORE.SYSTEM.DIHEDRAL>
0

>  <SCORE.SYSTEM.SOLV>
0

>  <SCORE.SYSTEM.norm>
0

>  <SCORE.heavy>
52

>  <SCORE.norm>
-0.383935

>  <RMSD>
2.872

$$$$
2fd0_lig
 OpenBabel11021811433D
libRbt.so/2013.1/901 2013/11/27
 52 56  0  0  0  0  0  0  0  0999 V2000
    4.7879  -49.9512   14.8752 C   0  0  2  0  0  0  0  0  0  0  0  0
    5.2747  -48.6080   15.0018 O   0  0  0  0  0  0  0  0  0  0  0  0
    6.7136  -45.6676   12.1424 C   0  0  2  0  0  0  0  0  0  0  0  0
    7.5720  -44.9600   11.1783 N   0  0  0  0  0  0  0  0  0  0  0  0
    4.1737  -49.5356   11.2687 C   0  0  1  0  0  0  0  0  0  0  0  0
    0.5756  -48.7432    8.8749 C   0  0  1  0  0  0  0  0  0  0  0  0
   -2.3588  -51.9779    6.7940 C   0  0  1  0  0  0  0  0  0  0  0  0
    3.6134  -50.1560   15.8999 C   0  0  2  0  0  0  0  0  0  0  0  0
    2.5446  -49.1871   15.7008 N   0  0  0  0  0  0  0  0  0  0  0  0
    7.4607  -45.8190   13.5396 C   0  0  0  0  0  0  0  0  0  0  0  0
    2.9512  -48.7608   11.7256 C   0  0  2  0  0  0  0  0  0  0  0  0
    2.0864  -49.5532   12.5872 O   0  0  0  0  0  0  0  0  0  0  0  0
   -0.9147  -49.3216    8.9365 C   0  0  2  0  0  0  0  0  0  0  0  0
   -0.9047  -50.7437    9.3755 N   0  0  0  0  0  0  0  0  0  0  0  0
   -2.0394  -53.0038    5.6835 C   0  0  1  0  0  0  0  0  0  0  0  0
   -1.0207  -53.9163    6.1625 O   0  0  0  0  0  0  0  0  0  0  0  0
    4.1596  -50.1119   17.3751 C   0  0  0  0  0  0  0  0  0  0  0  0
    6.5199  -46.5799   14.5910 C   0  0  2  0  0  0  0  0  0  0  0  0
    7.1885  -46.7354   15.8912 N   0  0  0  0  0  0  0  0  0  0  0  0
    2.3392  -48.2892   10.4173 C   0  0  2  0  0  0  0  0  0  0  0  0
    1.1627  -48.9905   10.1191 O   0  0  0  0  0  0  0  0  0  0  0  0
   -1.5999  -49.0415    7.5002 C   0  0  1  0  0  0  0  0  0  0  0  0
   -1.5330  -47.6268    7.2447 O   0  0  0  0  0  0  0  0  0  0  0  0
   -3.2190  -53.8468    5.1277 C   0  0  1  0  0  0  0  0  0  0  0  0
   -3.2740  -55.0720    5.8694 O   0  0  0  0  0  0  0  0  0  0  0  0
    5.2925  -51.1800   17.5173 C   0  0  2  0  0  0  0  0  0  0  0  0
    5.8023  -51.1846   18.8471 O   0  0  0  0  0  0  0  0  0  0  0  0
    6.1368  -47.9725   14.0169 C   0  0  2  0  0  0  0  0  0  0  0  0
    3.3159  -48.6233    9.2646 C   0  0  2  0  0  0  0  0  0  0  0  0
    4.4676  -49.0795    9.9597 O   0  0  0  0  0  0  0  0  0  0  0  0
   -0.7955  -49.7638    6.2979 C   0  0  2  0  0  0  0  0  0  0  0  0
   -0.9036  -51.1707    6.5854 O   0  0  0  0  0  0  0  0  0  0  0  0
   -4.6120  -53.1771    5.1690 C   0  0  2  0  0  0  0  0  0  0  0  0
   -5.2472  -53.5167    3.9170 O   0  0  0  0  0  0  0  0  0  0  0  0
    6.4358  -50.8587   16.5126 C   0  0  2  0  0  0  0  0  0  0  0  0
    5.8690  -50.8802   15.1459 O   0  0  0  0  0  0  0  0  0  0  0  0
    5.4520  -47.8817   12.6191 C   0  0  2  0  0  0  0  0  0  0  0  0
    5.1867  -49.2340   12.1753 O   0  0  0  0  0  0  0  0  0  0  0  0
    3.7195  -47.4380    8.3947 C   0  0  0  0  0  0  0  0  0  0  0  0
    2.5302  -46.9742    7.7376 O   0  0  0  0  0  0  0  0  0  0  0  0
    0.6533  -49.3464    6.4662 C   0  0  1  0  0  0  0  0  0  0  0  0
    1.3737  -49.3686    7.7163 O   0  0  0  0  0  0  0  0  0  0  0  0
   -4.4908  -51.6738    5.4041 C   0  0  2  0  0  0  0  0  0  0  0  0
   -3.6637  -51.2997    6.5405 O   0  0  0  0  0  0  0  0  0  0  0  0
    7.5382  -51.8676   16.5736 C   0  0  0  0  0  0  0  0  0  0  0  0
    8.5448  -51.4646   15.6848 O   0  0  0  0  0  0  0  0  0  0  0  0
    6.3853  -47.1197   11.6087 C   0  0  1  0  0  0  0  0  0  0  0  0
    5.6870  -47.0082   10.3205 O   0  0  0  0  0  0  0  0  0  0  0  0
    1.6112  -49.9930    5.4038 C   0  0  0  0  0  0  0  0  0  0  0  0
    3.0269  -49.5750    5.5471 N   0  0  0  0  0  0  0  0  0  0  0  0
   -5.7171  -50.7688    5.4993 C   0  0  0  0  0  0  0  0  0  0  0  0
   -5.3089  -49.3747    5.6556 O   0  0  0  0  0  0  0  0  0  0  0  0
  1  2  1  1  0  0  0
  1  8  1  0  0  0  0
  1 36  1  0  0  0  0
  3  4  1  6  0  0  0
  3 10  1  0  0  0  0
  3 47  1  0  0  0  0
  5 11  1  0  0  0  0
  5 30  1  0  0  0  0
  5 38  1  1  0  0  0
  6 21  1  1  0  0  0
  6 42  1  0  0  0  0
  7 15  1  0  0  0  0
  7 44  1  0  0  0  0
  7 32  1  6  0  0  0
  8  9  1  1  0  0  0
  8 17  1  0  0  0  0
 11 12  1  6  0  0  0
 11 20  1  0  0  0  0
 13  6  1  0  0  0  0
 13 14  1  6  0  0  0
 15 16  1  1  0  0  0
 15 24  1  0  0  0  0
 17 26  1  0  0  0  0
 18 10  1  0  0  0  0
 18 19  1  1  0  0  0
 20 21  1  6  0  0  0
 20 29  1  0  0  0  0
 22 13  1  0  0  0  0
 22 23  1  6  0  0  0
 24 25  1  1  0  0  0
 24 33  1  0  0  0  0
 26 27  1  1  0  0  0
 26 35  1  0  0  0  0
 28  2  1  1  0  0  0
 28 18  1  0  0  0  0
 29 30  1  0  0  0  0
 29 39  1  1  0  0  0
 31 22  1  0  0  0  0
 31 32  1  1  0  0  0
 31 41  1  0  0  0  0
 33 34  1  6  0  0  0
 33 43  1  0  0  0  0
 35 36  1  0  0  0  0
 35 45  1  6  0  0  0
 37 28  1  0  0  0  0
 37 38  1  6  0  0  0
 39 40  1  0  0  0  0
 41 42  1  0  0  0  0
 41 49  1  6  0  0  0
 43 44  1  0  0  0  0
 43 51  1  1  0  0  0
 45 46  1  0  0  0  0
 47 37  1  0  0  0  0
 47 48  1  6  0  0  0
 49 50  1  0  0  0  0
 51 52  1  0  0  0  0
M  END
>  <CHROM.1>
-165.31800947,-45.24735854,-164.63057300,123.88173268,-173.77620702,-175.46534526
-64.25864219,55.89777059,-177.30617094,154.90034652,179.12534545,-177.01376059
2.10069463,-49.71923147,10.36770996,0.45678537,0.69796752,2.20943108

>  <Name>
2fd0_lig

>  <RI>
2.89522e+07

>  <Rbt.Current_Directory>
/home/itssahil/PROJECTS/Mol_Feturizer/New_Systems/rnas/2fd0

>  <Rbt.Executable>
rbdock ($Id: //depot/dev/client3/rdock/2013.1/src/exe/rbdock.cxx#4 $)

>  <Rbt.Library>
libRbt.so (2013.1, Build901 2013/11/27)

>  <Rbt.Parameter_File>
/export/apps/rDock/src/rDock_2013.1_src/data/scripts/dock_solv.prm

>  <Rbt.Receptor>
prm/pocket_docking_2.prm

>  <SCORE>
-19.202

>  <SCORE.INTER>
-22.2267

>  <SCORE.INTER.CONST>
1

>  <SCORE.INTER.POLAR>
-1.94292

>  <SCORE.INTER.ROT>
12

>  <SCORE.INTER.SOLV>
22.7164

>  <SCORE.INTER.VDW>
-27.5136

>  <SCORE.INTER.norm>
-0.427437

>  <SCORE.INTRA>
-0.0430716

>  <SCORE.INTRA.DIHEDRAL>
-8.86778

>  <SCORE.INTRA.DIHEDRAL.0>
23.9727

>  <SCORE.INTRA.POLAR>
0

>  <SCORE.INTRA.POLAR.0>
0

>  <SCORE.INTRA.REPUL>
0

>  <SCORE.INTRA.REPUL.0>
0

>  <SCORE.INTRA.SOLV>
0.299817

>  <SCORE.INTRA.SOLV.lig_0>
-115.028

>  <SCORE.INTRA.VDW>
4.24091

>  <SCORE.INTRA.VDW.0>
-6.82393

>  <SCORE.INTRA.norm>
-0.000828299

>  <SCORE.RESTR>
3.06775

>  <SCORE.RESTR.CAVITY>
3.06775

>  <SCORE.RESTR.norm>
0.0589953

>  <SCORE.SYSTEM>
0

>  <SCORE.SYSTEM.CONST>
0

>  <SCORE.SYSTEM.DIHEDRAL>
0

>  <SCORE.SYSTEM.SOLV>
0

>  <SCORE.SYSTEM.norm>
0

>  <SCORE.heavy>
52

>  <SCORE.norm>
-0.36927

>  <RMSD>
2.884

$$$$
2fd0_lig
 OpenBabel11021811433D
libRbt.so/2013.1/901 2013/11/27
 52 56  0  0  0  0  0  0  0  0999 V2000
    4.0681  -49.5221   13.2207 C   0  0  2  0  0  0  0  0  0  0  0  0
    3.7156  -48.1326   13.1765 O   0  0  0  0  0  0  0  0  0  0  0  0
    4.6593  -44.5220   10.9481 C   0  0  2  0  0  0  0  0  0  0  0  0
    5.4152  -43.4540   10.2736 N   0  0  0  0  0  0  0  0  0  0  0  0
    3.4729  -49.2204    9.9202 C   0  0  1  0  0  0  0  0  0  0  0  0
    1.2478  -51.2881    6.6028 C   0  0  1  0  0  0  0  0  0  0  0  0
   -3.3962  -52.4130    5.0918 C   0  0  1  0  0  0  0  0  0  0  0  0
    2.9225  -50.3053   13.9594 C   0  0  2  0  0  0  0  0  0  0  0  0
    1.6302  -50.1096   13.3171 N   0  0  0  0  0  0  0  0  0  0  0  0
    5.0916  -44.6238   12.4764 C   0  0  0  0  0  0  0  0  0  0  0  0
    3.0840  -48.7171    8.5422 C   0  0  2  0  0  0  0  0  0  0  0  0
    1.9388  -47.8200    8.5856 O   0  0  0  0  0  0  0  0  0  0  0  0
    0.1305  -50.7407    5.5971 C   0  0  2  0  0  0  0  0  0  0  0  0
   -1.0270  -50.1895    6.3532 N   0  0  0  0  0  0  0  0  0  0  0  0
   -4.1622  -52.0103    6.3720 C   0  0  1  0  0  0  0  0  0  0  0  0
   -3.6397  -50.7490    6.8578 O   0  0  0  0  0  0  0  0  0  0  0  0
    2.8743  -49.9007   15.4794 C   0  0  0  0  0  0  0  0  0  0  0  0
    4.2593  -45.7797   13.2116 C   0  0  2  0  0  0  0  0  0  0  0  0
    4.6422  -45.8965   14.6263 N   0  0  0  0  0  0  0  0  0  0  0  0
    2.8967  -50.0011    7.7517 C   0  0  2  0  0  0  0  0  0  0  0  0
    1.5420  -50.2507    7.4922 O   0  0  0  0  0  0  0  0  0  0  0  0
   -0.2169  -51.9357    4.5664 C   0  0  1  0  0  0  0  0  0  0  0  0
    1.0056  -52.3338    3.9198 O   0  0  0  0  0  0  0  0  0  0  0  0
   -5.7067  -51.8858    6.2720 C   0  0  1  0  0  0  0  0  0  0  0  0
   -6.0213  -50.5187    5.9784 O   0  0  0  0  0  0  0  0  0  0  0  0
    4.2869  -50.1450   16.1034 C   0  0  2  0  0  0  0  0  0  0  0  0
    4.2804  -49.8073   17.4869 O   0  0  0  0  0  0  0  0  0  0  0  0
    4.5038  -47.1282   12.4785 C   0  0  2  0  0  0  0  0  0  0  0  0
    3.3712  -51.1909    8.6198 C   0  0  2  0  0  0  0  0  0  0  0  0
    3.9538  -50.5411    9.7404 O   0  0  0  0  0  0  0  0  0  0  0  0
   -0.7802  -53.2449    5.3298 C   0  0  2  0  0  0  0  0  0  0  0  0
   -2.0061  -52.8051    5.9441 O   0  0  0  0  0  0  0  0  0  0  0  0
   -6.3954  -52.7910    5.2246 C   0  0  2  0  0  0  0  0  0  0  0  0
   -7.5969  -53.2805    5.8594 O   0  0  0  0  0  0  0  0  0  0  0  0
    5.3408  -49.2820   15.3521 C   0  0  2  0  0  0  0  0  0  0  0  0
    5.3271  -49.6748   13.9256 O   0  0  0  0  0  0  0  0  0  0  0  0
    4.1491  -47.0637   10.9616 C   0  0  2  0  0  0  0  0  0  0  0  0
    4.4597  -48.3555   10.3862 O   0  0  0  0  0  0  0  0  0  0  0  0
    4.4306  -52.0789    7.9766 C   0  0  0  0  0  0  0  0  0  0  0  0
    3.8696  -52.5869    6.7566 O   0  0  0  0  0  0  0  0  0  0  0  0
    0.2272  -53.5460    6.4234 C   0  0  1  0  0  0  0  0  0  0  0  0
    0.7770  -52.5634    7.3258 O   0  0  0  0  0  0  0  0  0  0  0  0
   -5.4568  -53.9000    4.7567 C   0  0  2  0  0  0  0  0  0  0  0  0
   -4.1470  -53.4447    4.3180 O   0  0  0  0  0  0  0  0  0  0  0  0
    6.7236  -49.4978   15.8796 C   0  0  0  0  0  0  0  0  0  0  0  0
    6.7406  -49.1061   17.2256 O   0  0  0  0  0  0  0  0  0  0  0  0
    4.9653  -45.9147   10.2642 C   0  0  1  0  0  0  0  0  0  0  0  0
    4.5675  -45.8502    8.8511 O   0  0  0  0  0  0  0  0  0  0  0  0
   -0.1751  -54.7740    7.3146 C   0  0  0  0  0  0  0  0  0  0  0  0
    0.8729  -55.1734    8.2850 N   0  0  0  0  0  0  0  0  0  0  0  0
   -5.8808  -54.9316    3.7137 C   0  0  0  0  0  0  0  0  0  0  0  0
   -7.0598  -55.6627    4.1719 O   0  0  0  0  0  0  0  0  0  0  0  0
  1  2  1  1  0  0  0
  1  8  1  0  0  0  0
  1 36  1  0  0  0  0
  3  4  1  6  0  0  0
  3 10  1  0  0  0  0
  3 47  1  0  0  0  0
  5 11  1  0  0  0  0
  5 30  1  0  0  0  0
  5 38  1  6  0  0  0
  6 21  1  1  0  0  0
  6 42  1  0  0  0  0
  7 15  1  0  0  0  0
  7 44  1  0  0  0  0
  7 32  1  1  0  0  0
  8  9  1  6  0  0  0
  8 17  1  0  0  0  0
 11 12  1  1  0  0  0
 11 20  1  0  0  0  0
 13  6  1  0  0  0  0
 13 14  1  1  0  0  0
 15 16  1  6  0  0  0
 15 24  1  0  0  0  0
 17 26  1  0  0  0  0
 18 10  1  0  0  0  0
 18 19  1  1  0  0  0
 20 21  1  1  0  0  0
 20 29  1  0  0  0  0
 22 13  1  0  0  0  0
 22 23  1  1  0  0  0
 24 25  1  6  0  0  0
 24 33  1  0  0  0  0
 26 27  1  1  0  0  0
 26 35  1  0  0  0  0
 28  2  1  1  0  0  0
 28 18  1  0  0  0  0
 29 30  1  0  0  0  0
 29 39  1  6  0  0  0
 31 22  1  0  0  0  0
 31 32  1  1  0  0  0
 31 41  1  0  0  0  0
 33 34  1  1  0  0  0
 33 43  1  0  0  0  0
 35 36  1  0  0  0  0
 35 45  1  1  0  0  0
 37 28  1  0  0  0  0
 37 38  1  6  0  0  0
 39 40  1  0  0  0  0
 41 42  1  0  0  0  0
 41 49  1  1  0  0  0
 43 44  1  0  0  0  0
 43 51  1  6  0  0  0
 45 46  1  0  0  0  0
 47 37  1  0  0  0  0
 47 48  1  6  0  0  0
 49 50  1  0  0  0  0
 51 52  1  0  0  0  0
M  END
>  <CHROM.1>
-175.36722059,80.08932193,-134.52471750,-177.66732802,170.55911064,-152.06558999
-58.77497295,69.48935744,-61.76768337,111.86852761,173.38538846,-58.71259980
1.19972969,-50.34765660,9.23931103,0.44154632,0.73766770,1.96985191

>  <Name>
2fd0_lig

>  <RI>
2.00683e+07

>  <Rbt.Current_Directory>
/home/itssahil/PROJECTS/Mol_Feturizer/New_Systems/rnas/2fd0

>  <Rbt.Executable>
rbdock ($Id: //depot/dev/client3/rdock/2013.1/src/exe/rbdock.cxx#4 $)

>  <Rbt.Library>
libRbt.so (2013.1, Build901 2013/11/27)

>  <Rbt.Parameter_File>
/export/apps/rDock/src/rDock_2013.1_src/data/scripts/dock_solv.prm

>  <Rbt.Receptor>
prm/pocket_docking_4.prm

>  <SCORE>
-20.4878

>  <SCORE.INTER>
-18.8064

>  <SCORE.INTER.CONST>
1

>  <SCORE.INTER.POLAR>
-2.5589

>  <SCORE.INTER.ROT>
12

>  <SCORE.INTER.SOLV>
13.7771

>  <SCORE.INTER.VDW>
-20.2003

>  <SCORE.INTER.norm>
-0.361662

>  <SCORE.INTRA>
-1.68136

>  <SCORE.INTRA.DIHEDRAL>
-3.1037

>  <SCORE.INTRA.DIHEDRAL.0>
23.9727

>  <SCORE.INTRA.POLAR>
0

>  <SCORE.INTRA.POLAR.0>
0

>  <SCORE.INTRA.REPUL>
0

>  <SCORE.INTRA.REPUL.0>
0

>  <SCORE.INTRA.SOLV>
-1.15776

>  <SCORE.INTRA.SOLV.lig_0>
-115.028

>  <SCORE.INTRA.VDW>
0.449375

>  <SCORE.INTRA.VDW.0>
-6.82393

>  <SCORE.INTRA.norm>
-0.0323338

>  <SCORE.RESTR>
0

>  <SCORE.RESTR.CAVITY>
0

>  <SCORE.RESTR.norm>
0

>  <SCORE.SYSTEM>
0

>  <SCORE.SYSTEM.CONST>
0

>  <SCORE.SYSTEM.DIHEDRAL>
0

>  <SCORE.SYSTEM.SOLV>
0

>  <SCORE.SYSTEM.norm>
0

>  <SCORE.heavy>
52

>  <SCORE.norm>
-0.393995

>  <RMSD>
2.943

$$$$
2fd0_lig
 OpenBabel11021811433D
libRbt.so/2013.1/901 2013/11/27
 52 56  0  0  0  0  0  0  0  0999 V2000
    4.2393  -46.8514   14.2868 C   0  0  2  0  0  0  0  0  0  0  0  0
    5.5212  -46.2918   14.6039 O   0  0  0  0  0  0  0  0  0  0  0  0
    7.9685  -44.1714   11.7043 C   0  0  2  0  0  0  0  0  0  0  0  0
    9.0290  -43.8620   10.7315 N   0  0  0  0  0  0  0  0  0  0  0  0
    4.3394  -46.8412   10.6833 C   0  0  1  0  0  0  0  0  0  0  0  0
    1.7435  -49.5687    8.6833 C   0  0  1  0  0  0  0  0  0  0  0  0
   -1.8139  -51.2547    5.6903 C   0  0  1  0  0  0  0  0  0  0  0  0
    3.2317  -46.4738   15.4329 C   0  0  2  0  0  0  0  0  0  0  0  0
    3.1446  -45.0330   15.6259 N   0  0  0  0  0  0  0  0  0  0  0  0
    8.6055  -44.5786   13.1048 C   0  0  0  0  0  0  0  0  0  0  0  0
    3.6400  -48.1876   10.6436 C   0  0  2  0  0  0  0  0  0  0  0  0
    4.3261  -49.1403    9.7834 O   0  0  0  0  0  0  0  0  0  0  0  0
    1.4111  -49.7318    7.1269 C   0  0  2  0  0  0  0  0  0  0  0  0
    0.2935  -48.8304    6.7348 N   0  0  0  0  0  0  0  0  0  0  0  0
   -2.3104  -52.7051    5.8849 C   0  0  1  0  0  0  0  0  0  0  0  0
   -3.4768  -52.6935    6.7447 O   0  0  0  0  0  0  0  0  0  0  0  0
    3.6213  -47.2086   16.7689 C   0  0  0  0  0  0  0  0  0  0  0  0
    7.4488  -44.9043   14.1656 C   0  0  2  0  0  0  0  0  0  0  0  0
    8.0115  -45.2864   15.4691 N   0  0  0  0  0  0  0  0  0  0  0  0
    2.2222  -47.8223   10.2377 C   0  0  2  0  0  0  0  0  0  0  0  0
    1.9515  -48.2064    8.9171 O   0  0  0  0  0  0  0  0  0  0  0  0
    1.1670  -51.3047    6.8487 C   0  0  1  0  0  0  0  0  0  0  0  0
    2.3428  -52.0182    7.2723 O   0  0  0  0  0  0  0  0  0  0  0  0
   -2.6597  -53.5187    4.6093 C   0  0  1  0  0  0  0  0  0  0  0  0
   -4.0611  -53.3598    4.3544 O   0  0  0  0  0  0  0  0  0  0  0  0
    3.6865  -48.7456   16.4895 C   0  0  2  0  0  0  0  0  0  0  0  0
    4.0193  -49.4501   17.6816 O   0  0  0  0  0  0  0  0  0  0  0  0
    6.5574  -46.0505   13.6113 C   0  0  2  0  0  0  0  0  0  0  0  0
    2.0848  -46.2811   10.2501 C   0  0  2  0  0  0  0  0  0  0  0  0
    3.3194  -45.8668   10.8173 O   0  0  0  0  0  0  0  0  0  0  0  0
   -0.0631  -51.8870    7.7218 C   0  0  2  0  0  0  0  0  0  0  0  0
   -1.2143  -51.1595    7.2536 O   0  0  0  0  0  0  0  0  0  0  0  0
   -1.8758  -53.1466    3.3296 C   0  0  2  0  0  0  0  0  0  0  0  0
   -1.5600  -54.4002    2.6853 O   0  0  0  0  0  0  0  0  0  0  0  0
    4.7524  -49.0274   15.3922 C   0  0  2  0  0  0  0  0  0  0  0  0
    4.3614  -48.2924   14.1690 O   0  0  0  0  0  0  0  0  0  0  0  0
    5.9546  -45.7233   12.2112 C   0  0  2  0  0  0  0  0  0  0  0  0
    5.1880  -46.8759   11.7867 O   0  0  0  0  0  0  0  0  0  0  0  0
    0.9535  -45.7394   11.1169 C   0  0  0  0  0  0  0  0  0  0  0  0
    0.9753  -44.3093   10.9917 O   0  0  0  0  0  0  0  0  0  0  0  0
    0.2199  -51.4737    9.1538 C   0  0  1  0  0  0  0  0  0  0  0  0
    0.6198  -50.1486    9.5617 O   0  0  0  0  0  0  0  0  0  0  0  0
   -0.6469  -52.3057    3.6646 C   0  0  2  0  0  0  0  0  0  0  0  0
   -0.9109  -51.1497    4.5068 O   0  0  0  0  0  0  0  0  0  0  0  0
    4.8388  -50.4813   15.0522 C   0  0  0  0  0  0  0  0  0  0  0  0
    3.6610  -50.8409   14.3820 O   0  0  0  0  0  0  0  0  0  0  0  0
    7.1050  -45.3931   11.1913 C   0  0  1  0  0  0  0  0  0  0  0  0
    6.4981  -45.0400    9.9004 O   0  0  0  0  0  0  0  0  0  0  0  0
   -0.9025  -51.9150   10.1587 C   0  0  0  0  0  0  0  0  0  0  0  0
   -1.0655  -53.3855   10.2599 N   0  0  0  0  0  0  0  0  0  0  0  0
    0.3008  -51.7921    2.5830 C   0  0  0  0  0  0  0  0  0  0  0  0
   -0.4436  -51.0610    1.5603 O   0  0  0  0  0  0  0  0  0  0  0  0
  1  2  1  1  0  0  0
  1  8  1  0  0  0  0
  1 36  1  0  0  0  0
  3  4  1  6  0  0  0
  3 10  1  0  0  0  0
  3 47  1  0  0  0  0
  5 11  1  0  0  0  0
  5 30  1  0  0  0  0
  5 38  1  1  0  0  0
  6 21  1  1  0  0  0
  6 42  1  0  0  0  0
  7 15  1  0  0  0  0
  7 44  1  0  0  0  0
  7 32  1  1  0  0  0
  8  9  1  1  0  0  0
  8 17  1  0  0  0  0
 11 12  1  6  0  0  0
 11 20  1  0  0  0  0
 13  6  1  0  0  0  0
 13 14  1  1  0  0  0
 15 16  1  1  0  0  0
 15 24  1  0  0  0  0
 17 26  1  0  0  0  0
 18 10  1  0  0  0  0
 18 19  1  1  0  0  0
 20 21  1  6  0  0  0
 20 29  1  0  0  0  0
 22 13  1  0  0  0  0
 22 23  1  1  0  0  0
 24 25  1  6  0  0  0
 24 33  1  0  0  0  0
 26 27  1  1  0  0  0
 26 35  1  0  0  0  0
 28  2  1  1  0  0  0
 28 18  1  0  0  0  0
 29 30  1  0  0  0  0
 29 39  1  1  0  0  0
 31 22  1  0  0  0  0
 31 32  1  6  0  0  0
 31 41  1  0  0  0  0
 33 34  1  1  0  0  0
 33 43  1  0  0  0  0
 35 36  1  0  0  0  0
 35 45  1  6  0  0  0
 37 28  1  0  0  0  0
 37 38  1  6  0  0  0
 39 40  1  0  0  0  0
 41 42  1  0  0  0  0
 41 49  1  1  0  0  0
 43 44  1  0  0  0  0
 43 51  1  6  0  0  0
 45 46  1  0  0  0  0
 47 37  1  0  0  0  0
 47 48  1  6  0  0  0
 49 50  1  0  0  0  0
 51 52  1  0  0  0  0
M  END
>  <CHROM.1>
-158.98911920,-175.23813336,178.19722270,69.72220905,74.85571715,154.37217238
-179.41717205,64.01713700,69.51312207,169.25283689,62.83839711,53.55719970
2.39261986,-48.90973386,10.03436932,0.67864563,0.79233143,1.70245692

>  <Name>
2fd0_lig

>  <RI>
2.00683e+07

>  <Rbt.Current_Directory>
/home/itssahil/PROJECTS/Mol_Feturizer/New_Systems/rnas/2fd0

>  <Rbt.Executable>
rbdock ($Id: //depot/dev/client3/rdock/2013.1/src/exe/rbdock.cxx#4 $)

>  <Rbt.Library>
libRbt.so (2013.1, Build901 2013/11/27)

>  <Rbt.Parameter_File>
/export/apps/rDock/src/rDock_2013.1_src/data/scripts/dock_solv.prm

>  <Rbt.Receptor>
prm/pocket_docking_4.prm

>  <SCORE>
-12.5157

>  <SCORE.INTER>
-4.69752

>  <SCORE.INTER.CONST>
1

>  <SCORE.INTER.POLAR>
-0.984896

>  <SCORE.INTER.ROT>
12

>  <SCORE.INTER.SOLV>
19.6575

>  <SCORE.INTER.VDW>
-18.0012

>  <SCORE.INTER.norm>
-0.0903369

>  <SCORE.INTRA>
-7.93414

>  <SCORE.INTRA.DIHEDRAL>
-14.8646

>  <SCORE.INTRA.DIHEDRAL.0>
23.9727

>  <SCORE.INTRA.POLAR>
0

>  <SCORE.INTRA.POLAR.0>
0

>  <SCORE.INTRA.REPUL>
0

>  <SCORE.INTRA.REPUL.0>
0

>  <SCORE.INTRA.SOLV>
-4.22983

>  <SCORE.INTRA.SOLV.lig_0>
-115.028

>  <SCORE.INTRA.VDW>
1.61308

>  <SCORE.INTRA.VDW.0>
-6.82393

>  <SCORE.INTRA.norm>
-0.15258

>  <SCORE.RESTR>
0.115983

>  <SCORE.RESTR.CAVITY>
0.115983

>  <SCORE.RESTR.norm>
0.00223043

>  <SCORE.SYSTEM>
0

>  <SCORE.SYSTEM.CONST>
0

>  <SCORE.SYSTEM.DIHEDRAL>
0

>  <SCORE.SYSTEM.SOLV>
0

>  <SCORE.SYSTEM.norm>
0

>  <SCORE.heavy>
52

>  <SCORE.norm>
-0.240686

>  <RMSD>
2.971

$$$$
2fd0_lig
 OpenBabel11021811433D
libRbt.so/2013.1/901 2013/11/27
 52 56  0  0  0  0  0  0  0  0999 V2000
    5.7668  -48.2780   17.0169 C   0  0  2  0  0  0  0  0  0  0  0  0
    6.3111  -48.4984   15.7084 O   0  0  0  0  0  0  0  0  0  0  0  0
    7.2242  -44.4844   14.3133 C   0  0  2  0  0  0  0  0  0  0  0  0
    7.7898  -43.3712   13.5335 N   0  0  0  0  0  0  0  0  0  0  0  0
    4.1617  -47.0299   12.3120 C   0  0  1  0  0  0  0  0  0  0  0  0
    2.6354  -48.5826    8.6946 C   0  0  1  0  0  0  0  0  0  0  0  0
   -0.8612  -51.3144    6.4292 C   0  0  1  0  0  0  0  0  0  0  0  0
    5.3018  -49.6601   17.6043 C   0  0  2  0  0  0  0  0  0  0  0  0
    6.3900  -50.6272   17.6422 N   0  0  0  0  0  0  0  0  0  0  0  0
    8.3902  -45.3723   14.9339 C   0  0  0  0  0  0  0  0  0  0  0  0
    3.9132  -48.2195   11.4028 C   0  0  2  0  0  0  0  0  0  0  0  0
    4.8648  -48.2817   10.3035 O   0  0  0  0  0  0  0  0  0  0  0  0
    2.1470  -47.9774    7.2965 C   0  0  2  0  0  0  0  0  0  0  0  0
    0.7165  -47.5735    7.3741 N   0  0  0  0  0  0  0  0  0  0  0  0
   -1.9321  -50.3391    5.8908 C   0  0  1  0  0  0  0  0  0  0  0  0
   -1.7160  -50.1371    4.4722 O   0  0  0  0  0  0  0  0  0  0  0  0
    4.0712  -50.2134   16.7943 C   0  0  0  0  0  0  0  0  0  0  0  0
    7.7721  -46.5771   15.7916 C   0  0  2  0  0  0  0  0  0  0  0  0
    8.8299  -47.4155   16.3746 N   0  0  0  0  0  0  0  0  0  0  0  0
    2.4541  -48.0511   11.0140 C   0  0  2  0  0  0  0  0  0  0  0  0
    2.3226  -47.6418    9.6799 O   0  0  0  0  0  0  0  0  0  0  0  0
    2.5032  -49.0607    6.1518 C   0  0  1  0  0  0  0  0  0  0  0  0
    3.9171  -49.3222    6.2125 O   0  0  0  0  0  0  0  0  0  0  0  0
   -3.4213  -50.7247    6.1015 C   0  0  1  0  0  0  0  0  0  0  0  0
   -3.8644  -51.4291    4.9346 O   0  0  0  0  0  0  0  0  0  0  0  0
    2.9431  -49.1308   16.8039 C   0  0  2  0  0  0  0  0  0  0  0  0
    1.8014  -49.6015   16.0946 O   0  0  0  0  0  0  0  0  0  0  0  0
    6.8534  -47.4346   14.8770 C   0  0  2  0  0  0  0  0  0  0  0  0
    1.8468  -46.9024   11.8544 C   0  0  2  0  0  0  0  0  0  0  0  0
    2.8897  -46.6087   12.7729 O   0  0  0  0  0  0  0  0  0  0  0  0
    1.7631  -50.4750    6.4097 C   0  0  2  0  0  0  0  0  0  0  0  0
    0.3587  -50.1686    6.3229 O   0  0  0  0  0  0  0  0  0  0  0  0
   -3.7312  -51.5838    7.3491 C   0  0  2  0  0  0  0  0  0  0  0  0
   -4.9546  -51.0482    7.8995 O   0  0  0  0  0  0  0  0  0  0  0  0
    3.4739  -47.8246   16.1467 C   0  0  2  0  0  0  0  0  0  0  0  0
    4.6463  -47.3612   16.9215 O   0  0  0  0  0  0  0  0  0  0  0  0
    5.7268  -46.5976   14.1979 C   0  0  2  0  0  0  0  0  0  0  0  0
    4.9735  -47.4923   13.3447 O   0  0  0  0  0  0  0  0  0  0  0  0
    0.5988  -47.2717   12.6484 C   0  0  0  0  0  0  0  0  0  0  0  0
    0.0164  -46.0440   13.1119 O   0  0  0  0  0  0  0  0  0  0  0  0
    2.0877  -50.8513    7.8430 C   0  0  1  0  0  0  0  0  0  0  0  0
    1.9914  -49.9540    8.9690 O   0  0  0  0  0  0  0  0  0  0  0  0
   -2.5620  -51.5677    8.3301 C   0  0  2  0  0  0  0  0  0  0  0  0
   -1.2705  -51.8900    7.7438 O   0  0  0  0  0  0  0  0  0  0  0  0
    2.4505  -46.7339   16.1569 C   0  0  0  0  0  0  0  0  0  0  0  0
    1.3282  -47.1854   15.4482 O   0  0  0  0  0  0  0  0  0  0  0  0
    6.3546  -45.4139   13.3747 C   0  0  1  0  0  0  0  0  0  0  0  0
    5.2639  -44.6189   12.7935 O   0  0  0  0  0  0  0  0  0  0  0  0
    1.4105  -52.1919    8.2996 C   0  0  0  0  0  0  0  0  0  0  0  0
    2.0860  -53.4061    7.7810 N   0  0  0  0  0  0  0  0  0  0  0  0
   -2.5985  -52.3439    9.6446 C   0  0  0  0  0  0  0  0  0  0  0  0
   -1.4890  -51.9393   10.5048 O   0  0  0  0  0  0  0  0  0  0  0  0
  1  2  1  6  0  0  0
  1  8  1  0  0  0  0
  1 36  1  0  0  0  0
  3  4  1  6  0  0  0
  3 10  1  0  0  0  0
  3 47  1  0  0  0  0
  5 11  1  0  0  0  0
  5 30  1  0  0  0  0
  5 38  1  1  0  0  0
  6 21  1  1  0  0  0
  6 42  1  0  0  0  0
  7 15  1  0  0  0  0
  7 44  1  0  0  0  0
  7 32  1  1  0  0  0
  8  9  1  6  0  0  0
  8 17  1  0  0  0  0
 11 12  1  6  0  0  0
 11 20  1  0  0  0  0
 13  6  1  0  0  0  0
 13 14  1  1  0  0  0
 15 16  1  6  0  0  0
 15 24  1  0  0  0  0
 17 26  1  0  0  0  0
 18 10  1  0  0  0  0
 18 19  1  6  0  0  0
 20 21  1  6  0  0  0
 20 29  1  0  0  0  0
 22 13  1  0  0  0  0
 22 23  1  1  0  0  0
 24 25  1  6  0  0  0
 24 33  1  0  0  0  0
 26 27  1  6  0  0  0
 26 35  1  0  0  0  0
 28  2  1  1  0  0  0
 28 18  1  0  0  0  0
 29 30  1  0  0  0  0
 29 39  1  1  0  0  0
 31 22  1  0  0  0  0
 31 32  1  1  0  0  0
 31 41  1  0  0  0  0
 33 34  1  1  0  0  0
 33 43  1  0  0  0  0
 35 36  1  0  0  0  0
 35 45  1  1  0  0  0
 37 28  1  0  0  0  0
 37 38  1  6  0  0  0
 39 40  1  0  0  0  0
 41 42  1  0  0  0  0
 41 49  1  1  0  0  0
 43 44  1  0  0  0  0
 43 51  1  1  0  0  0
 45 46  1  0  0  0  0
 47 37  1  0  0  0  0
 47 48  1  1  0  0  0
 49 50  1  0  0  0  0
 51 52  1  0  0  0  0
M  END
>  <CHROM.1>
-179.26725089,162.39079581,169.53680828,-165.98944930,70.63427940,45.99549673
-167.40893417,176.33612189,-59.56386012,-160.93841322,77.09763175,-168.31898100
2.44509406,-48.73667190,11.35263075,0.77901446,0.56071996,1.65480379

>  <Name>
2fd0_lig

>  <RI>
2.00683e+07

>  <Rbt.Current_Directory>
/home/itssahil/PROJECTS/Mol_Feturizer/New_Systems/rnas/2fd0

>  <Rbt.Executable>
rbdock ($Id: //depot/dev/client3/rdock/2013.1/src/exe/rbdock.cxx#4 $)

>  <Rbt.Library>
libRbt.so (2013.1, Build901 2013/11/27)

>  <Rbt.Parameter_File>
/export/apps/rDock/src/rDock_2013.1_src/data/scripts/dock_solv.prm

>  <Rbt.Receptor>
prm/pocket_docking_4.prm

>  <SCORE>
-17.7627

>  <SCORE.INTER>
-12.1793

>  <SCORE.INTER.CONST>
1

>  <SCORE.INTER.POLAR>
-0.495376

>  <SCORE.INTER.ROT>
12

>  <SCORE.INTER.SOLV>
11.9523

>  <SCORE.INTER.VDW>
-22.0524

>  <SCORE.INTER.norm>
-0.234217

>  <SCORE.INTRA>
-5.58344

>  <SCORE.INTRA.DIHEDRAL>
-14.6945

>  <SCORE.INTRA.DIHEDRAL.0>
23.9727

>  <SCORE.INTRA.POLAR>
0

>  <SCORE.INTRA.POLAR.0>
0

>  <SCORE.INTRA.REPUL>
0.00731009

>  <SCORE.INTRA.REPUL.0>
0

>  <SCORE.INTRA.SOLV>
-1.87022

>  <SCORE.INTRA.SOLV.lig_0>
-115.028

>  <SCORE.INTRA.VDW>
2.66235

>  <SCORE.INTRA.VDW.0>
-6.82393

>  <SCORE.INTRA.norm>
-0.107374

>  <SCORE.RESTR>
0

>  <SCORE.RESTR.CAVITY>
0

>  <SCORE.RESTR.norm>
0

>  <SCORE.SYSTEM>
0

>  <SCORE.SYSTEM.CONST>
0

>  <SCORE.SYSTEM.DIHEDRAL>
0

>  <SCORE.SYSTEM.SOLV>
0

>  <SCORE.SYSTEM.norm>
0

>  <SCORE.heavy>
52

>  <SCORE.norm>
-0.341591

>  <RMSD>
3.012

$$$$
2fd0_lig
 OpenBabel11021811433D
libRbt.so/2013.1/901 2013/11/27
 52 56  0  0  0  0  0  0  0  0999 V2000
    1.8780  -49.1151   13.8636 C   0  0  2  0  0  0  0  0  0  0  0  0
    2.2525  -47.7469   13.6520 O   0  0  0  0  0  0  0  0  0  0  0  0
    5.2128  -45.6735   11.2375 C   0  0  2  0  0  0  0  0  0  0  0  0
    6.5036  -45.1953   10.7157 N   0  0  0  0  0  0  0  0  0  0  0  0
    2.5978  -49.8939   11.0479 C   0  0  1  0  0  0  0  0  0  0  0  0
    0.6019  -51.6957    7.3651 C   0  0  1  0  0  0  0  0  0  0  0  0
   -2.8431  -50.8903    3.4264 C   0  0  1  0  0  0  0  0  0  0  0  0
    0.8180  -49.1698   15.0233 C   0  0  2  0  0  0  0  0  0  0  0  0
   -0.3458  -48.3435   14.7339 N   0  0  0  0  0  0  0  0  0  0  0  0
    5.0638  -45.2926   12.7756 C   0  0  0  0  0  0  0  0  0  0  0  0
    2.5886  -49.5351    9.5732 C   0  0  2  0  0  0  0  0  0  0  0  0
    1.7209  -48.4024    9.2866 O   0  0  0  0  0  0  0  0  0  0  0  0
    1.0178  -50.9685    6.0021 C   0  0  2  0  0  0  0  0  0  0  0  0
    0.3884  -49.6225    5.9158 N   0  0  0  0  0  0  0  0  0  0  0  0
   -3.2969  -49.5714    4.0915 C   0  0  1  0  0  0  0  0  0  0  0  0
   -2.3554  -48.5233    3.7522 O   0  0  0  0  0  0  0  0  0  0  0  0
    1.4819  -48.7657   16.3916 C   0  0  0  0  0  0  0  0  0  0  0  0
    3.6531  -45.8045   13.3387 C   0  0  2  0  0  0  0  0  0  0  0  0
    3.4911  -45.4671   14.7606 N   0  0  0  0  0  0  0  0  0  0  0  0
    2.2148  -50.8481    8.9063 C   0  0  2  0  0  0  0  0  0  0  0  0
    0.9051  -50.8156    8.4078 O   0  0  0  0  0  0  0  0  0  0  0  0
    0.6682  -51.9792    4.7908 C   0  0  1  0  0  0  0  0  0  0  0  0
    1.3653  -53.2155    5.0289 O   0  0  0  0  0  0  0  0  0  0  0  0
   -4.7261  -49.0601    3.7643 C   0  0  1  0  0  0  0  0  0  0  0  0
   -4.6283  -48.1536    2.6585 O   0  0  0  0  0  0  0  0  0  0  0  0
    2.7133  -49.6966   16.6402 C   0  0  2  0  0  0  0  0  0  0  0  0
    3.3330  -49.3743   17.8813 O   0  0  0  0  0  0  0  0  0  0  0  0
    3.5528  -47.3426   13.1394 C   0  0  2  0  0  0  0  0  0  0  0  0
    2.2157  -51.9654    9.9769 C   0  0  2  0  0  0  0  0  0  0  0  0
    2.7479  -51.3013   11.1141 O   0  0  0  0  0  0  0  0  0  0  0  0
   -0.9068  -52.3416    4.7442 C   0  0  2  0  0  0  0  0  0  0  0  0
   -1.5593  -51.0837    4.4879 O   0  0  0  0  0  0  0  0  0  0  0  0
   -5.7756  -50.1445    3.4276 C   0  0  2  0  0  0  0  0  0  0  0  0
   -6.9912  -49.7321    4.0900 O   0  0  0  0  0  0  0  0  0  0  0  0
    3.7336  -49.5263   15.4784 C   0  0  2  0  0  0  0  0  0  0  0  0
    3.0566  -49.8860   14.2128 O   0  0  0  0  0  0  0  0  0  0  0  0
    3.7502  -47.7730   11.6539 C   0  0  2  0  0  0  0  0  0  0  0  0
    3.6800  -49.2183   11.6061 O   0  0  0  0  0  0  0  0  0  0  0  0
    3.1051  -53.1628    9.6614 C   0  0  0  0  0  0  0  0  0  0  0  0
    2.7729  -53.5954    8.3333 O   0  0  0  0  0  0  0  0  0  0  0  0
   -1.2642  -52.7941    6.1474 C   0  0  1  0  0  0  0  0  0  0  0  0
   -0.8831  -52.1020    7.3548 O   0  0  0  0  0  0  0  0  0  0  0  0
   -5.2892  -51.5281    3.8503 C   0  0  2  0  0  0  0  0  0  0  0  0
   -3.9603  -51.8783    3.3742 O   0  0  0  0  0  0  0  0  0  0  0  0
    4.9226  -50.4195   15.6387 C   0  0  0  0  0  0  0  0  0  0  0  0
    5.5731  -50.5024   14.3995 O   0  0  0  0  0  0  0  0  0  0  0  0
    5.1324  -47.2484   11.1183 C   0  0  1  0  0  0  0  0  0  0  0  0
    5.2600  -47.6273    9.7043 O   0  0  0  0  0  0  0  0  0  0  0  0
   -2.7839  -53.1503    6.3147 C   0  0  0  0  0  0  0  0  0  0  0  0
   -3.5887  -52.0571    6.9119 N   0  0  0  0  0  0  0  0  0  0  0  0
   -6.1281  -52.7840    3.6246 C   0  0  0  0  0  0  0  0  0  0  0  0
   -7.5411  -52.5014    3.8656 O   0  0  0  0  0  0  0  0  0  0  0  0
  1  2  1  1  0  0  0
  1  8  1  0  0  0  0
  1 36  1  0  0  0  0
  3  4  1  1  0  0  0
  3 10  1  0  0  0  0
  3 47  1  0  0  0  0
  5 11  1  0  0  0  0
  5 30  1  0  0  0  0
  5 38  1  1  0  0  0
  6 21  1  1  0  0  0
  6 42  1  0  0  0  0
  7 15  1  0  0  0  0
  7 44  1  0  0  0  0
  7 32  1  1  0  0  0
  8  9  1  6  0  0  0
  8 17  1  0  0  0  0
 11 12  1  1  0  0  0
 11 20  1  0  0  0  0
 13  6  1  0  0  0  0
 13 14  1  6  0  0  0
 15 16  1  6  0  0  0
 15 24  1  0  0  0  0
 17 26  1  0  0  0  0
 18 10  1  0  0  0  0
 18 19  1  1  0  0  0
 20 21  1  1  0  0  0
 20 29  1  0  0  0  0
 22 13  1  0  0  0  0
 22 23  1  1  0  0  0
 24 25  1  6  0  0  0
 24 33  1  0  0  0  0
 26 27  1  1  0  0  0
 26 35  1  0  0  0  0
 28  2  1  6  0  0  0
 28 18  1  0  0  0  0
 29 30  1  0  0  0  0
 29 39  1  6  0  0  0
 31 22  1  0  0  0  0
 31 32  1  1  0  0  0
 31 41  1  0  0  0  0
 33 34  1  1  0  0  0
 33 43  1  0  0  0  0
 35 36  1  0  0  0  0
 35 45  1  1  0  0  0
 37 28  1  0  0  0  0
 37 38  1  1  0  0  0
 39 40  1  0  0  0  0
 41 42  1  0  0  0  0
 41 49  1  6  0  0  0
 43 44  1  0  0  0  0
 43 51  1  6  0  0  0
 45 46  1  0  0  0  0
 47 37  1  0  0  0  0
 47 48  1  6  0  0  0
 49 50  1  0  0  0  0
 51 52  1  0  0  0  0
M  END
>  <CHROM.1>
151.71868423,64.18683795,-85.81514954,159.24649800,156.20895589,-168.56892887
-50.82998860,138.18581729,162.77931298,108.55959311,-98.35353119,-38.54204724
0.65163627,-49.91840955,9.18720964,0.86802343,0.38960395,1.60548126

>  <Name>
2fd0_lig

>  <RI>
2.00683e+07

>  <Rbt.Current_Directory>
/home/itssahil/PROJECTS/Mol_Feturizer/New_Systems/rnas/2fd0

>  <Rbt.Executable>
rbdock ($Id: //depot/dev/client3/rdock/2013.1/src/exe/rbdock.cxx#4 $)

>  <Rbt.Library>
libRbt.so (2013.1, Build901 2013/11/27)

>  <Rbt.Parameter_File>
/export/apps/rDock/src/rDock_2013.1_src/data/scripts/dock_solv.prm

>  <Rbt.Receptor>
prm/pocket_docking_4.prm

>  <SCORE>
-4.10842

>  <SCORE.INTER>
-7.87625

>  <SCORE.INTER.CONST>
1

>  <SCORE.INTER.POLAR>
-1.60549

>  <SCORE.INTER.ROT>
12

>  <SCORE.INTER.SOLV>
16.0883

>  <SCORE.INTER.VDW>
-16.862

>  <SCORE.INTER.norm>
-0.151466

>  <SCORE.INTRA>
3.76784

>  <SCORE.INTRA.DIHEDRAL>
6.03826

>  <SCORE.INTRA.DIHEDRAL.0>
23.9727

>  <SCORE.INTRA.POLAR>
0

>  <SCORE.INTRA.POLAR.0>
0

>  <SCORE.INTRA.REPUL>
0.0683756

>  <SCORE.INTRA.REPUL.0>
0

>  <SCORE.INTRA.SOLV>
0.924143

>  <SCORE.INTRA.SOLV.lig_0>
-115.028

>  <SCORE.INTRA.VDW>
-0.0552448

>  <SCORE.INTRA.VDW.0>
-6.82393

>  <SCORE.INTRA.norm>
0.0724584

>  <SCORE.RESTR>
0

>  <SCORE.RESTR.CAVITY>
0

>  <SCORE.RESTR.norm>
0

>  <SCORE.SYSTEM>
0

>  <SCORE.SYSTEM.CONST>
0

>  <SCORE.SYSTEM.DIHEDRAL>
0

>  <SCORE.SYSTEM.SOLV>
0

>  <SCORE.SYSTEM.norm>
0

>  <SCORE.heavy>
52

>  <SCORE.norm>
-0.079008

>  <RMSD>
3.053

$$$$
2fd0_lig
 OpenBabel11021811433D
libRbt.so/2013.1/901 2013/11/27
 52 56  0  0  0  0  0  0  0  0999 V2000
    5.1063  -50.0793   15.3456 C   0  0  2  0  0  0  0  0  0  0  0  0
    5.7508  -48.8037   15.4659 O   0  0  0  0  0  0  0  0  0  0  0  0
    7.0150  -45.7578   12.6345 C   0  0  2  0  0  0  0  0  0  0  0  0
    7.7613  -45.0575   11.5764 N   0  0  0  0  0  0  0  0  0  0  0  0
    3.8249  -49.1449   11.9611 C   0  0  1  0  0  0  0  0  0  0  0  0
    0.3691  -51.4645   10.2157 C   0  0  1  0  0  0  0  0  0  0  0  0
   -1.4383  -54.4013    6.3399 C   0  0  1  0  0  0  0  0  0  0  0  0
    4.2360  -50.3230   16.6320 C   0  0  2  0  0  0  0  0  0  0  0  0
    3.2638  -49.2587   16.8389 N   0  0  0  0  0  0  0  0  0  0  0  0
    7.9920  -46.1624   13.8240 C   0  0  0  0  0  0  0  0  0  0  0  0
    3.7680  -50.5337   11.3515 C   0  0  2  0  0  0  0  0  0  0  0  0
    4.3032  -50.5644    9.9984 O   0  0  0  0  0  0  0  0  0  0  0  0
    0.5697  -53.0486   10.3154 C   0  0  2  0  0  0  0  0  0  0  0  0
    1.5327  -53.5186    9.2825 N   0  0  0  0  0  0  0  0  0  0  0  0
   -0.6958  -53.2472    5.6297 C   0  0  1  0  0  0  0  0  0  0  0  0
    0.7222  -53.5448    5.6013 O   0  0  0  0  0  0  0  0  0  0  0  0
    5.1607  -50.5076   17.8920 C   0  0  0  0  0  0  0  0  0  0  0  0
    7.1752  -46.9149   14.9798 C   0  0  2  0  0  0  0  0  0  0  0  0
    8.0564  -47.3024   16.0912 N   0  0  0  0  0  0  0  0  0  0  0  0
    2.3033  -50.9097   11.4988 C   0  0  2  0  0  0  0  0  0  0  0  0
    1.6410  -50.8868   10.2636 O   0  0  0  0  0  0  0  0  0  0  0  0
   -0.8970  -53.7244   10.2585 C   0  0  1  0  0  0  0  0  0  0  0  0
   -1.6843  -53.1674   11.3267 O   0  0  0  0  0  0  0  0  0  0  0  0
   -1.1425  -52.8906    4.1860 C   0  0  1  0  0  0  0  0  0  0  0  0
   -0.3151  -53.6239    3.2740 O   0  0  0  0  0  0  0  0  0  0  0  0
    6.1683  -51.6677   17.6028 C   0  0  2  0  0  0  0  0  0  0  0  0
    7.0137  -51.8792   18.7292 O   0  0  0  0  0  0  0  0  0  0  0  0
    6.4860  -48.1724   14.3805 C   0  0  2  0  0  0  0  0  0  0  0  0
    1.5993  -49.8329   12.3586 C   0  0  2  0  0  0  0  0  0  0  0  0
    2.6862  -49.0300   12.7965 O   0  0  0  0  0  0  0  0  0  0  0  0
   -1.6709  -53.3692    8.8840 C   0  0  2  0  0  0  0  0  0  0  0  0
   -0.8597  -53.9582    7.8503 O   0  0  0  0  0  0  0  0  0  0  0  0
   -2.6251  -53.1670    3.8452 C   0  0  2  0  0  0  0  0  0  0  0  0
   -3.0642  -52.0361    3.0611 O   0  0  0  0  0  0  0  0  0  0  0  0
    7.0265  -51.3089   16.3560 C   0  0  2  0  0  0  0  0  0  0  0  0
    6.1139  -51.1142   15.2077 O   0  0  0  0  0  0  0  0  0  0  0  0
    5.5604  -47.8353   13.1719 C   0  0  2  0  0  0  0  0  0  0  0  0
    5.0170  -49.0831   12.6780 O   0  0  0  0  0  0  0  0  0  0  0  0
    0.8688  -50.3622   13.5877 C   0  0  0  0  0  0  0  0  0  0  0  0
    0.0860  -49.2785   14.1110 O   0  0  0  0  0  0  0  0  0  0  0  0
   -1.5995  -51.8595    8.7527 C   0  0  1  0  0  0  0  0  0  0  0  0
   -0.4034  -51.0750    8.9421 O   0  0  0  0  0  0  0  0  0  0  0  0
   -3.4469  -53.3873    5.1123 C   0  0  2  0  0  0  0  0  0  0  0  0
   -2.8980  -54.3724    6.0308 O   0  0  0  0  0  0  0  0  0  0  0  0
    7.9895  -52.3978   16.0039 C   0  0  0  0  0  0  0  0  0  0  0  0
    8.9572  -52.4653   17.0161 O   0  0  0  0  0  0  0  0  0  0  0  0
    6.3782  -47.0855   12.0576 C   0  0  1  0  0  0  0  0  0  0  0  0
    5.4641  -46.7390   10.9604 O   0  0  0  0  0  0  0  0  0  0  0  0
   -2.2664  -51.3203    7.4378 C   0  0  0  0  0  0  0  0  0  0  0  0
   -2.3915  -49.8431    7.3970 N   0  0  0  0  0  0  0  0  0  0  0  0
   -4.9428  -53.6904    5.0635 C   0  0  0  0  0  0  0  0  0  0  0  0
   -5.1896  -54.9098    4.2975 O   0  0  0  0  0  0  0  0  0  0  0  0
  1  2  1  1  0  0  0
  1  8  1  0  0  0  0
  1 36  1  0  0  0  0
  3  4  1  6  0  0  0
  3 10  1  0  0  0  0
  3 47  1  0  0  0  0
  5 11  1  0  0  0  0
  5 30  1  0  0  0  0
  5 38  1  1  0  0  0
  6 21  1  6  0  0  0
  6 42  1  0  0  0  0
  7 15  1  0  0  0  0
  7 44  1  0  0  0  0
  7 32  1  1  0  0  0
  8  9  1  1  0  0  0
  8 17  1  0  0  0  0
 11 12  1  6  0  0  0
 11 20  1  0  0  0  0
 13  6  1  0  0  0  0
 13 14  1  6  0  0  0
 15 16  1  6  0  0  0
 15 24  1  0  0  0  0
 17 26  1  0  0  0  0
 18 10  1  0  0  0  0
 18 19  1  1  0  0  0
 20 21  1  6  0  0  0
 20 29  1  0  0  0  0
 22 13  1  0  0  0  0
 22 23  1  1  0  0  0
 24 25  1  6  0  0  0
 24 33  1  0  0  0  0
 26 27  1  1  0  0  0
 26 35  1  0  0  0  0
 28  2  1  1  0  0  0
 28 18  1  0  0  0  0
 29 30  1  0  0  0  0
 29 39  1  1  0  0  0
 31 22  1  0  0  0  0
 31 32  1  6  0  0  0
 31 41  1  0  0  0  0
 33 34  1  1  0  0  0
 33 43  1  0  0  0  0
 35 36  1  0  0  0  0
 35 45  1  6  0  0  0
 37 28  1  0  0  0  0
 37 38  1  6  0  0  0
 39 40  1  0  0  0  0
 41 42  1  0  0  0  0
 41 49  1  6  0  0  0
 43 44  1  0  0  0  0
 43 51  1  6  0  0  0
 45 46  1  0  0  0  0
 47 37  1  0  0  0  0
 47 48  1  6  0  0  0
 49 50  1  0  0  0  0
 51 52  1  0  0  0  0
M  END
>  <CHROM.1>
-171.23244847,166.95071984,-72.01105607,108.80693174,167.64070472,-172.60388205
-169.61218147,155.94424869,-68.33268600,156.13312482,171.00758642,59.12907647
2.29259167,-50.91487000,11.05566253,0.45568893,0.77167107,2.13108604

>  <Name>
2fd0_lig

>  <RI>
2.00683e+07

>  <Rbt.Current_Directory>
/home/itssahil/PROJECTS/Mol_Feturizer/New_Systems/rnas/2fd0

>  <Rbt.Executable>
rbdock ($Id: //depot/dev/client3/rdock/2013.1/src/exe/rbdock.cxx#4 $)

>  <Rbt.Library>
libRbt.so (2013.1, Build901 2013/11/27)

>  <Rbt.Parameter_File>
/export/apps/rDock/src/rDock_2013.1_src/data/scripts/dock_solv.prm

>  <Rbt.Receptor>
prm/pocket_docking_4.prm

>  <SCORE>
-26.286

>  <SCORE.INTER>
-21.4285

>  <SCORE.INTER.CONST>
1

>  <SCORE.INTER.POLAR>
-1.41889

>  <SCORE.INTER.ROT>
12

>  <SCORE.INTER.SOLV>
18.0848

>  <SCORE.INTER.VDW>
-27.1843

>  <SCORE.INTER.norm>
-0.412086

>  <SCORE.INTRA>
-4.85752

>  <SCORE.INTRA.DIHEDRAL>
-7.19585

>  <SCORE.INTRA.DIHEDRAL.0>
23.9727

>  <SCORE.INTRA.POLAR>
0

>  <SCORE.INTRA.POLAR.0>
0

>  <SCORE.INTRA.REPUL>
0

>  <SCORE.INTRA.REPUL.0>
0

>  <SCORE.INTRA.SOLV>
-3.38343

>  <SCORE.INTRA.SOLV.lig_0>
-115.028

>  <SCORE.INTRA.VDW>
0.432121

>  <SCORE.INTRA.VDW.0>
-6.82393

>  <SCORE.INTRA.norm>
-0.0934139

>  <SCORE.RESTR>
0

>  <SCORE.RESTR.CAVITY>
0

>  <SCORE.RESTR.norm>
0

>  <SCORE.SYSTEM>
0

>  <SCORE.SYSTEM.CONST>
0

>  <SCORE.SYSTEM.DIHEDRAL>
0

>  <SCORE.SYSTEM.SOLV>
0

>  <SCORE.SYSTEM.norm>
0

>  <SCORE.heavy>
52

>  <SCORE.norm>
-0.5055

>  <RMSD>
3.061

$$$$
2fd0_lig
 OpenBabel11021811433D
libRbt.so/2013.1/901 2013/11/27
 52 56  0  0  0  0  0  0  0  0999 V2000
    5.5214  -48.2801   16.5509 C   0  0  2  0  0  0  0  0  0  0  0  0
    6.0175  -48.9181   15.3661 O   0  0  0  0  0  0  0  0  0  0  0  0
    7.5533  -45.6106   13.0009 C   0  0  2  0  0  0  0  0  0  0  0  0
    8.2971  -44.8448   11.9873 N   0  0  0  0  0  0  0  0  0  0  0  0
    4.0191  -48.1029   11.7117 C   0  0  1  0  0  0  0  0  0  0  0  0
    1.0814  -50.0465    8.8630 C   0  0  1  0  0  0  0  0  0  0  0  0
   -1.7151  -49.0980    5.0819 C   0  0  1  0  0  0  0  0  0  0  0  0
    4.9393  -49.3841   17.5069 C   0  0  2  0  0  0  0  0  0  0  0  0
    5.9319  -50.3991   17.8312 N   0  0  0  0  0  0  0  0  0  0  0  0
    8.5585  -46.4441   13.9107 C   0  0  0  0  0  0  0  0  0  0  0  0
    3.5525  -49.4195   11.1181 C   0  0  2  0  0  0  0  0  0  0  0  0
    4.3560  -49.8241    9.9740 O   0  0  0  0  0  0  0  0  0  0  0  0
    1.1206  -49.7768    7.2865 C   0  0  2  0  0  0  0  0  0  0  0  0
    0.6896  -48.3845    6.9846 N   0  0  0  0  0  0  0  0  0  0  0  0
   -2.4660  -47.7936    5.4318 C   0  0  1  0  0  0  0  0  0  0  0  0
   -1.5883  -46.9358    6.2024 O   0  0  0  0  0  0  0  0  0  0  0  0
    3.6468  -50.0261   16.8793 C   0  0  0  0  0  0  0  0  0  0  0  0
    7.7472  -47.2684   15.0206 C   0  0  2  0  0  0  0  0  0  0  0  0
    8.6537  -48.0504   15.8741 N   0  0  0  0  0  0  0  0  0  0  0  0
    2.0799  -49.1655   10.8434 C   0  0  2  0  0  0  0  0  0  0  0  0
    1.8294  -49.0340    9.4705 O   0  0  0  0  0  0  0  0  0  0  0  0
    0.2557  -50.9426    6.5767 C   0  0  1  0  0  0  0  0  0  0  0  0
    0.8151  -52.2101    6.9660 O   0  0  0  0  0  0  0  0  0  0  0  0
   -3.0411  -46.9614    4.2539 C   0  0  1  0  0  0  0  0  0  0  0  0
   -2.0623  -45.9808    3.8868 O   0  0  0  0  0  0  0  0  0  0  0  0
    2.6263  -48.8834   16.5668 C   0  0  2  0  0  0  0  0  0  0  0  0
    1.4320  -49.4264   16.0127 O   0  0  0  0  0  0  0  0  0  0  0  0
    6.7322  -48.2103   14.3147 C   0  0  2  0  0  0  0  0  0  0  0  0
    1.6886  -47.8019   11.4614 C   0  0  2  0  0  0  0  0  0  0  0  0
    2.8568  -47.4466   12.1872 O   0  0  0  0  0  0  0  0  0  0  0  0
   -1.2806  -50.9444    7.0805 C   0  0  2  0  0  0  0  0  0  0  0  0
   -1.8014  -49.6708    6.6558 O   0  0  0  0  0  0  0  0  0  0  0  0
   -3.4448  -47.7582    2.9918 C   0  0  2  0  0  0  0  0  0  0  0  0
   -4.6867  -47.1745    2.5407 O   0  0  0  0  0  0  0  0  0  0  0  0
    3.2654  -47.8781   15.5665 C   0  0  2  0  0  0  0  0  0  0  0  0
    4.4907  -47.3263   16.1857 O   0  0  0  0  0  0  0  0  0  0  0  0
    5.7596  -47.4467   13.3650 C   0  0  2  0  0  0  0  0  0  0  0  0
    4.9010  -48.4298   12.7386 O   0  0  0  0  0  0  0  0  0  0  0  0
    0.5151  -47.8452   12.4336 C   0  0  0  0  0  0  0  0  0  0  0  0
    0.8722  -48.7565   13.4839 O   0  0  0  0  0  0  0  0  0  0  0  0
   -1.2142  -50.9580    8.5961 C   0  0  1  0  0  0  0  0  0  0  0  0
   -0.3650  -50.1013    9.3879 O   0  0  0  0  0  0  0  0  0  0  0  0
   -3.5463  -49.2506    3.2950 C   0  0  2  0  0  0  0  0  0  0  0  0
   -2.3829  -49.8180    3.9582 O   0  0  0  0  0  0  0  0  0  0  0  0
    2.3499  -46.7376   15.2531 C   0  0  0  0  0  0  0  0  0  0  0  0
    2.1066  -46.0371   16.4430 O   0  0  0  0  0  0  0  0  0  0  0  0
    6.5764  -46.6344   12.2946 C   0  0  1  0  0  0  0  0  0  0  0  0
    5.6309  -45.8887   11.4524 O   0  0  0  0  0  0  0  0  0  0  0  0
   -2.6275  -50.9153    9.2781 C   0  0  0  0  0  0  0  0  0  0  0  0
   -3.4008  -49.6886    8.9677 N   0  0  0  0  0  0  0  0  0  0  0  0
   -3.9193  -50.2704    2.2213 C   0  0  0  0  0  0  0  0  0  0  0  0
   -2.8079  -50.4594    1.2919 O   0  0  0  0  0  0  0  0  0  0  0  0
  1  2  1  6  0  0  0
  1  8  1  0  0  0  0
  1 36  1  0  0  0  0
  3  4  1  6  0  0  0
  3 10  1  0  0  0  0
  3 47  1  0  0  0  0
  5 11  1  0  0  0  0
  5 30  1  0  0  0  0
  5 38  1  1  0  0  0
  6 21  1  1  0  0  0
  6 42  1  0  0  0  0
  7 15  1  0  0  0  0
  7 44  1  0  0  0  0
  7 32  1  1  0  0  0
  8  9  1  6  0  0  0
  8 17  1  0  0  0  0
 11 12  1  6  0  0  0
 11 20  1  0  0  0  0
 13  6  1  0  0  0  0
 13 14  1  1  0  0  0
 15 16  1  6  0  0  0
 15 24  1  0  0  0  0
 17 26  1  0  0  0  0
 18 10  1  0  0  0  0
 18 19  1  6  0  0  0
 20 21  1  6  0  0  0
 20 29  1  0  0  0  0
 22 13  1  0  0  0  0
 22 23  1  1  0  0  0
 24 25  1  6  0  0  0
 24 33  1  0  0  0  0
 26 27  1  6  0  0  0
 26 35  1  0  0  0  0
 28  2  1  1  0  0  0
 28 18  1  0  0  0  0
 29 30  1  0  0  0  0
 29 39  1  1  0  0  0
 31 22  1  0  0  0  0
 31 32  1  1  0  0  0
 31 41  1  0  0  0  0
 33 34  1  1  0  0  0
 33 43  1  0  0  0  0
 35 36  1  0  0  0  0
 35 45  1  1  0  0  0
 37 28  1  0  0  0  0
 37 38  1  6  0  0  0
 39 40  1  0  0  0  0
 41 42  1  0  0  0  0
 41 49  1  1  0  0  0
 43 44  1  0  0  0  0
 43 51  1  6  0  0  0
 45 46  1  0  0  0  0
 47 37  1  0  0  0  0
 47 48  1  6  0  0  0
 49 50  1  0  0  0  0
 51 52  1  0  0  0  0
M  END
>  <CHROM.1>
-174.43350836,167.23484631,-171.89540436,178.83325817,111.96285236,43.81406745
58.33793202,53.03882900,62.23229816,-172.22920536,-61.82652369,72.83887457
1.80462242,-48.54864073,10.43767991,0.84802307,0.43627981,1.81528915

>  <Name>
2fd0_lig

>  <RI>
2.00683e+07

>  <Rbt.Current_Directory>
/home/itssahil/PROJECTS/Mol_Feturizer/New_Systems/rnas/2fd0

>  <Rbt.Executable>
rbdock ($Id: //depot/dev/client3/rdock/2013.1/src/exe/rbdock.cxx#4 $)

>  <Rbt.Library>
libRbt.so (2013.1, Build901 2013/11/27)

>  <Rbt.Parameter_File>
/export/apps/rDock/src/rDock_2013.1_src/data/scripts/dock_solv.prm

>  <Rbt.Receptor>
prm/pocket_docking_4.prm

>  <SCORE>
-16.6977

>  <SCORE.INTER>
-11.2761

>  <SCORE.INTER.CONST>
1

>  <SCORE.INTER.POLAR>
-0.894427

>  <SCORE.INTER.ROT>
12

>  <SCORE.INTER.SOLV>
15.6954

>  <SCORE.INTER.VDW>
-21.3677

>  <SCORE.INTER.norm>
-0.216847

>  <SCORE.INTRA>
-5.4216

>  <SCORE.INTRA.DIHEDRAL>
-11.846

>  <SCORE.INTRA.DIHEDRAL.0>
23.9727

>  <SCORE.INTRA.POLAR>
0

>  <SCORE.INTRA.POLAR.0>
0

>  <SCORE.INTRA.REPUL>
0

>  <SCORE.INTRA.REPUL.0>
0

>  <SCORE.INTRA.SOLV>
1.01696

>  <SCORE.INTRA.SOLV.lig_0>
-115.028

>  <SCORE.INTRA.VDW>
-0.00709925

>  <SCORE.INTRA.VDW.0>
-6.82393

>  <SCORE.INTRA.norm>
-0.104262

>  <SCORE.RESTR>
0

>  <SCORE.RESTR.CAVITY>
0

>  <SCORE.RESTR.norm>
0

>  <SCORE.SYSTEM>
0

>  <SCORE.SYSTEM.CONST>
0

>  <SCORE.SYSTEM.DIHEDRAL>
0

>  <SCORE.SYSTEM.SOLV>
0

>  <SCORE.SYSTEM.norm>
0

>  <SCORE.heavy>
52

>  <SCORE.norm>
-0.321109

>  <RMSD>
3.072

$$$$
2fd0_lig
 OpenBabel11021811433D
libRbt.so/2013.1/901 2013/11/27
 52 56  0  0  0  0  0  0  0  0999 V2000
    5.6024  -48.1378   15.5253 C   0  0  2  0  0  0  0  0  0  0  0  0
    6.2143  -48.6925   14.3527 O   0  0  0  0  0  0  0  0  0  0  0  0
    6.6086  -45.2694   11.7034 C   0  0  2  0  0  0  0  0  0  0  0  0
    7.0478  -44.4006   10.5991 N   0  0  0  0  0  0  0  0  0  0  0  0
    3.7784  -48.7555   10.9274 C   0  0  1  0  0  0  0  0  0  0  0  0
    0.9653  -51.4945    8.5593 C   0  0  1  0  0  0  0  0  0  0  0  0
   -3.7040  -51.0044    6.6068 C   0  0  1  0  0  0  0  0  0  0  0  0
    5.2290  -49.3145   16.4986 C   0  0  2  0  0  0  0  0  0  0  0  0
    6.3902  -50.1233   16.8426 N   0  0  0  0  0  0  0  0  0  0  0  0
    7.8557  -45.7116   12.5877 C   0  0  0  0  0  0  0  0  0  0  0  0
    3.7401  -50.1432   10.3138 C   0  0  2  0  0  0  0  0  0  0  0  0
    4.4351  -50.2008    9.0364 O   0  0  0  0  0  0  0  0  0  0  0  0
    0.8859  -51.4315    6.9627 C   0  0  2  0  0  0  0  0  0  0  0  0
    0.4245  -50.0888    6.5159 N   0  0  0  0  0  0  0  0  0  0  0  0
   -4.0768  -52.0300    5.5128 C   0  0  1  0  0  0  0  0  0  0  0  0
   -3.9822  -53.3660    6.0661 O   0  0  0  0  0  0  0  0  0  0  0  0
    4.0808  -50.1944   15.8791 C   0  0  0  0  0  0  0  0  0  0  0  0
    7.3736  -46.6483   13.7958 C   0  0  2  0  0  0  0  0  0  0  0  0
    8.5088  -47.0737   14.6278 N   0  0  0  0  0  0  0  0  0  0  0  0
    2.2542  -50.4590   10.2803 C   0  0  2  0  0  0  0  0  0  0  0  0
    1.7496  -50.4141    8.9733 O   0  0  0  0  0  0  0  0  0  0  0  0
   -0.0214  -52.6768    6.4760 C   0  0  1  0  0  0  0  0  0  0  0  0
    0.5736  -53.8848    6.9835 O   0  0  0  0  0  0  0  0  0  0  0  0
   -5.4686  -51.8842    4.8400 C   0  0  1  0  0  0  0  0  0  0  0  0
   -6.3931  -52.7149    5.5538 O   0  0  0  0  0  0  0  0  0  0  0  0
    2.8685  -49.2652   15.5447 C   0  0  2  0  0  0  0  0  0  0  0  0
    1.7981  -50.0284   14.9971 O   0  0  0  0  0  0  0  0  0  0  0  0
    6.6406  -47.8903   13.2162 C   0  0  2  0  0  0  0  0  0  0  0  0
    1.4948  -49.3513   11.0487 C   0  0  2  0  0  0  0  0  0  0  0  0
    2.5516  -48.5915   11.6173 O   0  0  0  0  0  0  0  0  0  0  0  0
   -1.5162  -52.6086    7.0885 C   0  0  2  0  0  0  0  0  0  0  0  0
   -2.0754  -51.3992    6.5424 O   0  0  0  0  0  0  0  0  0  0  0  0
   -6.0418  -50.4500    4.7675 C   0  0  2  0  0  0  0  0  0  0  0  0
   -6.6408  -50.3334    3.4582 O   0  0  0  0  0  0  0  0  0  0  0  0
    3.3165  -48.1757   14.5288 C   0  0  2  0  0  0  0  0  0  0  0  0
    4.4154  -47.3969   15.1415 O   0  0  0  0  0  0  0  0  0  0  0  0
    5.4429  -47.5085   12.2938 C   0  0  2  0  0  0  0  0  0  0  0  0
    4.8753  -48.7393   11.7850 O   0  0  0  0  0  0  0  0  0  0  0  0
    0.5984  -49.8459   12.1785 C   0  0  0  0  0  0  0  0  0  0  0  0
   -0.0624  -48.6948   12.7258 O   0  0  0  0  0  0  0  0  0  0  0  0
   -1.3376  -52.4259    8.5839 C   0  0  1  0  0  0  0  0  0  0  0  0
   -0.4378  -51.4764    9.1929 O   0  0  0  0  0  0  0  0  0  0  0  0
   -4.9562  -49.4115    5.0369 C   0  0  2  0  0  0  0  0  0  0  0  0
   -4.1842  -49.6376    6.2486 O   0  0  0  0  0  0  0  0  0  0  0  0
    2.2078  -47.2292   14.1939 C   0  0  0  0  0  0  0  0  0  0  0  0
    2.6418  -46.4064   13.1450 O   0  0  0  0  0  0  0  0  0  0  0  0
    5.9358  -46.5787   11.1253 C   0  0  1  0  0  0  0  0  0  0  0  0
    4.7744  -46.1983   10.3093 O   0  0  0  0  0  0  0  0  0  0  0  0
   -2.6968  -52.2909    9.3577 C   0  0  0  0  0  0  0  0  0  0  0  0
   -3.2545  -50.9167    9.3450 N   0  0  0  0  0  0  0  0  0  0  0  0
   -5.2523  -47.9135    5.0367 C   0  0  0  0  0  0  0  0  0  0  0  0
   -4.0073  -47.1493    5.0561 O   0  0  0  0  0  0  0  0  0  0  0  0
  1  2  1  6  0  0  0
  1  8  1  0  0  0  0
  1 36  1  0  0  0  0
  3  4  1  6  0  0  0
  3 10  1  0  0  0  0
  3 47  1  0  0  0  0
  5 11  1  0  0  0  0
  5 30  1  0  0  0  0
  5 38  1  1  0  0  0
  6 21  1  1  0  0  0
  6 42  1  0  0  0  0
  7 15  1  0  0  0  0
  7 44  1  0  0  0  0
  7 32  1  6  0  0  0
  8  9  1  6  0  0  0
  8 17  1  0  0  0  0
 11 12  1  6  0  0  0
 11 20  1  0  0  0  0
 13  6  1  0  0  0  0
 13 14  1  1  0  0  0
 15 16  1  1  0  0  0
 15 24  1  0  0  0  0
 17 26  1  0  0  0  0
 18 10  1  0  0  0  0
 18 19  1  6  0  0  0
 20 21  1  6  0  0  0
 20 29  1  0  0  0  0
 22 13  1  0  0  0  0
 22 23  1  1  0  0  0
 24 25  1  1  0  0  0
 24 33  1  0  0  0  0
 26 27  1  6  0  0  0
 26 35  1  0  0  0  0
 28  2  1  1  0  0  0
 28 18  1  0  0  0  0
 29 30  1  0  0  0  0
 29 39  1  1  0  0  0
 31 22  1  0  0  0  0
 31 32  1  6  0  0  0
 31 41  1  0  0  0  0
 33 34  1  6  0  0  0
 33 43  1  0  0  0  0
 35 36  1  0  0  0  0
 35 45  1  1  0  0  0
 37 28  1  0  0  0  0
 37 38  1  6  0  0  0
 39 40  1  0  0  0  0
 41 42  1  0  0  0  0
 41 49  1  1  0  0  0
 43 44  1  0  0  0  0
 43 51  1  1  0  0  0
 45 46  1  0  0  0  0
 47 37  1  0  0  0  0
 47 48  1  6  0  0  0
 49 50  1  0  0  0  0
 51 52  1  0  0  0  0
M  END
>  <CHROM.1>
177.59539782,164.01306652,-163.42863095,-74.31284621,131.53087141,44.44360271
-177.37507479,167.16483721,-171.94425027,179.77694176,-83.22780339,-168.80084973
1.23894584,-49.50616833,10.15595296,0.37331268,0.64871277,2.16671420

>  <Name>
2fd0_lig

>  <RI>
2.89522e+07

>  <Rbt.Current_Directory>
/home/itssahil/PROJECTS/Mol_Feturizer/New_Systems/rnas/2fd0

>  <Rbt.Executable>
rbdock ($Id: //depot/dev/client3/rdock/2013.1/src/exe/rbdock.cxx#4 $)

>  <Rbt.Library>
libRbt.so (2013.1, Build901 2013/11/27)

>  <Rbt.Parameter_File>
/export/apps/rDock/src/rDock_2013.1_src/data/scripts/dock_solv.prm

>  <Rbt.Receptor>
prm/pocket_docking_2.prm

>  <SCORE>
3.06435

>  <SCORE.INTER>
2.14443

>  <SCORE.INTER.CONST>
1

>  <SCORE.INTER.POLAR>
-0.159246

>  <SCORE.INTER.ROT>
12

>  <SCORE.INTER.SOLV>
13.6959

>  <SCORE.INTER.VDW>
-14.2048

>  <SCORE.INTER.norm>
0.041239

>  <SCORE.INTRA>
-4.06134

>  <SCORE.INTRA.DIHEDRAL>
-8.53628

>  <SCORE.INTRA.DIHEDRAL.0>
23.9727

>  <SCORE.INTRA.POLAR>
0

>  <SCORE.INTRA.POLAR.0>
0

>  <SCORE.INTRA.REPUL>
0

>  <SCORE.INTRA.REPUL.0>
0

>  <SCORE.INTRA.SOLV>
1.05343

>  <SCORE.INTRA.SOLV.lig_0>
-115.028

>  <SCORE.INTRA.VDW>
-0.319916

>  <SCORE.INTRA.VDW.0>
-6.82393

>  <SCORE.INTRA.norm>
-0.0781027

>  <SCORE.RESTR>
4.98126

>  <SCORE.RESTR.CAVITY>
4.98126

>  <SCORE.RESTR.norm>
0.0957935

>  <SCORE.SYSTEM>
0

>  <SCORE.SYSTEM.CONST>
0

>  <SCORE.SYSTEM.DIHEDRAL>
0

>  <SCORE.SYSTEM.SOLV>
0

>  <SCORE.SYSTEM.norm>
0

>  <SCORE.heavy>
52

>  <SCORE.norm>
0.0589298

>  <RMSD>
3.144

$$$$
2fd0_lig
 OpenBabel11021811433D
libRbt.so/2013.1/901 2013/11/27
 52 56  0  0  0  0  0  0  0  0999 V2000
    5.1261  -49.4702   15.0159 C   0  0  2  0  0  0  0  0  0  0  0  0
    5.6758  -48.2182   15.4486 O   0  0  0  0  0  0  0  0  0  0  0  0
    8.2760  -45.1802   13.7451 C   0  0  2  0  0  0  0  0  0  0  0  0
    9.4603  -44.5094   13.1844 N   0  0  0  0  0  0  0  0  0  0  0  0
    5.6738  -48.1470   11.3281 C   0  0  1  0  0  0  0  0  0  0  0  0
    2.2782  -49.6728    9.2621 C   0  0  1  0  0  0  0  0  0  0  0  0
   -1.9273  -49.6982    6.5084 C   0  0  1  0  0  0  0  0  0  0  0  0
    3.9347  -49.8492   15.9691 C   0  0  2  0  0  0  0  0  0  0  0  0
    2.9154  -48.8097   16.0032 N   0  0  0  0  0  0  0  0  0  0  0  0
    8.5999  -45.7524   15.1945 C   0  0  0  0  0  0  0  0  0  0  0  0
    4.3563  -48.8999   11.3583 C   0  0  2  0  0  0  0  0  0  0  0  0
    4.4976  -50.2769   10.9086 O   0  0  0  0  0  0  0  0  0  0  0  0
    2.4235  -50.3763    7.8326 C   0  0  2  0  0  0  0  0  0  0  0  0
    2.2511  -49.3796    6.7407 N   0  0  0  0  0  0  0  0  0  0  0  0
   -1.5148  -49.3297    5.0655 C   0  0  1  0  0  0  0  0  0  0  0  0
   -1.3900  -50.5444    4.2853 O   0  0  0  0  0  0  0  0  0  0  0  0
    4.4703  -50.1744   17.4126 C   0  0  0  0  0  0  0  0  0  0  0  0
    7.3057  -46.4725   15.8075 C   0  0  2  0  0  0  0  0  0  0  0  0
    7.5794  -47.0132   17.1471 N   0  0  0  0  0  0  0  0  0  0  0  0
    3.4410  -48.0168   10.5272 C   0  0  2  0  0  0  0  0  0  0  0  0
    3.1660  -48.5934    9.2795 O   0  0  0  0  0  0  0  0  0  0  0  0
    1.3981  -51.6247    7.8036 C   0  0  1  0  0  0  0  0  0  0  0  0
    1.7151  -52.4855    8.9125 O   0  0  0  0  0  0  0  0  0  0  0  0
   -2.4334  -48.3491    4.2873 C   0  0  1  0  0  0  0  0  0  0  0  0
   -3.3708  -49.1273    3.5324 O   0  0  0  0  0  0  0  0  0  0  0  0
    5.5494  -51.3004   17.3000 C   0  0  2  0  0  0  0  0  0  0  0  0
    6.0474  -51.6374   18.5909 O   0  0  0  0  0  0  0  0  0  0  0  0
    6.8570  -47.6133   14.8520 C   0  0  2  0  0  0  0  0  0  0  0  0
    4.1810  -46.6951   10.2111 C   0  0  2  0  0  0  0  0  0  0  0  0
    5.3580  -46.8056   10.9984 O   0  0  0  0  0  0  0  0  0  0  0  0
   -0.1336  -51.1512    8.0130 C   0  0  2  0  0  0  0  0  0  0  0  0
   -0.4101  -50.3106    6.8769 O   0  0  0  0  0  0  0  0  0  0  0  0
   -3.2127  -47.3236    5.1428 C   0  0  2  0  0  0  0  0  0  0  0  0
   -3.1506  -46.0780    4.4141 O   0  0  0  0  0  0  0  0  0  0  0  0
    6.7149  -50.8112   16.3934 C   0  0  2  0  0  0  0  0  0  0  0  0
    6.1590  -50.4882   15.0607 O   0  0  0  0  0  0  0  0  0  0  0  0
    6.5824  -47.1126   13.4012 C   0  0  2  0  0  0  0  0  0  0  0  0
    6.2189  -48.2652   12.6041 O   0  0  0  0  0  0  0  0  0  0  0  0
    3.4445  -45.4262   10.6258 C   0  0  0  0  0  0  0  0  0  0  0  0
    4.1979  -44.3162   10.1145 O   0  0  0  0  0  0  0  0  0  0  0  0
   -0.1284  -50.2894    9.2615 C   0  0  1  0  0  0  0  0  0  0  0  0
    0.8251  -49.2403    9.5305 O   0  0  0  0  0  0  0  0  0  0  0  0
   -2.6359  -47.2353    6.5531 C   0  0  2  0  0  0  0  0  0  0  0  0
   -2.4801  -48.5139    7.2287 O   0  0  0  0  0  0  0  0  0  0  0  0
    7.7670  -51.8593   16.2156 C   0  0  0  0  0  0  0  0  0  0  0  0
    7.2341  -52.8771   15.4119 O   0  0  0  0  0  0  0  0  0  0  0  0
    7.8591  -46.3975   12.8256 C   0  0  1  0  0  0  0  0  0  0  0  0
    7.5467  -45.8947   11.4806 O   0  0  0  0  0  0  0  0  0  0  0  0
   -1.5381  -49.6911    9.6066 C   0  0  0  0  0  0  0  0  0  0  0  0
   -1.5960  -49.0331   10.9344 N   0  0  0  0  0  0  0  0  0  0  0  0
   -3.2247  -46.3044    7.6107 C   0  0  0  0  0  0  0  0  0  0  0  0
   -2.5529  -46.5024    8.8929 O   0  0  0  0  0  0  0  0  0  0  0  0
  1  2  1  1  0  0  0
  1  8  1  0  0  0  0
  1 36  1  0  0  0  0
  3  4  1  6  0  0  0
  3 10  1  0  0  0  0
  3 47  1  0  0  0  0
  5 11  1  0  0  0  0
  5 30  1  0  0  0  0
  5 38  1  1  0  0  0
  6 21  1  6  0  0  0
  6 42  1  0  0  0  0
  7 15  1  0  0  0  0
  7 44  1  0  0  0  0
  7 32  1  1  0  0  0
  8  9  1  1  0  0  0
  8 17  1  0  0  0  0
 11 12  1  6  0  0  0
 11 20  1  0  0  0  0
 13  6  1  0  0  0  0
 13 14  1  6  0  0  0
 15 16  1  6  0  0  0
 15 24  1  0  0  0  0
 17 26  1  0  0  0  0
 18 10  1  0  0  0  0
 18 19  1  1  0  0  0
 20 21  1  6  0  0  0
 20 29  1  0  0  0  0
 22 13  1  0  0  0  0
 22 23  1  1  0  0  0
 24 25  1  1  0  0  0
 24 33  1  0  0  0  0
 26 27  1  1  0  0  0
 26 35  1  0  0  0  0
 28  2  1  1  0  0  0
 28 18  1  0  0  0  0
 29 30  1  0  0  0  0
 29 39  1  1  0  0  0
 31 22  1  0  0  0  0
 31 32  1  6  0  0  0
 31 41  1  0  0  0  0
 33 34  1  6  0  0  0
 33 43  1  0  0  0  0
 35 36  1  0  0  0  0
 35 45  1  6  0  0  0
 37 28  1  0  0  0  0
 37 38  1  6  0  0  0
 39 40  1  0  0  0  0
 41 42  1  0  0  0  0
 41 49  1  6  0  0  0
 43 44  1  0  0  0  0
 43 51  1  1  0  0  0
 45 46  1  0  0  0  0
 47 37  1  0  0  0  0
 47 48  1  6  0  0  0
 49 50  1  0  0  0  0
 51 52  1  0  0  0  0
M  END
>  <CHROM.1>
175.38593321,-123.90169970,-165.63683559,-164.23609550,74.23329494,-166.83670292
-173.24923161,172.50821740,70.41656041,167.93270542,170.63258250,175.31720550
2.96376268,-48.64681487,10.98098436,0.44234876,0.71171884,2.50407413

>  <Name>
2fd0_lig

>  <RI>
2.00683e+07

>  <Rbt.Current_Directory>
/home/itssahil/PROJECTS/Mol_Feturizer/New_Systems/rnas/2fd0

>  <Rbt.Executable>
rbdock ($Id: //depot/dev/client3/rdock/2013.1/src/exe/rbdock.cxx#4 $)

>  <Rbt.Library>
libRbt.so (2013.1, Build901 2013/11/27)

>  <Rbt.Parameter_File>
/export/apps/rDock/src/rDock_2013.1_src/data/scripts/dock_solv.prm

>  <Rbt.Receptor>
prm/pocket_docking_4.prm

>  <SCORE>
-23.2273

>  <SCORE.INTER>
-19.6865

>  <SCORE.INTER.CONST>
1

>  <SCORE.INTER.POLAR>
-2.04017

>  <SCORE.INTER.ROT>
12

>  <SCORE.INTER.SOLV>
18.1872

>  <SCORE.INTER.VDW>
-23.9862

>  <SCORE.INTER.norm>
-0.378586

>  <SCORE.INTRA>
-3.54079

>  <SCORE.INTRA.DIHEDRAL>
-9.46686

>  <SCORE.INTRA.DIHEDRAL.0>
23.9727

>  <SCORE.INTRA.POLAR>
0

>  <SCORE.INTRA.POLAR.0>
0

>  <SCORE.INTRA.REPUL>
0.000547214

>  <SCORE.INTRA.REPUL.0>
0

>  <SCORE.INTRA.SOLV>
-3.15613

>  <SCORE.INTRA.SOLV.lig_0>
-115.028

>  <SCORE.INTRA.VDW>
2.76797

>  <SCORE.INTRA.VDW.0>
-6.82393

>  <SCORE.INTRA.norm>
-0.0680921

>  <SCORE.RESTR>
0

>  <SCORE.RESTR.CAVITY>
0

>  <SCORE.RESTR.norm>
0

>  <SCORE.SYSTEM>
0

>  <SCORE.SYSTEM.CONST>
0

>  <SCORE.SYSTEM.DIHEDRAL>
0

>  <SCORE.SYSTEM.SOLV>
0

>  <SCORE.SYSTEM.norm>
0

>  <SCORE.heavy>
52

>  <SCORE.norm>
-0.446678

>  <RMSD>
3.152

$$$$
2fd0_lig
 OpenBabel11021811433D
libRbt.so/2013.1/901 2013/11/27
 52 56  0  0  0  0  0  0  0  0999 V2000
    4.1304  -49.5120   14.6309 C   0  0  2  0  0  0  0  0  0  0  0  0
    4.1387  -48.0804   14.5459 O   0  0  0  0  0  0  0  0  0  0  0  0
    4.7809  -44.8721   11.6845 C   0  0  2  0  0  0  0  0  0  0  0  0
    4.8275  -44.1125   10.4244 N   0  0  0  0  0  0  0  0  0  0  0  0
    1.1424  -47.3152   12.7767 C   0  0  1  0  0  0  0  0  0  0  0  0
   -0.6856  -48.0362    8.6932 C   0  0  1  0  0  0  0  0  0  0  0  0
   -3.1489  -52.0855    7.3118 C   0  0  1  0  0  0  0  0  0  0  0  0
    3.4725  -49.9279   15.9969 C   0  0  2  0  0  0  0  0  0  0  0  0
    2.1293  -49.3836   16.1400 N   0  0  0  0  0  0  0  0  0  0  0  0
    5.6387  -46.2066   11.5568 C   0  0  0  0  0  0  0  0  0  0  0  0
    0.5139  -46.3729   11.7664 C   0  0  2  0  0  0  0  0  0  0  0  0
   -0.8347  -45.9781   12.1451 O   0  0  0  0  0  0  0  0  0  0  0  0
   -2.1797  -48.5589    8.4616 C   0  0  2  0  0  0  0  0  0  0  0  0
   -2.5369  -49.5854    9.4785 N   0  0  0  0  0  0  0  0  0  0  0  0
   -2.7498  -52.8329    6.0196 C   0  0  1  0  0  0  0  0  0  0  0  0
   -1.8023  -53.8777    6.3520 O   0  0  0  0  0  0  0  0  0  0  0  0
    4.3939  -49.5042   17.2001 C   0  0  0  0  0  0  0  0  0  0  0  0
    5.5956  -47.0265   12.9335 C   0  0  2  0  0  0  0  0  0  0  0  0
    6.3793  -48.2671   12.8413 N   0  0  0  0  0  0  0  0  0  0  0  0
    0.6435  -47.1391   10.4607 C   0  0  2  0  0  0  0  0  0  0  0  0
   -0.5970  -47.6265   10.0266 O   0  0  0  0  0  0  0  0  0  0  0  0
   -2.2897  -49.0368    6.9219 C   0  0  1  0  0  0  0  0  0  0  0  0
   -1.9241  -47.9248    6.0847 O   0  0  0  0  0  0  0  0  0  0  0  0
   -3.8907  -53.4665    5.1784 C   0  0  1  0  0  0  0  0  0  0  0  0
   -4.0438  -54.8287    5.5972 O   0  0  0  0  0  0  0  0  0  0  0  0
    5.8108  -50.1295   16.9848 C   0  0  2  0  0  0  0  0  0  0  0  0
    6.6721  -49.7837   18.0650 O   0  0  0  0  0  0  0  0  0  0  0  0
    4.1174  -47.3529   13.2859 C   0  0  2  0  0  0  0  0  0  0  0  0
    1.5113  -48.3961   10.7079 C   0  0  2  0  0  0  0  0  0  0  0  0
    1.9693  -48.1971   12.0376 O   0  0  0  0  0  0  0  0  0  0  0  0
   -1.2488  -50.2272    6.5849 C   0  0  2  0  0  0  0  0  0  0  0  0
   -1.6623  -51.3181    7.4291 O   0  0  0  0  0  0  0  0  0  0  0  0
   -5.2656  -52.7637    5.2587 C   0  0  2  0  0  0  0  0  0  0  0  0
   -5.7873  -52.7686    3.9117 O   0  0  0  0  0  0  0  0  0  0  0  0
    6.4069  -49.6113   15.6448 C   0  0  2  0  0  0  0  0  0  0  0  0
    5.4927  -50.0049   14.5499 O   0  0  0  0  0  0  0  0  0  0  0  0
    3.2207  -46.0799   13.3662 C   0  0  2  0  0  0  0  0  0  0  0  0
    1.8704  -46.5157   13.6541 O   0  0  0  0  0  0  0  0  0  0  0  0
    2.7268  -48.5321    9.7977 C   0  0  0  0  0  0  0  0  0  0  0  0
    3.4322  -47.2827    9.8481 O   0  0  0  0  0  0  0  0  0  0  0  0
    0.1046  -49.7343    7.0610 C   0  0  1  0  0  0  0  0  0  0  0  0
    0.3498  -49.1210    8.3440 O   0  0  0  0  0  0  0  0  0  0  0  0
   -5.1325  -51.3658    5.8567 C   0  0  2  0  0  0  0  0  0  0  0  0
   -4.4081  -51.3086    7.1166 O   0  0  0  0  0  0  0  0  0  0  0  0
    7.7514  -50.2023   15.3615 C   0  0  0  0  0  0  0  0  0  0  0  0
    8.6553  -49.6966   16.3064 O   0  0  0  0  0  0  0  0  0  0  0  0
    3.2895  -45.2843   12.0116 C   0  0  1  0  0  0  0  0  0  0  0  0
    2.4758  -44.0676   12.1424 O   0  0  0  0  0  0  0  0  0  0  0  0
    1.2528  -50.7855    6.8581 C   0  0  0  0  0  0  0  0  0  0  0  0
    1.4176  -51.2217    5.4503 N   0  0  0  0  0  0  0  0  0  0  0  0
   -6.3410  -50.4547    6.0599 C   0  0  0  0  0  0  0  0  0  0  0  0
   -7.2845  -51.0629    6.9951 O   0  0  0  0  0  0  0  0  0  0  0  0
  1  2  1  1  0  0  0
  1  8  1  0  0  0  0
  1 36  1  0  0  0  0
  3  4  1  6  0  0  0
  3 10  1  0  0  0  0
  3 47  1  0  0  0  0
  5 11  1  0  0  0  0
  5 30  1  0  0  0  0
  5 38  1  1  0  0  0
  6 21  1  1  0  0  0
  6 42  1  0  0  0  0
  7 15  1  0  0  0  0
  7 44  1  0  0  0  0
  7 32  1  6  0  0  0
  8  9  1  1  0  0  0
  8 17  1  0  0  0  0
 11 12  1  1  0  0  0
 11 20  1  0  0  0  0
 13  6  1  0  0  0  0
 13 14  1  1  0  0  0
 15 16  1  1  0  0  0
 15 24  1  0  0  0  0
 17 26  1  0  0  0  0
 18 10  1  0  0  0  0
 18 19  1  6  0  0  0
 20 21  1  1  0  0  0
 20 29  1  0  0  0  0
 22 13  1  0  0  0  0
 22 23  1  6  0  0  0
 24 25  1  1  0  0  0
 24 33  1  0  0  0  0
 26 27  1  1  0  0  0
 26 35  1  0  0  0  0
 28  2  1  1  0  0  0
 28 18  1  0  0  0  0
 29 30  1  0  0  0  0
 29 39  1  6  0  0  0
 31 22  1  0  0  0  0
 31 32  1  1  0  0  0
 31 41  1  0  0  0  0
 33 34  1  6  0  0  0
 33 43  1  0  0  0  0
 35 36  1  0  0  0  0
 35 45  1  6  0  0  0
 37 28  1  0  0  0  0
 37 38  1  6  0  0  0
 39 40  1  0  0  0  0
 41 42  1  0  0  0  0
 41 49  1  1  0  0  0
 43 44  1  0  0  0  0
 43 51  1  1  0  0  0
 45 46  1  0  0  0  0
 47 37  1  0  0  0  0
 47 48  1  1  0  0  0
 49 50  1  0  0  0  0
 51 52  1  0  0  0  0
M  END
>  <CHROM.1>
-152.70693088,-84.15361211,179.32717903,74.11262120,163.73222544,-95.05172703
50.54393452,63.35260578,-68.02519529,-63.33797323,57.48991865,62.19305605
0.98583522,-49.14881819,10.49076216,-0.15462879,0.78514020,2.97837079

>  <Name>
2fd0_lig

>  <RI>
2.00683e+07

>  <Rbt.Current_Directory>
/home/itssahil/PROJECTS/Mol_Feturizer/New_Systems/rnas/2fd0

>  <Rbt.Executable>
rbdock ($Id: //depot/dev/client3/rdock/2013.1/src/exe/rbdock.cxx#4 $)

>  <Rbt.Library>
libRbt.so (2013.1, Build901 2013/11/27)

>  <Rbt.Parameter_File>
/export/apps/rDock/src/rDock_2013.1_src/data/scripts/dock_solv.prm

>  <Rbt.Receptor>
prm/pocket_docking_4.prm

>  <SCORE>
-12.5111

>  <SCORE.INTER>
-10.4375

>  <SCORE.INTER.CONST>
1

>  <SCORE.INTER.POLAR>
-1.8546

>  <SCORE.INTER.ROT>
12

>  <SCORE.INTER.SOLV>
15.1702

>  <SCORE.INTER.VDW>
-17.4331

>  <SCORE.INTER.norm>
-0.200721

>  <SCORE.INTRA>
-2.07356

>  <SCORE.INTRA.DIHEDRAL>
-9.32254

>  <SCORE.INTRA.DIHEDRAL.0>
23.9727

>  <SCORE.INTRA.POLAR>
0

>  <SCORE.INTRA.POLAR.0>
0

>  <SCORE.INTRA.REPUL>
0

>  <SCORE.INTRA.REPUL.0>
0

>  <SCORE.INTRA.SOLV>
2.69981

>  <SCORE.INTRA.SOLV.lig_0>
-115.028

>  <SCORE.INTRA.VDW>
1.23781

>  <SCORE.INTRA.VDW.0>
-6.82393

>  <SCORE.INTRA.norm>
-0.0398761

>  <SCORE.RESTR>
0

>  <SCORE.RESTR.CAVITY>
0

>  <SCORE.RESTR.norm>
0

>  <SCORE.SYSTEM>
0

>  <SCORE.SYSTEM.CONST>
0

>  <SCORE.SYSTEM.DIHEDRAL>
0

>  <SCORE.SYSTEM.SOLV>
0

>  <SCORE.SYSTEM.norm>
0

>  <SCORE.heavy>
52

>  <SCORE.norm>
-0.240597

>  <RMSD>
3.185

$$$$
2fd0_lig
 OpenBabel11021811433D
libRbt.so/2013.1/901 2013/11/27
 52 56  0  0  0  0  0  0  0  0999 V2000
    5.5110  -48.1449   15.5355 C   0  0  2  0  0  0  0  0  0  0  0  0
    6.3517  -48.6853   14.5068 O   0  0  0  0  0  0  0  0  0  0  0  0
    7.8521  -45.1480   12.4748 C   0  0  2  0  0  0  0  0  0  0  0  0
    8.6702  -44.2652   11.6272 N   0  0  0  0  0  0  0  0  0  0  0  0
    4.3808  -48.3628   11.3802 C   0  0  1  0  0  0  0  0  0  0  0  0
    1.1955  -47.9521    8.1119 C   0  0  1  0  0  0  0  0  0  0  0  0
   -2.1124  -51.8133    7.2958 C   0  0  1  0  0  0  0  0  0  0  0  0
    4.9509  -49.3331   16.3991 C   0  0  2  0  0  0  0  0  0  0  0  0
    6.0203  -50.1441   16.9643 N   0  0  0  0  0  0  0  0  0  0  0  0
    8.7593  -45.8505   13.5778 C   0  0  0  0  0  0  0  0  0  0  0  0
    4.2169  -47.5705   10.0961 C   0  0  2  0  0  0  0  0  0  0  0  0
    3.8520  -46.1840   10.3462 O   0  0  0  0  0  0  0  0  0  0  0  0
   -0.2886  -48.3235    8.5799 C   0  0  2  0  0  0  0  0  0  0  0  0
   -0.2650  -49.4713    9.5272 N   0  0  0  0  0  0  0  0  0  0  0  0
   -1.8120  -52.6461    6.0293 C   0  0  1  0  0  0  0  0  0  0  0  0
   -0.7304  -53.5671    6.3154 O   0  0  0  0  0  0  0  0  0  0  0  0
    3.9569  -50.2075   15.5483 C   0  0  0  0  0  0  0  0  0  0  0  0
    7.8645  -46.8026   14.5063 C   0  0  2  0  0  0  0  0  0  0  0  0
    8.6802  -47.4668   15.5336 N   0  0  0  0  0  0  0  0  0  0  0  0
    3.2088  -48.3955    9.3140 C   0  0  2  0  0  0  0  0  0  0  0  0
    1.9562  -47.7681    9.2701 O   0  0  0  0  0  0  0  0  0  0  0  0
   -1.1743  -48.5402    7.2460 C   0  0  1  0  0  0  0  0  0  0  0  0
   -1.0942  -47.3375    6.4596 O   0  0  0  0  0  0  0  0  0  0  0  0
   -2.9839  -53.4557    5.4110 C   0  0  1  0  0  0  0  0  0  0  0  0
   -2.9454  -54.7785    5.9616 O   0  0  0  0  0  0  0  0  0  0  0  0
    2.8351  -49.2764   14.9833 C   0  0  2  0  0  0  0  0  0  0  0  0
    1.9021  -50.0348   14.2202 O   0  0  0  0  0  0  0  0  0  0  0  0
    7.1575  -47.8631   13.6169 C   0  0  2  0  0  0  0  0  0  0  0  0
    2.9710  -49.7281   10.0638 C   0  0  2  0  0  0  0  0  0  0  0  0
    3.9500  -49.6815   11.0919 O   0  0  0  0  0  0  0  0  0  0  0  0
   -0.5910  -49.7324    6.3226 C   0  0  2  0  0  0  0  0  0  0  0  0
   -0.7067  -50.9120    7.1404 O   0  0  0  0  0  0  0  0  0  0  0  0
   -4.3996  -52.8705    5.6204 C   0  0  2  0  0  0  0  0  0  0  0  0
   -5.0884  -53.0525    4.3639 O   0  0  0  0  0  0  0  0  0  0  0  0
    3.4771  -48.1747   14.0924 C   0  0  2  0  0  0  0  0  0  0  0  0
    4.4247  -47.4014   14.9252 O   0  0  0  0  0  0  0  0  0  0  0  0
    6.3000  -47.2245   12.4821 C   0  0  2  0  0  0  0  0  0  0  0  0
    5.7342  -48.3056   11.7027 O   0  0  0  0  0  0  0  0  0  0  0  0
    3.2049  -50.9868    9.2360 C   0  0  0  0  0  0  0  0  0  0  0  0
    2.0247  -51.7953    9.3569 O   0  0  0  0  0  0  0  0  0  0  0  0
    0.8811  -49.4193    6.1320 C   0  0  1  0  0  0  0  0  0  0  0  0
    1.7829  -49.0379    7.1919 O   0  0  0  0  0  0  0  0  0  0  0  0
   -4.3294  -51.4145    6.0729 C   0  0  2  0  0  0  0  0  0  0  0  0
   -3.4570  -51.1716    7.2110 O   0  0  0  0  0  0  0  0  0  0  0  0
    2.4568  -47.2260   13.5482 C   0  0  0  0  0  0  0  0  0  0  0  0
    1.5363  -47.9657   12.7924 O   0  0  0  0  0  0  0  0  0  0  0  0
    7.1938  -46.2843   11.5934 C   0  0  1  0  0  0  0  0  0  0  0  0
    6.3432  -45.6617   10.5696 O   0  0  0  0  0  0  0  0  0  0  0  0
    1.6403  -50.5035    5.2878 C   0  0  0  0  0  0  0  0  0  0  0  0
    1.5877  -51.8623    5.8797 N   0  0  0  0  0  0  0  0  0  0  0  0
   -5.5858  -50.5963    6.3627 C   0  0  0  0  0  0  0  0  0  0  0  0
   -6.4650  -50.5844    5.1959 O   0  0  0  0  0  0  0  0  0  0  0  0
  1  2  1  6  0  0  0
  1  8  1  0  0  0  0
  1 36  1  0  0  0  0
  3  4  1  6  0  0  0
  3 10  1  0  0  0  0
  3 47  1  0  0  0  0
  5 11  1  0  0  0  0
  5 30  1  0  0  0  0
  5 38  1  6  0  0  0
  6 21  1  1  0  0  0
  6 42  1  0  0  0  0
  7 15  1  0  0  0  0
  7 44  1  0  0  0  0
  7 32  1  6  0  0  0
  8  9  1  6  0  0  0
  8 17  1  0  0  0  0
 11 12  1  1  0  0  0
 11 20  1  0  0  0  0
 13  6  1  0  0  0  0
 13 14  1  6  0  0  0
 15 16  1  1  0  0  0
 15 24  1  0  0  0  0
 17 26  1  0  0  0  0
 18 10  1  0  0  0  0
 18 19  1  1  0  0  0
 20 21  1  1  0  0  0
 20 29  1  0  0  0  0
 22 13  1  0  0  0  0
 22 23  1  6  0  0  0
 24 25  1  1  0  0  0
 24 33  1  0  0  0  0
 26 27  1  6  0  0  0
 26 35  1  0  0  0  0
 28  2  1  1  0  0  0
 28 18  1  0  0  0  0
 29 30  1  0  0  0  0
 29 39  1  6  0  0  0
 31 22  1  0  0  0  0
 31 32  1  1  0  0  0
 31 41  1  0  0  0  0
 33 34  1  6  0  0  0
 33 43  1  0  0  0  0
 35 36  1  0  0  0  0
 35 45  1  1  0  0  0
 37 28  1  0  0  0  0
 37 38  1  6  0  0  0
 39 40  1  0  0  0  0
 41 42  1  0  0  0  0
 41 49  1  1  0  0  0
 43 44  1  0  0  0  0
 43 51  1  1  0  0  0
 45 46  1  0  0  0  0
 47 37  1  0  0  0  0
 47 48  1  6  0  0  0
 49 50  1  0  0  0  0
 51 52  1  0  0  0  0
M  END
>  <CHROM.1>
-172.79541476,87.05544788,133.17139023,85.27842152,146.67625009,45.64206740
-127.55806539,82.87593242,-59.11987496,130.69291409,-59.14048105,-56.34077506
2.07544519,-49.27529322,10.06088269,0.46554667,0.63852762,1.94763326

>  <Name>
2fd0_lig

>  <RI>
2.89522e+07

>  <Rbt.Current_Directory>
/home/itssahil/PROJECTS/Mol_Feturizer/New_Systems/rnas/2fd0

>  <Rbt.Executable>
rbdock ($Id: //depot/dev/client3/rdock/2013.1/src/exe/rbdock.cxx#4 $)

>  <Rbt.Library>
libRbt.so (2013.1, Build901 2013/11/27)

>  <Rbt.Parameter_File>
/export/apps/rDock/src/rDock_2013.1_src/data/scripts/dock_solv.prm

>  <Rbt.Receptor>
prm/pocket_docking_2.prm

>  <SCORE>
4.213

>  <SCORE.INTER>
-5.94352

>  <SCORE.INTER.CONST>
1

>  <SCORE.INTER.POLAR>
-0.0293452

>  <SCORE.INTER.ROT>
12

>  <SCORE.INTER.SOLV>
14.242

>  <SCORE.INTER.VDW>
-20.2119

>  <SCORE.INTER.norm>
-0.114299

>  <SCORE.INTRA>
6.75967

>  <SCORE.INTRA.DIHEDRAL>
8.96852

>  <SCORE.INTRA.DIHEDRAL.0>
23.9727

>  <SCORE.INTRA.POLAR>
0

>  <SCORE.INTRA.POLAR.0>
0

>  <SCORE.INTRA.REPUL>
0

>  <SCORE.INTRA.REPUL.0>
0

>  <SCORE.INTRA.SOLV>
5.36958

>  <SCORE.INTRA.SOLV.lig_0>
-115.028

>  <SCORE.INTRA.VDW>
-0.40938

>  <SCORE.INTRA.VDW.0>
-6.82393

>  <SCORE.INTRA.norm>
0.129994

>  <SCORE.RESTR>
3.39685

>  <SCORE.RESTR.CAVITY>
3.39685

>  <SCORE.RESTR.norm>
0.065324

>  <SCORE.SYSTEM>
0

>  <SCORE.SYSTEM.CONST>
0

>  <SCORE.SYSTEM.DIHEDRAL>
0

>  <SCORE.SYSTEM.SOLV>
0

>  <SCORE.SYSTEM.norm>
0

>  <SCORE.heavy>
52

>  <SCORE.norm>
0.0810192

>  <RMSD>
3.265

$$$$
2fd0_lig
 OpenBabel11021811433D
libRbt.so/2013.1/901 2013/11/27
 52 56  0  0  0  0  0  0  0  0999 V2000
    4.7231  -50.0403   15.5383 C   0  0  2  0  0  0  0  0  0  0  0  0
    5.4112  -48.7820   15.5269 O   0  0  0  0  0  0  0  0  0  0  0  0
    4.4407  -44.6566   14.5615 C   0  0  2  0  0  0  0  0  0  0  0  0
    4.0426  -43.4536   13.8123 N   0  0  0  0  0  0  0  0  0  0  0  0
    1.7874  -48.1505   14.2067 C   0  0  1  0  0  0  0  0  0  0  0  0
    2.0624  -49.7502   10.2086 C   0  0  1  0  0  0  0  0  0  0  0  0
    0.7328  -50.2386    5.2415 C   0  0  1  0  0  0  0  0  0  0  0  0
    4.1389  -50.2776   16.9784 C   0  0  2  0  0  0  0  0  0  0  0  0
    3.2603  -49.1927   17.3929 N   0  0  0  0  0  0  0  0  0  0  0  0
    5.7155  -45.3302   13.8874 C   0  0  0  0  0  0  0  0  0  0  0  0
    2.5923  -48.8840   13.1495 C   0  0  2  0  0  0  0  0  0  0  0  0
    3.2475  -47.9719   12.2238 O   0  0  0  0  0  0  0  0  0  0  0  0
    1.7367  -48.7510    9.0024 C   0  0  2  0  0  0  0  0  0  0  0  0
    0.2853  -48.7851    8.6741 N   0  0  0  0  0  0  0  0  0  0  0  0
   -0.7713  -50.2241    5.5957 C   0  0  1  0  0  0  0  0  0  0  0  0
   -1.0493  -49.0706    6.4275 O   0  0  0  0  0  0  0  0  0  0  0  0
    5.3041  -50.4985   18.0127 C   0  0  0  0  0  0  0  0  0  0  0  0
    6.1538  -46.6335   14.7112 C   0  0  2  0  0  0  0  0  0  0  0  0
    7.3295  -47.2772   14.1069 N   0  0  0  0  0  0  0  0  0  0  0  0
    1.5720  -49.8323   12.5427 C   0  0  2  0  0  0  0  0  0  0  0  0
    1.1951  -49.4251   11.2554 O   0  0  0  0  0  0  0  0  0  0  0  0
    2.7342  -49.1221    7.7867 C   0  0  1  0  0  0  0  0  0  0  0  0
    4.0845  -49.0265    8.2753 O   0  0  0  0  0  0  0  0  0  0  0  0
   -1.7834  -50.2247    4.4182 C   0  0  1  0  0  0  0  0  0  0  0  0
   -2.1166  -48.8626    4.1217 O   0  0  0  0  0  0  0  0  0  0  0  0
    6.1975  -51.6791   17.5098 C   0  0  2  0  0  0  0  0  0  0  0  0
    7.2563  -51.9235   18.4302 O   0  0  0  0  0  0  0  0  0  0  0  0
    4.9629  -47.6311   14.7577 C   0  0  2  0  0  0  0  0  0  0  0  0
    0.2756  -49.7706   13.3854 C   0  0  2  0  0  0  0  0  0  0  0  0
    0.6651  -48.9677   14.4905 O   0  0  0  0  0  0  0  0  0  0  0  0
    2.5335  -50.6465    7.2867 C   0  0  2  0  0  0  0  0  0  0  0  0
    1.1814  -50.6896    6.7932 O   0  0  0  0  0  0  0  0  0  0  0  0
   -1.3132  -50.9164    3.1178 C   0  0  2  0  0  0  0  0  0  0  0  0
   -2.4564  -51.6527    2.6304 O   0  0  0  0  0  0  0  0  0  0  0  0
    6.7813  -51.3269   16.1116 C   0  0  2  0  0  0  0  0  0  0  0  0
    5.6516  -51.0975   15.1839 O   0  0  0  0  0  0  0  0  0  0  0  0
    3.6698  -47.0001   15.3582 C   0  0  2  0  0  0  0  0  0  0  0  0
    2.6296  -48.0057   15.3061 O   0  0  0  0  0  0  0  0  0  0  0  0
   -0.2146  -51.1127   13.9173 C   0  0  0  0  0  0  0  0  0  0  0  0
   -0.6435  -51.8830   12.7843 O   0  0  0  0  0  0  0  0  0  0  0  0
    2.6189  -51.5017    8.5369 C   0  0  1  0  0  0  0  0  0  0  0  0
    1.9279  -51.2206    9.7721 O   0  0  0  0  0  0  0  0  0  0  0  0
   -0.0882  -51.7902    3.3737 C   0  0  2  0  0  0  0  0  0  0  0  0
    1.0008  -51.1234    4.0700 O   0  0  0  0  0  0  0  0  0  0  0  0
    7.6195  -52.4346   15.5569 C   0  0  0  0  0  0  0  0  0  0  0  0
    8.7837  -52.5279   16.3326 O   0  0  0  0  0  0  0  0  0  0  0  0
    3.2668  -45.7163   14.5444 C   0  0  1  0  0  0  0  0  0  0  0  0
    2.0774  -45.1211   15.1693 O   0  0  0  0  0  0  0  0  0  0  0  0
    2.3994  -53.0307    8.2572 C   0  0  0  0  0  0  0  0  0  0  0  0
    3.5864  -53.7059    7.6788 N   0  0  0  0  0  0  0  0  0  0  0  0
    0.5890  -52.5805    2.2563 C   0  0  0  0  0  0  0  0  0  0  0  0
    1.4628  -53.6079    2.8180 O   0  0  0  0  0  0  0  0  0  0  0  0
  1  2  1  1  0  0  0
  1  8  1  0  0  0  0
  1 36  1  0  0  0  0
  3  4  1  6  0  0  0
  3 10  1  0  0  0  0
  3 47  1  0  0  0  0
  5 11  1  0  0  0  0
  5 30  1  0  0  0  0
  5 38  1  1  0  0  0
  6 21  1  1  0  0  0
  6 42  1  0  0  0  0
  7 15  1  0  0  0  0
  7 44  1  0  0  0  0
  7 32  1  1  0  0  0
  8  9  1  1  0  0  0
  8 17  1  0  0  0  0
 11 12  1  6  0  0  0
 11 20  1  0  0  0  0
 13  6  1  0  0  0  0
 13 14  1  6  0  0  0
 15 16  1  6  0  0  0
 15 24  1  0  0  0  0
 17 26  1  0  0  0  0
 18 10  1  0  0  0  0
 18 19  1  6  0  0  0
 20 21  1  6  0  0  0
 20 29  1  0  0  0  0
 22 13  1  0  0  0  0
 22 23  1  1  0  0  0
 24 25  1  6  0  0  0
 24 33  1  0  0  0  0
 26 27  1  1  0  0  0
 26 35  1  0  0  0  0
 28  2  1  1  0  0  0
 28 18  1  0  0  0  0
 29 30  1  0  0  0  0
 29 39  1  1  0  0  0
 31 22  1  0  0  0  0
 31 32  1  1  0  0  0
 31 41  1  0  0  0  0
 33 34  1  1  0  0  0
 33 43  1  0  0  0  0
 35 36  1  0  0  0  0
 35 45  1  6  0  0  0
 37 28  1  0  0  0  0
 37 38  1  6  0  0  0
 39 40  1  0  0  0  0
 41 42  1  0  0  0  0
 41 49  1  6  0  0  0
 43 44  1  0  0  0  0
 43 51  1  6  0  0  0
 45 46  1  0  0  0  0
 47 37  1  0  0  0  0
 47 48  1  1  0  0  0
 49 50  1  0  0  0  0
 51 52  1  0  0  0  0
M  END
>  <CHROM.1>
-113.37683155,77.91343675,-159.02066293,-167.17767756,80.40409317,-165.10259233
-67.93376545,84.65675405,-68.91267516,-89.60250232,77.80144948,-163.56792082
2.66024294,-49.70430676,11.18583193,-0.81617131,0.92297127,-2.38937250

>  <Name>
2fd0_lig

>  <RI>
3.4301e+07

>  <Rbt.Current_Directory>
/home/itssahil/PROJECTS/Mol_Feturizer/New_Systems/rnas/2fd0

>  <Rbt.Executable>
rbdock ($Id: //depot/dev/client3/rdock/2013.1/src/exe/rbdock.cxx#4 $)

>  <Rbt.Library>
libRbt.so (2013.1, Build901 2013/11/27)

>  <Rbt.Parameter_File>
/export/apps/rDock/src/rDock_2013.1_src/data/scripts/dock_solv.prm

>  <Rbt.Receptor>
prm/pocket_docking_7.prm

>  <SCORE>
-20.0293

>  <SCORE.INTER>
-21.3429

>  <SCORE.INTER.CONST>
1

>  <SCORE.INTER.POLAR>
-1.8149

>  <SCORE.INTER.ROT>
12

>  <SCORE.INTER.SOLV>
16.9614

>  <SCORE.INTER.VDW>
-25.4327

>  <SCORE.INTER.norm>
-0.41044

>  <SCORE.INTRA>
1.31353

>  <SCORE.INTRA.DIHEDRAL>
-0.23072

>  <SCORE.INTRA.DIHEDRAL.0>
23.9727

>  <SCORE.INTRA.POLAR>
0

>  <SCORE.INTRA.POLAR.0>
0

>  <SCORE.INTRA.REPUL>
0

>  <SCORE.INTRA.REPUL.0>
0

>  <SCORE.INTRA.SOLV>
-0.131258

>  <SCORE.INTRA.SOLV.lig_0>
-115.028

>  <SCORE.INTRA.VDW>
1.49452

>  <SCORE.INTRA.VDW.0>
-6.82393

>  <SCORE.INTRA.norm>
0.0252603

>  <SCORE.RESTR>
0

>  <SCORE.RESTR.CAVITY>
0

>  <SCORE.RESTR.norm>
0

>  <SCORE.SYSTEM>
0

>  <SCORE.SYSTEM.CONST>
0

>  <SCORE.SYSTEM.DIHEDRAL>
0

>  <SCORE.SYSTEM.SOLV>
0

>  <SCORE.SYSTEM.norm>
0

>  <SCORE.heavy>
52

>  <SCORE.norm>
-0.385179

>  <RMSD>
3.288

$$$$
2fd0_lig
 OpenBabel11021811433D
libRbt.so/2013.1/901 2013/11/27
 52 56  0  0  0  0  0  0  0  0999 V2000
    6.3284  -47.1917   16.1256 C   0  0  2  0  0  0  0  0  0  0  0  0
    6.7018  -47.8283   14.8958 O   0  0  0  0  0  0  0  0  0  0  0  0
    5.5782  -44.9256   11.8619 C   0  0  2  0  0  0  0  0  0  0  0  0
    5.5014  -44.1991   10.5839 N   0  0  0  0  0  0  0  0  0  0  0  0
    3.5677  -48.9846   12.3407 C   0  0  1  0  0  0  0  0  0  0  0  0
    1.0334  -50.4006   10.6786 C   0  0  1  0  0  0  0  0  0  0  0  0
   -0.5565  -51.6427    6.1594 C   0  0  1  0  0  0  0  0  0  0  0  0
    6.5142  -48.2220   17.2984 C   0  0  2  0  0  0  0  0  0  0  0  0
    7.8767  -48.7322   17.3615 N   0  0  0  0  0  0  0  0  0  0  0  0
    7.0773  -44.9465   12.3959 C   0  0  0  0  0  0  0  0  0  0  0  0
    3.5933  -50.5004   12.2678 C   0  0  2  0  0  0  0  0  0  0  0  0
    4.0073  -50.9826   10.9585 O   0  0  0  0  0  0  0  0  0  0  0  0
   -0.2613  -50.9831    9.9411 C   0  0  2  0  0  0  0  0  0  0  0  0
    0.0064  -52.3514    9.4201 N   0  0  0  0  0  0  0  0  0  0  0  0
   -0.5636  -50.5116    5.1066 C   0  0  1  0  0  0  0  0  0  0  0  0
    0.6515  -50.5902    4.3209 O   0  0  0  0  0  0  0  0  0  0  0  0
    5.4694  -49.3918   17.1704 C   0  0  0  0  0  0  0  0  0  0  0  0
    7.1567  -45.7284   13.7929 C   0  0  2  0  0  0  0  0  0  0  0  0
    8.5336  -45.7645   14.3075 N   0  0  0  0  0  0  0  0  0  0  0  0
    2.1911  -50.8855   12.7083 C   0  0  2  0  0  0  0  0  0  0  0  0
    1.4233  -51.3472   11.6303 O   0  0  0  0  0  0  0  0  0  0  0  0
   -0.7173  -49.8949    8.8371 C   0  0  1  0  0  0  0  0  0  0  0  0
   -0.9437  -48.6447    9.5131 O   0  0  0  0  0  0  0  0  0  0  0  0
   -1.7677  -50.4529    4.1280 C   0  0  1  0  0  0  0  0  0  0  0  0
   -1.4123  -51.1825    2.9466 O   0  0  0  0  0  0  0  0  0  0  0  0
    4.0346  -48.7727   17.1178 C   0  0  2  0  0  0  0  0  0  0  0  0
    3.0560  -49.8027   17.0201 O   0  0  0  0  0  0  0  0  0  0  0  0
    6.6205  -47.1742   13.5986 C   0  0  2  0  0  0  0  0  0  0  0  0
    1.4639  -49.6160   13.2124 C   0  0  2  0  0  0  0  0  0  0  0  0
    2.5014  -48.6460   13.2104 O   0  0  0  0  0  0  0  0  0  0  0  0
    0.4430  -49.6227    7.7445 C   0  0  2  0  0  0  0  0  0  0  0  0
    0.6223  -50.8902    7.0850 O   0  0  0  0  0  0  0  0  0  0  0  0
   -3.1092  -51.0011    4.6668 C   0  0  2  0  0  0  0  0  0  0  0  0
   -4.1229  -50.0841    4.1998 O   0  0  0  0  0  0  0  0  0  0  0  0
    3.9264  -47.8209   15.8922 C   0  0  2  0  0  0  0  0  0  0  0  0
    4.9461  -46.7590   16.0408 O   0  0  0  0  0  0  0  0  0  0  0  0
    5.1726  -47.2086   13.0213 C   0  0  2  0  0  0  0  0  0  0  0  0
    4.8067  -48.5983   12.8454 O   0  0  0  0  0  0  0  0  0  0  0  0
    0.9000  -49.7117   14.6257 C   0  0  0  0  0  0  0  0  0  0  0  0
   -0.1795  -50.6573   14.5849 O   0  0  0  0  0  0  0  0  0  0  0  0
    1.6941  -49.3134    8.5448 C   0  0  1  0  0  0  0  0  0  0  0  0
    2.1566  -50.0826    9.6747 O   0  0  0  0  0  0  0  0  0  0  0  0
   -3.0712  -51.1472    6.1857 C   0  0  2  0  0  0  0  0  0  0  0  0
   -1.9270  -51.8844    6.6982 O   0  0  0  0  0  0  0  0  0  0  0  0
    2.5843  -47.1664   15.8052 C   0  0  0  0  0  0  0  0  0  0  0  0
    2.6408  -46.1930   14.7978 O   0  0  0  0  0  0  0  0  0  0  0  0
    5.1150  -46.4242   11.6597 C   0  0  1  0  0  0  0  0  0  0  0  0
    3.7284  -46.4337   11.1732 O   0  0  0  0  0  0  0  0  0  0  0  0
    2.9571  -49.0625    7.6468 C   0  0  0  0  0  0  0  0  0  0  0  0
    4.1332  -48.5645    8.4005 N   0  0  0  0  0  0  0  0  0  0  0  0
   -4.2641  -51.6788    6.9770 C   0  0  0  0  0  0  0  0  0  0  0  0
   -5.4188  -50.7999    6.8074 O   0  0  0  0  0  0  0  0  0  0  0  0
  1  2  1  6  0  0  0
  1  8  1  0  0  0  0
  1 36  1  0  0  0  0
  3  4  1  6  0  0  0
  3 10  1  0  0  0  0
  3 47  1  0  0  0  0
  5 11  1  0  0  0  0
  5 30  1  0  0  0  0
  5 38  1  1  0  0  0
  6 21  1  1  0  0  0
  6 42  1  0  0  0  0
  7 15  1  0  0  0  0
  7 44  1  0  0  0  0
  7 32  1  1  0  0  0
  8  9  1  6  0  0  0
  8 17  1  0  0  0  0
 11 12  1  6  0  0  0
 11 20  1  0  0  0  0
 13  6  1  0  0  0  0
 13 14  1  6  0  0  0
 15 16  1  6  0  0  0
 15 24  1  0  0  0  0
 17 26  1  0  0  0  0
 18 10  1  0  0  0  0
 18 19  1  6  0  0  0
 20 21  1  6  0  0  0
 20 29  1  0  0  0  0
 22 13  1  0  0  0  0
 22 23  1  1  0  0  0
 24 25  1  6  0  0  0
 24 33  1  0  0  0  0
 26 27  1  6  0  0  0
 26 35  1  0  0  0  0
 28  2  1  1  0  0  0
 28 18  1  0  0  0  0
 29 30  1  0  0  0  0
 29 39  1  1  0  0  0
 31 22  1  0  0  0  0
 31 32  1  1  0  0  0
 31 41  1  0  0  0  0
 33 34  1  1  0  0  0
 33 43  1  0  0  0  0
 35 36  1  0  0  0  0
 35 45  1  1  0  0  0
 37 28  1  0  0  0  0
 37 38  1  6  0  0  0
 39 40  1  0  0  0  0
 41 42  1  0  0  0  0
 41 49  1  6  0  0  0
 43 44  1  0  0  0  0
 43 51  1  6  0  0  0
 45 46  1  0  0  0  0
 47 37  1  0  0  0  0
 47 48  1  1  0  0  0
 49 50  1  0  0  0  0
 51 52  1  0  0  0  0
M  END
>  <CHROM.1>
178.37929627,178.12974575,-157.07589270,64.10303255,-70.44873824,42.61792297
-68.26616699,64.32584608,171.65670858,-179.87069423,171.44715403,-61.69986039
2.22656424,-49.08756077,11.04990510,0.75928574,0.58552885,1.74102705

>  <Name>
2fd0_lig

>  <RI>
1.29864e+07

>  <Rbt.Current_Directory>
/home/itssahil/PROJECTS/Mol_Feturizer/New_Systems/rnas/2fd0

>  <Rbt.Executable>
rbdock ($Id: //depot/dev/client3/rdock/2013.1/src/exe/rbdock.cxx#4 $)

>  <Rbt.Library>
libRbt.so (2013.1, Build901 2013/11/27)

>  <Rbt.Parameter_File>
/export/apps/rDock/src/rDock_2013.1_src/data/scripts/dock_solv.prm

>  <Rbt.Receptor>
prm/pocket_docking_3.prm

>  <SCORE>
-18.9484

>  <SCORE.INTER>
-12.3679

>  <SCORE.INTER.CONST>
1

>  <SCORE.INTER.POLAR>
-1.5848

>  <SCORE.INTER.ROT>
12

>  <SCORE.INTER.SOLV>
15.6862

>  <SCORE.INTER.VDW>
-19.7914

>  <SCORE.INTER.norm>
-0.237845

>  <SCORE.INTRA>
-6.58604

>  <SCORE.INTRA.DIHEDRAL>
-17.1448

>  <SCORE.INTRA.DIHEDRAL.0>
23.9727

>  <SCORE.INTRA.POLAR>
0

>  <SCORE.INTRA.POLAR.0>
0

>  <SCORE.INTRA.REPUL>
0

>  <SCORE.INTRA.REPUL.0>
0

>  <SCORE.INTRA.SOLV>
1.05344

>  <SCORE.INTRA.SOLV.lig_0>
-115.028

>  <SCORE.INTRA.VDW>
1.45965

>  <SCORE.INTRA.VDW.0>
-6.82393

>  <SCORE.INTRA.norm>
-0.126655

>  <SCORE.RESTR>
0.00555626

>  <SCORE.RESTR.CAVITY>
0.00555626

>  <SCORE.RESTR.norm>
0.000106851

>  <SCORE.SYSTEM>
0

>  <SCORE.SYSTEM.CONST>
0

>  <SCORE.SYSTEM.DIHEDRAL>
0

>  <SCORE.SYSTEM.SOLV>
0

>  <SCORE.SYSTEM.norm>
0

>  <SCORE.heavy>
52

>  <SCORE.norm>
-0.364393

>  <RMSD>
3.329

$$$$
2fd0_lig
 OpenBabel11021811433D
libRbt.so/2013.1/901 2013/11/27
 52 56  0  0  0  0  0  0  0  0999 V2000
    4.8865  -49.8766   14.9824 C   0  0  2  0  0  0  0  0  0  0  0  0
    5.5753  -48.6188   15.0011 O   0  0  0  0  0  0  0  0  0  0  0  0
    6.6712  -45.9152   11.7789 C   0  0  2  0  0  0  0  0  0  0  0  0
    7.3958  -45.3071   10.6510 N   0  0  0  0  0  0  0  0  0  0  0  0
    3.8670  -49.6774   11.5230 C   0  0  1  0  0  0  0  0  0  0  0  0
    0.0880  -51.8847   10.7072 C   0  0  1  0  0  0  0  0  0  0  0  0
   -2.8864  -52.4078    6.4521 C   0  0  1  0  0  0  0  0  0  0  0  0
    3.9898  -49.9748   16.2700 C   0  0  2  0  0  0  0  0  0  0  0  0
    3.0542  -48.8630   16.3656 N   0  0  0  0  0  0  0  0  0  0  0  0
    7.6245  -46.0340   13.0479 C   0  0  0  0  0  0  0  0  0  0  0  0
    3.5733  -51.1482   11.7557 C   0  0  2  0  0  0  0  0  0  0  0  0
    4.1645  -51.9973   10.7321 O   0  0  0  0  0  0  0  0  0  0  0  0
   -0.2477  -53.3547   10.1726 C   0  0  2  0  0  0  0  0  0  0  0  0
    0.4342  -53.6058    8.8737 N   0  0  0  0  0  0  0  0  0  0  0  0
   -1.7429  -52.9535    5.5676 C   0  0  1  0  0  0  0  0  0  0  0  0
   -1.7073  -54.3978    5.6799 O   0  0  0  0  0  0  0  0  0  0  0  0
    4.8892  -50.0795   17.5571 C   0  0  0  0  0  0  0  0  0  0  0  0
    6.8302  -46.6861   14.2780 C   0  0  2  0  0  0  0  0  0  0  0  0
    7.6904  -46.8097   15.4641 N   0  0  0  0  0  0  0  0  0  0  0  0
    2.0576  -51.1803   11.8561 C   0  0  2  0  0  0  0  0  0  0  0  0
    1.4803  -51.7609   10.7183 O   0  0  0  0  0  0  0  0  0  0  0  0
   -1.8564  -53.5051   10.1547 C   0  0  1  0  0  0  0  0  0  0  0  0
   -2.3417  -53.2425   11.4838 O   0  0  0  0  0  0  0  0  0  0  0  0
   -1.7689  -52.5876    4.0588 C   0  0  1  0  0  0  0  0  0  0  0  0
   -2.4472  -53.6399    3.3610 O   0  0  0  0  0  0  0  0  0  0  0  0
    5.8579  -51.2952   17.3886 C   0  0  2  0  0  0  0  0  0  0  0  0
    6.6790  -51.4358   18.5436 O   0  0  0  0  0  0  0  0  0  0  0  0
    6.2969  -48.0838   13.8564 C   0  0  2  0  0  0  0  0  0  0  0  0
    1.5318  -49.7252   11.8823 C   0  0  2  0  0  0  0  0  0  0  0  0
    2.7291  -48.9673   11.9799 O   0  0  0  0  0  0  0  0  0  0  0  0
   -2.5527  -52.4127    9.1872 C   0  0  2  0  0  0  0  0  0  0  0  0
   -2.0534  -52.7240    7.8729 O   0  0  0  0  0  0  0  0  0  0  0  0
   -2.4356  -51.2403    3.6973 C   0  0  2  0  0  0  0  0  0  0  0  0
   -1.5989  -50.6502    2.6784 O   0  0  0  0  0  0  0  0  0  0  0  0
    6.7461  -51.0785   16.1301 C   0  0  2  0  0  0  0  0  0  0  0  0
    5.8575  -50.9543   14.9535 O   0  0  0  0  0  0  0  0  0  0  0  0
    5.4022  -48.0289   12.5807 C   0  0  2  0  0  0  0  0  0  0  0  0
    5.0078  -49.3861   12.2665 O   0  0  0  0  0  0  0  0  0  0  0  0
    0.6468  -49.3785   13.0743 C   0  0  0  0  0  0  0  0  0  0  0  0
    1.4516  -49.5285   14.2537 O   0  0  0  0  0  0  0  0  0  0  0  0
   -1.9884  -51.0704    9.6130 C   0  0  1  0  0  0  0  0  0  0  0  0
   -0.5890  -50.8045    9.8438 O   0  0  0  0  0  0  0  0  0  0  0  0
   -2.6026  -50.3619    4.9343 C   0  0  2  0  0  0  0  0  0  0  0  0
   -3.2502  -51.0142    6.0616 O   0  0  0  0  0  0  0  0  0  0  0  0
    7.6737  -52.2274   15.8918 C   0  0  0  0  0  0  0  0  0  0  0  0
    8.6049  -52.2578   16.9394 O   0  0  0  0  0  0  0  0  0  0  0  0
    6.1957  -47.3731   11.3920 C   0  0  1  0  0  0  0  0  0  0  0  0
    5.3062  -47.2911   10.2252 O   0  0  0  0  0  0  0  0  0  0  0  0
   -2.5186  -49.8732    8.7470 C   0  0  0  0  0  0  0  0  0  0  0  0
   -1.7122  -48.6362    8.8853 N   0  0  0  0  0  0  0  0  0  0  0  0
   -3.2445  -48.9782    4.8628 C   0  0  0  0  0  0  0  0  0  0  0  0
   -2.4682  -48.1023    3.9883 O   0  0  0  0  0  0  0  0  0  0  0  0
  1  2  1  1  0  0  0
  1  8  1  0  0  0  0
  1 36  1  0  0  0  0
  3  4  1  6  0  0  0
  3 10  1  0  0  0  0
  3 47  1  0  0  0  0
  5 11  1  0  0  0  0
  5 30  1  0  0  0  0
  5 38  1  1  0  0  0
  6 21  1  6  0  0  0
  6 42  1  0  0  0  0
  7 15  1  0  0  0  0
  7 44  1  0  0  0  0
  7 32  1  1  0  0  0
  8  9  1  1  0  0  0
  8 17  1  0  0  0  0
 11 12  1  6  0  0  0
 11 20  1  0  0  0  0
 13  6  1  0  0  0  0
 13 14  1  6  0  0  0
 15 16  1  6  0  0  0
 15 24  1  0  0  0  0
 17 26  1  0  0  0  0
 18 10  1  0  0  0  0
 18 19  1  1  0  0  0
 20 21  1  6  0  0  0
 20 29  1  0  0  0  0
 22 13  1  0  0  0  0
 22 23  1  1  0  0  0
 24 25  1  6  0  0  0
 24 33  1  0  0  0  0
 26 27  1  1  0  0  0
 26 35  1  0  0  0  0
 28  2  1  1  0  0  0
 28 18  1  0  0  0  0
 29 30  1  0  0  0  0
 29 39  1  1  0  0  0
 31 22  1  0  0  0  0
 31 32  1  6  0  0  0
 31 41  1  0  0  0  0
 33 34  1  6  0  0  0
 33 43  1  0  0  0  0
 35 36  1  0  0  0  0
 35 45  1  6  0  0  0
 37 28  1  0  0  0  0
 37 38  1  6  0  0  0
 39 40  1  0  0  0  0
 41 42  1  0  0  0  0
 41 49  1  6  0  0  0
 43 44  1  0  0  0  0
 43 51  1  6  0  0  0
 45 46  1  0  0  0  0
 47 37  1  0  0  0  0
 47 48  1  6  0  0  0
 49 50  1  0  0  0  0
 51 52  1  0  0  0  0
M  END
>  <CHROM.1>
-168.29177577,-163.64598918,-135.26591129,178.40110421,178.16581971,177.34075679
62.54694230,151.96063595,-66.97482767,156.46431250,-163.76786418,-61.25070018
2.06534995,-50.37651604,10.93964579,0.48131957,0.72175823,2.22556773

>  <Name>
2fd0_lig

>  <RI>
1.29864e+07

>  <Rbt.Current_Directory>
/home/itssahil/PROJECTS/Mol_Feturizer/New_Systems/rnas/2fd0

>  <Rbt.Executable>
rbdock ($Id: //depot/dev/client3/rdock/2013.1/src/exe/rbdock.cxx#4 $)

>  <Rbt.Library>
libRbt.so (2013.1, Build901 2013/11/27)

>  <Rbt.Parameter_File>
/export/apps/rDock/src/rDock_2013.1_src/data/scripts/dock_solv.prm

>  <Rbt.Receptor>
prm/pocket_docking_3.prm

>  <SCORE>
-19.373

>  <SCORE.INTER>
-16.9457

>  <SCORE.INTER.CONST>
1

>  <SCORE.INTER.POLAR>
-1.03826

>  <SCORE.INTER.ROT>
12

>  <SCORE.INTER.SOLV>
20.0536

>  <SCORE.INTER.VDW>
-26.1208

>  <SCORE.INTER.norm>
-0.325879

>  <SCORE.INTRA>
-4.00474

>  <SCORE.INTRA.DIHEDRAL>
-8.05759

>  <SCORE.INTRA.DIHEDRAL.0>
23.9727

>  <SCORE.INTRA.POLAR>
0

>  <SCORE.INTRA.POLAR.0>
0

>  <SCORE.INTRA.REPUL>
0

>  <SCORE.INTRA.REPUL.0>
0

>  <SCORE.INTRA.SOLV>
-2.06537

>  <SCORE.INTRA.SOLV.lig_0>
-115.028

>  <SCORE.INTRA.VDW>
1.05674

>  <SCORE.INTRA.VDW.0>
-6.82393

>  <SCORE.INTRA.norm>
-0.0770143

>  <SCORE.RESTR>
1.57749

>  <SCORE.RESTR.CAVITY>
1.57749

>  <SCORE.RESTR.norm>
0.0303363

>  <SCORE.SYSTEM>
0

>  <SCORE.SYSTEM.CONST>
0

>  <SCORE.SYSTEM.DIHEDRAL>
0

>  <SCORE.SYSTEM.SOLV>
0

>  <SCORE.SYSTEM.norm>
0

>  <SCORE.heavy>
52

>  <SCORE.norm>
-0.372557

>  <RMSD>
3.339

$$$$
2fd0_lig
 OpenBabel11021811433D
libRbt.so/2013.1/901 2013/11/27
 52 56  0  0  0  0  0  0  0  0999 V2000
    6.5438  -48.7797   17.0642 C   0  0  2  0  0  0  0  0  0  0  0  0
    6.7972  -49.3287   15.7636 O   0  0  0  0  0  0  0  0  0  0  0  0
    6.8747  -45.8788   13.1207 C   0  0  2  0  0  0  0  0  0  0  0  0
    7.1810  -44.9983   11.9815 N   0  0  0  0  0  0  0  0  0  0  0  0
    3.9113  -49.3766   12.7699 C   0  0  1  0  0  0  0  0  0  0  0  0
    1.1164  -49.9209   10.9216 C   0  0  1  0  0  0  0  0  0  0  0  0
   -0.1923  -49.6706    5.7638 C   0  0  1  0  0  0  0  0  0  0  0  0
    6.1124  -49.9474   18.0244 C   0  0  2  0  0  0  0  0  0  0  0  0
    7.1167  -51.0003   18.0833 N   0  0  0  0  0  0  0  0  0  0  0  0
    8.2171  -46.3264   13.8491 C   0  0  0  0  0  0  0  0  0  0  0  0
    3.5883  -50.8378   12.5167 C   0  0  2  0  0  0  0  0  0  0  0  0
    3.9686  -51.2627   11.1776 O   0  0  0  0  0  0  0  0  0  0  0  0
   -0.3578  -50.0346   10.3107 C   0  0  2  0  0  0  0  0  0  0  0  0
   -0.5297  -51.3312    9.6004 N   0  0  0  0  0  0  0  0  0  0  0  0
   -1.5938  -49.0903    6.0587 C   0  0  1  0  0  0  0  0  0  0  0  0
   -1.4543  -47.7113    6.4817 O   0  0  0  0  0  0  0  0  0  0  0  0
    4.7089  -50.5171   17.5978 C   0  0  0  0  0  0  0  0  0  0  0  0
    7.8805  -47.2761   15.0958 C   0  0  2  0  0  0  0  0  0  0  0  0
    9.1056  -47.7065   15.7856 N   0  0  0  0  0  0  0  0  0  0  0  0
    2.1079  -50.9211   12.8483 C   0  0  2  0  0  0  0  0  0  0  0  0
    1.3304  -51.0680   11.6912 O   0  0  0  0  0  0  0  0  0  0  0  0
   -0.6123  -48.7125    9.4173 C   0  0  1  0  0  0  0  0  0  0  0  0
   -0.4169  -47.5626   10.2603 O   0  0  0  0  0  0  0  0  0  0  0  0
   -2.6436  -49.1401    4.9157 C   0  0  1  0  0  0  0  0  0  0  0  0
   -2.5770  -47.8997    4.2007 O   0  0  0  0  0  0  0  0  0  0  0  0
    3.6831  -49.3375   17.5653 C   0  0  2  0  0  0  0  0  0  0  0  0
    2.3924  -49.8159   17.2002 O   0  0  0  0  0  0  0  0  0  0  0  0
    7.0869  -48.5143   14.5932 C   0  0  2  0  0  0  0  0  0  0  0  0
    1.6630  -49.5757   13.4699 C   0  0  2  0  0  0  0  0  0  0  0  0
    2.8954  -48.8875   13.6281 O   0  0  0  0  0  0  0  0  0  0  0  0
    0.4575  -48.5851    8.2116 C   0  0  2  0  0  0  0  0  0  0  0  0
    0.2141  -49.7420    7.3893 O   0  0  0  0  0  0  0  0  0  0  0  0
   -2.4970  -50.3038    3.9082 C   0  0  2  0  0  0  0  0  0  0  0  0
   -3.8399  -50.7673    3.6470 O   0  0  0  0  0  0  0  0  0  0  0  0
    4.1595  -48.2655   16.5437 C   0  0  2  0  0  0  0  0  0  0  0  0
    5.4929  -47.7840   16.9676 O   0  0  0  0  0  0  0  0  0  0  0  0
    5.7893  -48.1267   13.8205 C   0  0  2  0  0  0  0  0  0  0  0  0
    5.1681  -49.3541   13.3690 O   0  0  0  0  0  0  0  0  0  0  0  0
    0.9956  -49.6838   14.8364 C   0  0  0  0  0  0  0  0  0  0  0  0
   -0.1335  -50.5576   14.6853 O   0  0  0  0  0  0  0  0  0  0  0  0
    1.8221  -48.7307    8.8583 C   0  0  1  0  0  0  0  0  0  0  0  0
    2.1725  -49.7537    9.8137 O   0  0  0  0  0  0  0  0  0  0  0  0
   -1.5722  -51.3883    4.4542 C   0  0  2  0  0  0  0  0  0  0  0  0
   -0.2862  -50.9074    4.9341 O   0  0  0  0  0  0  0  0  0  0  0  0
    3.2368  -47.0896   16.4909 C   0  0  0  0  0  0  0  0  0  0  0  0
    3.6133  -46.2911   15.4017 O   0  0  0  0  0  0  0  0  0  0  0  0
    6.1411  -47.1843   12.6119 C   0  0  1  0  0  0  0  0  0  0  0  0
    4.8920  -46.7990   11.9407 O   0  0  0  0  0  0  0  0  0  0  0  0
    3.0045  -48.6792    7.8270 C   0  0  0  0  0  0  0  0  0  0  0  0
    4.3417  -48.8439    8.4467 N   0  0  0  0  0  0  0  0  0  0  0  0
   -1.2445  -52.6485    3.6564 C   0  0  0  0  0  0  0  0  0  0  0  0
   -0.3240  -53.4999    4.4063 O   0  0  0  0  0  0  0  0  0  0  0  0
  1  2  1  6  0  0  0
  1  8  1  0  0  0  0
  1 36  1  0  0  0  0
  3  4  1  6  0  0  0
  3 10  1  0  0  0  0
  3 47  1  0  0  0  0
  5 11  1  0  0  0  0
  5 30  1  0  0  0  0
  5 38  1  1  0  0  0
  6 21  1  6  0  0  0
  6 42  1  0  0  0  0
  7 15  1  0  0  0  0
  7 44  1  0  0  0  0
  7 32  1  1  0  0  0
  8  9  1  6  0  0  0
  8 17  1  0  0  0  0
 11 12  1  6  0  0  0
 11 20  1  0  0  0  0
 13  6  1  0  0  0  0
 13 14  1  6  0  0  0
 15 16  1  6  0  0  0
 15 24  1  0  0  0  0
 17 26  1  0  0  0  0
 18 10  1  0  0  0  0
 18 19  1  6  0  0  0
 20 21  1  6  0  0  0
 20 29  1  0  0  0  0
 22 13  1  0  0  0  0
 22 23  1  1  0  0  0
 24 25  1  6  0  0  0
 24 33  1  0  0  0  0
 26 27  1  6  0  0  0
 26 35  1  0  0  0  0
 28  2  1  1  0  0  0
 28 18  1  0  0  0  0
 29 30  1  0  0  0  0
 29 39  1  1  0  0  0
 31 22  1  0  0  0  0
 31 32  1  6  0  0  0
 31 41  1  0  0  0  0
 33 34  1  1  0  0  0
 33 43  1  0  0  0  0
 35 36  1  0  0  0  0
 35 45  1  1  0  0  0
 37 28  1  0  0  0  0
 37 38  1  6  0  0  0
 39 40  1  0  0  0  0
 41 42  1  0  0  0  0
 41 49  1  6  0  0  0
 43 44  1  0  0  0  0
 43 51  1  6  0  0  0
 45 46  1  0  0  0  0
 47 37  1  0  0  0  0
 47 48  1  1  0  0  0
 49 50  1  0  0  0  0
 51 52  1  0  0  0  0
M  END
>  <CHROM.1>
173.59760741,-176.93982237,-145.32898452,-69.78843688,-77.33443355,33.58809455
-57.14515752,122.03538101,-170.31019328,172.84049742,-179.01337748,179.11522708
2.56094337,-49.19318068,11.38862028,0.86108607,0.53178982,1.81485926

>  <Name>
2fd0_lig

>  <RI>
1.29864e+07

>  <Rbt.Current_Directory>
/home/itssahil/PROJECTS/Mol_Feturizer/New_Systems/rnas/2fd0

>  <Rbt.Executable>
rbdock ($Id: //depot/dev/client3/rdock/2013.1/src/exe/rbdock.cxx#4 $)

>  <Rbt.Library>
libRbt.so (2013.1, Build901 2013/11/27)

>  <Rbt.Parameter_File>
/export/apps/rDock/src/rDock_2013.1_src/data/scripts/dock_solv.prm

>  <Rbt.Receptor>
prm/pocket_docking_3.prm

>  <SCORE>
-13.6808

>  <SCORE.INTER>
-13.7866

>  <SCORE.INTER.CONST>
1

>  <SCORE.INTER.POLAR>
-1.03256

>  <SCORE.INTER.ROT>
12

>  <SCORE.INTER.SOLV>
19.6663

>  <SCORE.INTER.VDW>
-23.9046

>  <SCORE.INTER.norm>
-0.265127

>  <SCORE.INTRA>
0.105807

>  <SCORE.INTRA.DIHEDRAL>
-5.42408

>  <SCORE.INTRA.DIHEDRAL.0>
23.9727

>  <SCORE.INTRA.POLAR>
0

>  <SCORE.INTRA.POLAR.0>
0

>  <SCORE.INTRA.REPUL>
0

>  <SCORE.INTRA.REPUL.0>
0

>  <SCORE.INTRA.SOLV>
-1.11378

>  <SCORE.INTRA.SOLV.lig_0>
-115.028

>  <SCORE.INTRA.VDW>
3.37474

>  <SCORE.INTRA.VDW.0>
-6.82393

>  <SCORE.INTRA.norm>
0.00203476

>  <SCORE.RESTR>
0

>  <SCORE.RESTR.CAVITY>
0

>  <SCORE.RESTR.norm>
0

>  <SCORE.SYSTEM>
0

>  <SCORE.SYSTEM.CONST>
0

>  <SCORE.SYSTEM.DIHEDRAL>
0

>  <SCORE.SYSTEM.SOLV>
0

>  <SCORE.SYSTEM.norm>
0

>  <SCORE.heavy>
52

>  <SCORE.norm>
-0.263092

>  <RMSD>
3.373

$$$$
2fd0_lig
 OpenBabel11021811433D
libRbt.so/2013.1/901 2013/11/27
 52 56  0  0  0  0  0  0  0  0999 V2000
    5.8118  -47.2885   16.0568 C   0  0  2  0  0  0  0  0  0  0  0  0
    6.1271  -47.9009   14.7988 O   0  0  0  0  0  0  0  0  0  0  0  0
    5.0898  -44.8802   11.8506 C   0  0  2  0  0  0  0  0  0  0  0  0
    5.0590  -44.0960   10.6052 N   0  0  0  0  0  0  0  0  0  0  0  0
    3.2339  -48.9850   11.8803 C   0  0  1  0  0  0  0  0  0  0  0  0
    0.6580  -52.1540    9.9434 C   0  0  1  0  0  0  0  0  0  0  0  0
   -1.3633  -53.9020    5.4792 C   0  0  1  0  0  0  0  0  0  0  0  0
    5.9731  -48.3650   17.1912 C   0  0  2  0  0  0  0  0  0  0  0  0
    7.3104  -48.9412   17.2060 N   0  0  0  0  0  0  0  0  0  0  0  0
    6.5617  -44.8983   12.4556 C   0  0  0  0  0  0  0  0  0  0  0  0
    3.5977  -50.2941   11.2040 C   0  0  2  0  0  0  0  0  0  0  0  0
    4.1265  -50.0938    9.8629 O   0  0  0  0  0  0  0  0  0  0  0  0
    1.2986  -53.4586    9.2747 C   0  0  2  0  0  0  0  0  0  0  0  0
    1.9947  -53.1067    8.0070 N   0  0  0  0  0  0  0  0  0  0  0  0
   -1.2238  -52.3830    5.2326 C   0  0  1  0  0  0  0  0  0  0  0  0
    0.1437  -52.0899    4.8533 O   0  0  0  0  0  0  0  0  0  0  0  0
    4.8704  -49.4789   17.0501 C   0  0  0  0  0  0  0  0  0  0  0  0
    6.5904  -45.7434   13.8173 C   0  0  2  0  0  0  0  0  0  0  0  0
    7.9415  -45.7780   14.3962 N   0  0  0  0  0  0  0  0  0  0  0  0
    2.3109  -51.0960   11.3013 C   0  0  2  0  0  0  0  0  0  0  0  0
    1.6799  -51.2069   10.0545 O   0  0  0  0  0  0  0  0  0  0  0  0
    0.1223  -54.5582    9.1406 C   0  0  1  0  0  0  0  0  0  0  0  0
   -0.4260  -54.7840   10.4519 O   0  0  0  0  0  0  0  0  0  0  0  0
   -2.1650  -51.7401    4.1781 C   0  0  1  0  0  0  0  0  0  0  0  0
   -1.4790  -51.7337    2.9197 O   0  0  0  0  0  0  0  0  0  0  0  0
    3.4664  -48.7908   17.0509 C   0  0  2  0  0  0  0  0  0  0  0  0
    2.4373  -49.7693   16.9430 O   0  0  0  0  0  0  0  0  0  0  0  0
    6.0944  -47.1882   13.5307 C   0  0  2  0  0  0  0  0  0  0  0  0
    1.3123  -50.3236   12.1961 C   0  0  2  0  0  0  0  0  0  0  0  0
    2.1074  -49.2578   12.6954 O   0  0  0  0  0  0  0  0  0  0  0  0
   -1.0956  -54.0282    8.2186 C   0  0  2  0  0  0  0  0  0  0  0  0
   -0.5064  -53.8336    6.9191 O   0  0  0  0  0  0  0  0  0  0  0  0
   -3.5413  -52.4194    3.9912 C   0  0  2  0  0  0  0  0  0  0  0  0
   -4.4945  -51.3426    3.8565 O   0  0  0  0  0  0  0  0  0  0  0  0
    3.3776  -47.7946   15.8595 C   0  0  2  0  0  0  0  0  0  0  0  0
    4.4505  -46.7880   16.0182 O   0  0  0  0  0  0  0  0  0  0  0  0
    4.6768  -47.2224   12.8824 C   0  0  2  0  0  0  0  0  0  0  0  0
    4.3488  -48.6088   12.6251 O   0  0  0  0  0  0  0  0  0  0  0  0
    0.7649  -51.1096   13.3823 C   0  0  0  0  0  0  0  0  0  0  0  0
   -0.1950  -50.2672   14.0382 O   0  0  0  0  0  0  0  0  0  0  0  0
   -1.4769  -52.6730    8.7839 C   0  0  1  0  0  0  0  0  0  0  0  0
   -0.5374  -51.6324    9.1252 O   0  0  0  0  0  0  0  0  0  0  0  0
   -3.8478  -53.3648    5.1496 C   0  0  2  0  0  0  0  0  0  0  0  0
   -2.7949  -54.3224    5.4493 O   0  0  0  0  0  0  0  0  0  0  0  0
    2.0672  -47.0745   15.8249 C   0  0  0  0  0  0  0  0  0  0  0  0
    1.0639  -48.0126   15.5436 O   0  0  0  0  0  0  0  0  0  0  0  0
    4.6681  -46.3760   11.5572 C   0  0  1  0  0  0  0  0  0  0  0  0
    3.3069  -46.3884   11.0037 O   0  0  0  0  0  0  0  0  0  0  0  0
   -2.6285  -51.9696    7.9818 C   0  0  0  0  0  0  0  0  0  0  0  0
   -2.5432  -50.4890    7.9939 N   0  0  0  0  0  0  0  0  0  0  0  0
   -5.1410  -54.1746    5.2120 C   0  0  0  0  0  0  0  0  0  0  0  0
   -5.3530  -54.8912    3.9566 O   0  0  0  0  0  0  0  0  0  0  0  0
  1  2  1  6  0  0  0
  1  8  1  0  0  0  0
  1 36  1  0  0  0  0
  3  4  1  6  0  0  0
  3 10  1  0  0  0  0
  3 47  1  0  0  0  0
  5 11  1  0  0  0  0
  5 30  1  0  0  0  0
  5 38  1  1  0  0  0
  6 21  1  6  0  0  0
  6 42  1  0  0  0  0
  7 15  1  0  0  0  0
  7 44  1  0  0  0  0
  7 32  1  1  0  0  0
  8  9  1  6  0  0  0
  8 17  1  0  0  0  0
 11 12  1  6  0  0  0
 11 20  1  0  0  0  0
 13  6  1  0  0  0  0
 13 14  1  6  0  0  0
 15 16  1  6  0  0  0
 15 24  1  0  0  0  0
 17 26  1  0  0  0  0
 18 10  1  0  0  0  0
 18 19  1  6  0  0  0
 20 21  1  6  0  0  0
 20 29  1  0  0  0  0
 22 13  1  0  0  0  0
 22 23  1  1  0  0  0
 24 25  1  6  0  0  0
 24 33  1  0  0  0  0
 26 27  1  6  0  0  0
 26 35  1  0  0  0  0
 28  2  1  1  0  0  0
 28 18  1  0  0  0  0
 29 30  1  0  0  0  0
 29 39  1  1  0  0  0
 31 22  1  0  0  0  0
 31 32  1  6  0  0  0
 31 41  1  0  0  0  0
 33 34  1  1  0  0  0
 33 43  1  0  0  0  0
 35 36  1  0  0  0  0
 35 45  1  1  0  0  0
 37 28  1  0  0  0  0
 37 38  1  6  0  0  0
 39 40  1  0  0  0  0
 41 42  1  0  0  0  0
 41 49  1  6  0  0  0
 43 44  1  0  0  0  0
 43 51  1  6  0  0  0
 45 46  1  0  0  0  0
 47 37  1  0  0  0  0
 47 48  1  1  0  0  0
 49 50  1  0  0  0  0
 51 52  1  0  0  0  0
M  END
>  <CHROM.1>
-179.39701932,149.84912304,-98.31227724,110.17431844,166.28647877,36.03257233
-176.53745092,153.99659090,-66.57329327,-170.77178082,-149.08328347,50.73223517
1.56305932,-50.19927729,10.68111374,0.56597565,0.83181698,1.87254110

>  <Name>
2fd0_lig

>  <RI>
1.29864e+07

>  <Rbt.Current_Directory>
/home/itssahil/PROJECTS/Mol_Feturizer/New_Systems/rnas/2fd0

>  <Rbt.Executable>
rbdock ($Id: //depot/dev/client3/rdock/2013.1/src/exe/rbdock.cxx#4 $)

>  <Rbt.Library>
libRbt.so (2013.1, Build901 2013/11/27)

>  <Rbt.Parameter_File>
/export/apps/rDock/src/rDock_2013.1_src/data/scripts/dock_solv.prm

>  <Rbt.Receptor>
prm/pocket_docking_3.prm

>  <SCORE>
-12.1742

>  <SCORE.INTER>
-13.3504

>  <SCORE.INTER.CONST>
1

>  <SCORE.INTER.POLAR>
-1.1667

>  <SCORE.INTER.ROT>
12

>  <SCORE.INTER.SOLV>
11.2127

>  <SCORE.INTER.VDW>
-20.3489

>  <SCORE.INTER.norm>
-0.256739

>  <SCORE.INTRA>
1.16407

>  <SCORE.INTRA.DIHEDRAL>
1.67817

>  <SCORE.INTRA.DIHEDRAL.0>
23.9727

>  <SCORE.INTRA.POLAR>
0

>  <SCORE.INTRA.POLAR.0>
0

>  <SCORE.INTRA.REPUL>
0

>  <SCORE.INTRA.REPUL.0>
0

>  <SCORE.INTRA.SOLV>
-0.601672

>  <SCORE.INTRA.SOLV.lig_0>
-115.028

>  <SCORE.INTRA.VDW>
0.62582

>  <SCORE.INTRA.VDW.0>
-6.82393

>  <SCORE.INTRA.norm>
0.0223859

>  <SCORE.RESTR>
0.0121677

>  <SCORE.RESTR.CAVITY>
0.0121677

>  <SCORE.RESTR.norm>
0.000233994

>  <SCORE.SYSTEM>
0

>  <SCORE.SYSTEM.CONST>
0

>  <SCORE.SYSTEM.DIHEDRAL>
0

>  <SCORE.SYSTEM.SOLV>
0

>  <SCORE.SYSTEM.norm>
0

>  <SCORE.heavy>
52

>  <SCORE.norm>
-0.234119

>  <RMSD>
3.433

$$$$
2fd0_lig
 OpenBabel11021811433D
libRbt.so/2013.1/901 2013/11/27
 52 56  0  0  0  0  0  0  0  0999 V2000
    6.8613  -47.6517   15.3152 C   0  0  2  0  0  0  0  0  0  0  0  0
    6.9702  -48.0252   13.9348 O   0  0  0  0  0  0  0  0  0  0  0  0
    5.8492  -44.4335   11.7588 C   0  0  2  0  0  0  0  0  0  0  0  0
    5.7404  -43.4205   10.6963 N   0  0  0  0  0  0  0  0  0  0  0  0
    3.6382  -48.3783   11.3675 C   0  0  1  0  0  0  0  0  0  0  0  0
    0.2183  -50.8288    9.9421 C   0  0  1  0  0  0  0  0  0  0  0  0
   -2.2755  -53.7789    6.4179 C   0  0  1  0  0  0  0  0  0  0  0  0
    7.0787  -48.9337   16.1988 C   0  0  2  0  0  0  0  0  0  0  0  0
    8.3594  -49.5706   15.9246 N   0  0  0  0  0  0  0  0  0  0  0  0
    7.3738  -44.6515   12.1600 C   0  0  0  0  0  0  0  0  0  0  0  0
    3.6901  -49.6850   10.5972 C   0  0  2  0  0  0  0  0  0  0  0  0
    3.9969  -49.4831    9.1889 O   0  0  0  0  0  0  0  0  0  0  0  0
    0.4034  -52.4174    9.9782 C   0  0  2  0  0  0  0  0  0  0  0  0
    1.1738  -52.8800    8.7916 N   0  0  0  0  0  0  0  0  0  0  0  0
   -1.2590  -53.1502    5.4385 C   0  0  1  0  0  0  0  0  0  0  0  0
   -0.0393  -53.9324    5.4575 O   0  0  0  0  0  0  0  0  0  0  0  0
    5.8849  -49.9407   16.0061 C   0  0  0  0  0  0  0  0  0  0  0  0
    7.4888  -45.7467   13.3247 C   0  0  2  0  0  0  0  0  0  0  0  0
    8.8895  -45.9691   13.7125 N   0  0  0  0  0  0  0  0  0  0  0  0
    2.3411  -50.3136   10.9031 C   0  0  2  0  0  0  0  0  0  0  0  0
    1.4911  -50.2715    9.7893 O   0  0  0  0  0  0  0  0  0  0  0  0
   -1.0646  -53.0696   10.1524 C   0  0  1  0  0  0  0  0  0  0  0  0
   -1.6542  -52.5235   11.3462 O   0  0  0  0  0  0  0  0  0  0  0  0
   -1.7008  -52.9819    3.9595 C   0  0  1  0  0  0  0  0  0  0  0  0
   -1.2716  -54.1422    3.2358 O   0  0  0  0  0  0  0  0  0  0  0  0
    4.5488  -49.1938   16.3253 C   0  0  2  0  0  0  0  0  0  0  0  0
    3.4421  -50.0783   16.1799 O   0  0  0  0  0  0  0  0  0  0  0  0
    6.8513  -47.0777   12.8370 C   0  0  2  0  0  0  0  0  0  0  0  0
    1.6340  -49.4661   11.9876 C   0  0  2  0  0  0  0  0  0  0  0  0
    2.6460  -48.5438   12.3656 O   0  0  0  0  0  0  0  0  0  0  0  0
   -2.0483  -52.6738    8.9318 C   0  0  2  0  0  0  0  0  0  0  0  0
   -1.4299  -53.2531    7.7674 O   0  0  0  0  0  0  0  0  0  0  0  0
   -3.2149  -52.7786    3.7211 C   0  0  2  0  0  0  0  0  0  0  0  0
   -3.3176  -51.7658    2.6964 O   0  0  0  0  0  0  0  0  0  0  0  0
    4.3898  -47.9832   15.3615 C   0  0  2  0  0  0  0  0  0  0  0  0
    5.5481  -47.0832   15.5556 O   0  0  0  0  0  0  0  0  0  0  0  0
    5.3715  -46.9054   12.3771 C   0  0  2  0  0  0  0  0  0  0  0  0
    4.9084  -48.1944   11.9078 O   0  0  0  0  0  0  0  0  0  0  0  0
    1.1997  -50.2365   13.2295 C   0  0  0  0  0  0  0  0  0  0  0  0
    2.3693  -50.8831   13.7539 O   0  0  0  0  0  0  0  0  0  0  0  0
   -1.9719  -51.1630    8.8182 C   0  0  1  0  0  0  0  0  0  0  0  0
   -0.7466  -50.4008    8.8212 O   0  0  0  0  0  0  0  0  0  0  0  0
   -3.9293  -52.4092    5.0183 C   0  0  2  0  0  0  0  0  0  0  0  0
   -3.6605  -53.2994    6.1367 O   0  0  0  0  0  0  0  0  0  0  0  0
    3.1444  -47.2030   15.6394 C   0  0  0  0  0  0  0  0  0  0  0  0
    2.0449  -48.0176   15.3342 O   0  0  0  0  0  0  0  0  0  0  0  0
    5.2805  -45.8172   11.2457 C   0  0  1  0  0  0  0  0  0  0  0  0
    3.8690  -45.6453   10.8751 O   0  0  0  0  0  0  0  0  0  0  0  0
   -2.8368  -50.5861    7.6419 C   0  0  0  0  0  0  0  0  0  0  0  0
   -2.7316  -49.1144    7.4926 N   0  0  0  0  0  0  0  0  0  0  0  0
   -5.4353  -52.1617    5.0699 C   0  0  0  0  0  0  0  0  0  0  0  0
   -5.8277  -51.6894    6.3956 O   0  0  0  0  0  0  0  0  0  0  0  0
  1  2  1  6  0  0  0
  1  8  1  0  0  0  0
  1 36  1  0  0  0  0
  3  4  1  6  0  0  0
  3 10  1  0  0  0  0
  3 47  1  0  0  0  0
  5 11  1  0  0  0  0
  5 30  1  0  0  0  0
  5 38  1  1  0  0  0
  6 21  1  6  0  0  0
  6 42  1  0  0  0  0
  7 15  1  0  0  0  0
  7 44  1  0  0  0  0
  7 32  1  1  0  0  0
  8  9  1  6  0  0  0
  8 17  1  0  0  0  0
 11 12  1  6  0  0  0
 11 20  1  0  0  0  0
 13  6  1  0  0  0  0
 13 14  1  6  0  0  0
 15 16  1  6  0  0  0
 15 24  1  0  0  0  0
 17 26  1  0  0  0  0
 18 10  1  0  0  0  0
 18 19  1  6  0  0  0
 20 21  1  6  0  0  0
 20 29  1  0  0  0  0
 22 13  1  0  0  0  0
 22 23  1  1  0  0  0
 24 25  1  6  0  0  0
 24 33  1  0  0  0  0
 26 27  1  6  0  0  0
 26 35  1  0  0  0  0
 28  2  1  1  0  0  0
 28 18  1  0  0  0  0
 29 30  1  0  0  0  0
 29 39  1  1  0  0  0
 31 22  1  0  0  0  0
 31 32  1  6  0  0  0
 31 41  1  0  0  0  0
 33 34  1  6  0  0  0
 33 43  1  0  0  0  0
 35 36  1  0  0  0  0
 35 45  1  1  0  0  0
 37 28  1  0  0  0  0
 37 38  1  6  0  0  0
 39 40  1  0  0  0  0
 41 42  1  0  0  0  0
 41 49  1  6  0  0  0
 43 44  1  0  0  0  0
 43 51  1  6  0  0  0
 45 46  1  0  0  0  0
 47 37  1  0  0  0  0
 47 48  1  1  0  0  0
 49 50  1  0  0  0  0
 51 52  1  0  0  0  0
M  END
>  <CHROM.1>
-178.63487481,161.79814807,-72.88319372,136.78401782,179.60109365,35.37523551
55.74647907,150.37049688,-66.34196838,-177.07091750,-177.98045823,-173.98516254
1.84424801,-49.83093328,10.53560069,0.46262714,0.73754275,1.93652737

>  <Name>
2fd0_lig

>  <RI>
1.29864e+07

>  <Rbt.Current_Directory>
/home/itssahil/PROJECTS/Mol_Feturizer/New_Systems/rnas/2fd0

>  <Rbt.Executable>
rbdock ($Id: //depot/dev/client3/rdock/2013.1/src/exe/rbdock.cxx#4 $)

>  <Rbt.Library>
libRbt.so (2013.1, Build901 2013/11/27)

>  <Rbt.Parameter_File>
/export/apps/rDock/src/rDock_2013.1_src/data/scripts/dock_solv.prm

>  <Rbt.Receptor>
prm/pocket_docking_3.prm

>  <SCORE>
-8.98462

>  <SCORE.INTER>
-5.45746

>  <SCORE.INTER.CONST>
1

>  <SCORE.INTER.POLAR>
-0.7474

>  <SCORE.INTER.ROT>
12

>  <SCORE.INTER.SOLV>
12.7015

>  <SCORE.INTER.VDW>
-16.9808

>  <SCORE.INTER.norm>
-0.104951

>  <SCORE.INTRA>
-3.94408

>  <SCORE.INTRA.DIHEDRAL>
-7.80617

>  <SCORE.INTRA.DIHEDRAL.0>
23.9727

>  <SCORE.INTRA.POLAR>
0

>  <SCORE.INTRA.POLAR.0>
0

>  <SCORE.INTRA.REPUL>
0.00147671

>  <SCORE.INTRA.REPUL.0>
0

>  <SCORE.INTRA.SOLV>
-0.924582

>  <SCORE.INTRA.SOLV.lig_0>
-115.028

>  <SCORE.INTRA.VDW>
0.413913

>  <SCORE.INTRA.VDW.0>
-6.82393

>  <SCORE.INTRA.norm>
-0.0758477

>  <SCORE.RESTR>
0.416922

>  <SCORE.RESTR.CAVITY>
0.416922

>  <SCORE.RESTR.norm>
0.00801772

>  <SCORE.SYSTEM>
0

>  <SCORE.SYSTEM.CONST>
0

>  <SCORE.SYSTEM.DIHEDRAL>
0

>  <SCORE.SYSTEM.SOLV>
0

>  <SCORE.SYSTEM.norm>
0

>  <SCORE.heavy>
52

>  <SCORE.norm>
-0.172781

>  <RMSD>
3.438

$$$$
2fd0_lig
 OpenBabel11021811433D
libRbt.so/2013.1/901 2013/11/27
 52 56  0  0  0  0  0  0  0  0999 V2000
    7.1083  -47.3159   14.1257 C   0  0  2  0  0  0  0  0  0  0  0  0
    8.2450  -47.3021   13.2513 O   0  0  0  0  0  0  0  0  0  0  0  0
    8.4850  -43.2804   11.6199 C   0  0  2  0  0  0  0  0  0  0  0  0
    8.7852  -42.1520   10.7235 N   0  0  0  0  0  0  0  0  0  0  0  0
    5.0514  -46.7003   11.4309 C   0  0  1  0  0  0  0  0  0  0  0  0
    1.6635  -48.1369    9.3465 C   0  0  1  0  0  0  0  0  0  0  0  0
   -1.8843  -51.5659    7.9077 C   0  0  1  0  0  0  0  0  0  0  0  0
    7.4188  -46.3983   15.3639 C   0  0  2  0  0  0  0  0  0  0  0  0
    7.7576  -45.0404   14.9615 N   0  0  0  0  0  0  0  0  0  0  0  0
    9.8270  -44.0298   12.0329 C   0  0  0  0  0  0  0  0  0  0  0  0
    4.4640  -47.4146   10.2275 C   0  0  2  0  0  0  0  0  0  0  0  0
    3.8977  -46.4880    9.2585 O   0  0  0  0  0  0  0  0  0  0  0  0
    0.1384  -47.6548    9.3804 C   0  0  2  0  0  0  0  0  0  0  0  0
   -0.6162  -48.3851   10.4353 N   0  0  0  0  0  0  0  0  0  0  0  0
   -0.9063  -52.2841    8.8646 C   0  0  1  0  0  0  0  0  0  0  0  0
   -1.2905  -52.0001   10.2327 O   0  0  0  0  0  0  0  0  0  0  0  0
    8.5556  -47.0352   16.2462 C   0  0  0  0  0  0  0  0  0  0  0  0
    9.4987  -45.2511   13.0177 C   0  0  2  0  0  0  0  0  0  0  0  0
   10.7231  -45.9629   13.4127 N   0  0  0  0  0  0  0  0  0  0  0  0
    3.4924  -48.3985   10.8571 C   0  0  2  0  0  0  0  0  0  0  0  0
    2.1617  -48.0116   10.6464 O   0  0  0  0  0  0  0  0  0  0  0  0
   -0.4458  -47.7988    7.8808 C   0  0  1  0  0  0  0  0  0  0  0  0
    0.3912  -47.0254    7.0020 O   0  0  0  0  0  0  0  0  0  0  0  0
   -0.7591  -53.8225    8.7146 C   0  0  1  0  0  0  0  0  0  0  0  0
   -1.6782  -54.4445    9.6215 O   0  0  0  0  0  0  0  0  0  0  0  0
    8.1208  -48.4825   16.6475 C   0  0  2  0  0  0  0  0  0  0  0  0
    9.1176  -49.0886   17.4644 O   0  0  0  0  0  0  0  0  0  0  0  0
    8.5179  -46.2270   12.3096 C   0  0  2  0  0  0  0  0  0  0  0  0
    3.6861  -48.3727   12.3921 C   0  0  2  0  0  0  0  0  0  0  0  0
    4.8348  -47.5509   12.5433 O   0  0  0  0  0  0  0  0  0  0  0  0
   -0.3795  -49.3255    7.3525 C   0  0  2  0  0  0  0  0  0  0  0  0
   -1.2409  -50.0547    8.2468 O   0  0  0  0  0  0  0  0  0  0  0  0
   -0.9956  -54.3931    7.2971 C   0  0  2  0  0  0  0  0  0  0  0  0
    0.0197  -55.4028    7.1070 O   0  0  0  0  0  0  0  0  0  0  0  0
    7.9002  -49.3315   15.3628 C   0  0  2  0  0  0  0  0  0  0  0  0
    6.8485  -48.6781   14.5525 O   0  0  0  0  0  0  0  0  0  0  0  0
    7.2088  -45.5269   11.8330 C   0  0  2  0  0  0  0  0  0  0  0  0
    6.4046  -46.5220   11.1553 O   0  0  0  0  0  0  0  0  0  0  0  0
    3.9779  -49.7263   13.0301 C   0  0  0  0  0  0  0  0  0  0  0  0
    4.0790  -49.5110   14.4460 O   0  0  0  0  0  0  0  0  0  0  0  0
    1.0503  -49.7767    7.5839 C   0  0  1  0  0  0  0  0  0  0  0  0
    1.7868  -49.5741    8.8081 O   0  0  0  0  0  0  0  0  0  0  0  0
   -0.9594  -53.2857    6.2474 C   0  0  2  0  0  0  0  0  0  0  0  0
   -1.8162  -52.1460    6.5345 O   0  0  0  0  0  0  0  0  0  0  0  0
    7.4465  -50.7214   15.6782 C   0  0  0  0  0  0  0  0  0  0  0  0
    6.1637  -50.6424   16.2384 O   0  0  0  0  0  0  0  0  0  0  0  0
    7.5549  -44.3244   10.8808 C   0  0  1  0  0  0  0  0  0  0  0  0
    6.3030  -43.6588   10.4946 O   0  0  0  0  0  0  0  0  0  0  0  0
    1.3029  -51.2697    7.1697 C   0  0  0  0  0  0  0  0  0  0  0  0
    2.7107  -51.7041    7.3399 N   0  0  0  0  0  0  0  0  0  0  0  0
   -1.1747  -53.5715    4.7628 C   0  0  0  0  0  0  0  0  0  0  0  0
   -2.4960  -54.1551    4.5439 O   0  0  0  0  0  0  0  0  0  0  0  0
  1  2  1  6  0  0  0
  1  8  1  0  0  0  0
  1 36  1  0  0  0  0
  3  4  1  6  0  0  0
  3 10  1  0  0  0  0
  3 47  1  0  0  0  0
  5 11  1  0  0  0  0
  5 30  1  0  0  0  0
  5 38  1  6  0  0  0
  6 21  1  1  0  0  0
  6 42  1  0  0  0  0
  7 15  1  0  0  0  0
  7 44  1  0  0  0  0
  7 32  1  6  0  0  0
  8  9  1  6  0  0  0
  8 17  1  0  0  0  0
 11 12  1  6  0  0  0
 11 20  1  0  0  0  0
 13  6  1  0  0  0  0
 13 14  1  1  0  0  0
 15 16  1  1  0  0  0
 15 24  1  0  0  0  0
 17 26  1  0  0  0  0
 18 10  1  0  0  0  0
 18 19  1  6  0  0  0
 20 21  1  1  0  0  0
 20 29  1  0  0  0  0
 22 13  1  0  0  0  0
 22 23  1  6  0  0  0
 24 25  1  1  0  0  0
 24 33  1  0  0  0  0
 26 27  1  1  0  0  0
 26 35  1  0  0  0  0
 28  2  1  1  0  0  0
 28 18  1  0  0  0  0
 29 30  1  0  0  0  0
 29 39  1  6  0  0  0
 31 22  1  0  0  0  0
 31 32  1  1  0  0  0
 31 41  1  0  0  0  0
 33 34  1  6  0  0  0
 33 43  1  0  0  0  0
 35 36  1  0  0  0  0
 35 45  1  1  0  0  0
 37 28  1  0  0  0  0
 37 38  1  6  0  0  0
 39 40  1  0  0  0  0
 41 42  1  0  0  0  0
 41 49  1  1  0  0  0
 43 44  1  0  0  0  0
 43 51  1  6  0  0  0
 45 46  1  0  0  0  0
 47 37  1  0  0  0  0
 47 48  1  1  0  0  0
 49 50  1  0  0  0  0
 51 52  1  0  0  0  0
M  END
>  <CHROM.1>
-80.28331521,159.56309517,179.21993191,104.91323558,71.34311045,95.03911267
-178.03337708,161.55862842,66.78293906,131.79868714,177.62898166,60.43451590
3.72941003,-48.83430612,10.85276205,-0.04446293,0.76674990,2.47509502

>  <Name>
2fd0_lig

>  <RI>
1.29864e+07

>  <Rbt.Current_Directory>
/home/itssahil/PROJECTS/Mol_Feturizer/New_Systems/rnas/2fd0

>  <Rbt.Executable>
rbdock ($Id: //depot/dev/client3/rdock/2013.1/src/exe/rbdock.cxx#4 $)

>  <Rbt.Library>
libRbt.so (2013.1, Build901 2013/11/27)

>  <Rbt.Parameter_File>
/export/apps/rDock/src/rDock_2013.1_src/data/scripts/dock_solv.prm

>  <Rbt.Receptor>
prm/pocket_docking_3.prm

>  <SCORE>
-3.90721

>  <SCORE.INTER>
-7.92767

>  <SCORE.INTER.CONST>
1

>  <SCORE.INTER.POLAR>
-0.205682

>  <SCORE.INTER.ROT>
12

>  <SCORE.INTER.SOLV>
15.9881

>  <SCORE.INTER.VDW>
-21.5289

>  <SCORE.INTER.norm>
-0.152455

>  <SCORE.INTRA>
4.01069

>  <SCORE.INTRA.DIHEDRAL>
0.827776

>  <SCORE.INTRA.DIHEDRAL.0>
23.9727

>  <SCORE.INTRA.POLAR>
0

>  <SCORE.INTRA.POLAR.0>
0

>  <SCORE.INTRA.REPUL>
0.122864

>  <SCORE.INTRA.REPUL.0>
0

>  <SCORE.INTRA.SOLV>
3.83191

>  <SCORE.INTRA.SOLV.lig_0>
-115.028

>  <SCORE.INTRA.VDW>
1.06652

>  <SCORE.INTRA.VDW.0>
-6.82393

>  <SCORE.INTRA.norm>
0.0771287

>  <SCORE.RESTR>
0.00976863

>  <SCORE.RESTR.CAVITY>
0.00976863

>  <SCORE.RESTR.norm>
0.000187858

>  <SCORE.SYSTEM>
0

>  <SCORE.SYSTEM.CONST>
0

>  <SCORE.SYSTEM.DIHEDRAL>
0

>  <SCORE.SYSTEM.SOLV>
0

>  <SCORE.SYSTEM.norm>
0

>  <SCORE.heavy>
52

>  <SCORE.norm>
-0.0751386

>  <RMSD>
3.466

$$$$
2fd0_lig
 OpenBabel11021811433D
libRbt.so/2013.1/901 2013/11/27
 52 56  0  0  0  0  0  0  0  0999 V2000
    6.0318  -47.0859   16.1427 C   0  0  2  0  0  0  0  0  0  0  0  0
    6.4949  -47.6696   14.9172 O   0  0  0  0  0  0  0  0  0  0  0  0
    5.2195  -44.7978   11.9140 C   0  0  2  0  0  0  0  0  0  0  0  0
    5.0801  -44.0830   10.6347 N   0  0  0  0  0  0  0  0  0  0  0  0
    3.4860  -48.8789   12.1155 C   0  0  1  0  0  0  0  0  0  0  0  0
    1.3436  -52.3688   10.0721 C   0  0  1  0  0  0  0  0  0  0  0  0
   -2.7251  -52.6335    6.9147 C   0  0  1  0  0  0  0  0  0  0  0  0
    6.4554  -48.0211   17.3333 C   0  0  2  0  0  0  0  0  0  0  0  0
    7.8947  -48.2406   17.3650 N   0  0  0  0  0  0  0  0  0  0  0  0
    6.7422  -44.8091   12.3771 C   0  0  0  0  0  0  0  0  0  0  0  0
    3.8883  -50.2508   11.6061 C   0  0  2  0  0  0  0  0  0  0  0  0
    4.5911  -50.1823   10.3335 O   0  0  0  0  0  0  0  0  0  0  0  0
    1.6167  -52.8225    8.5624 C   0  0  2  0  0  0  0  0  0  0  0  0
    1.3716  -51.6922    7.6255 N   0  0  0  0  0  0  0  0  0  0  0  0
   -2.5782  -53.6696    5.7777 C   0  0  1  0  0  0  0  0  0  0  0  0
   -2.6068  -55.0020    6.3467 O   0  0  0  0  0  0  0  0  0  0  0  0
    5.6692  -49.3827   17.2668 C   0  0  0  0  0  0  0  0  0  0  0  0
    6.8899  -45.5782   13.7757 C   0  0  2  0  0  0  0  0  0  0  0  0
    8.2895  -45.6052   14.2253 N   0  0  0  0  0  0  0  0  0  0  0  0
    2.5728  -51.0111   11.6021 C   0  0  2  0  0  0  0  0  0  0  0  0
    2.1034  -51.2174   10.2975 O   0  0  0  0  0  0  0  0  0  0  0  0
    0.7397  -54.1526    8.2930 C   0  0  1  0  0  0  0  0  0  0  0  0
    1.1125  -55.1366    9.2746 O   0  0  0  0  0  0  0  0  0  0  0  0
   -3.6148  -53.6161    4.6229 C   0  0  1  0  0  0  0  0  0  0  0  0
   -4.6798  -54.5202    4.9435 O   0  0  0  0  0  0  0  0  0  0  0  0
    4.1372  -49.0710   17.2453 C   0  0  2  0  0  0  0  0  0  0  0  0
    3.3879  -50.2814   17.2037 O   0  0  0  0  0  0  0  0  0  0  0  0
    6.3504  -47.0274   13.6195 C   0  0  2  0  0  0  0  0  0  0  0  0
    1.4948  -50.1397   12.2900 C   0  0  2  0  0  0  0  0  0  0  0  0
    2.2556  -49.0524   12.7966 O   0  0  0  0  0  0  0  0  0  0  0  0
   -0.8419  -53.8818    8.4918 C   0  0  2  0  0  0  0  0  0  0  0  0
   -1.1713  -52.9091    7.4824 O   0  0  0  0  0  0  0  0  0  0  0  0
   -4.2178  -52.2262    4.3143 C   0  0  2  0  0  0  0  0  0  0  0  0
   -4.2788  -52.1368    2.8739 O   0  0  0  0  0  0  0  0  0  0  0  0
    3.8041  -48.1984   16.0014 C   0  0  2  0  0  0  0  0  0  0  0  0
    4.5884  -46.9469   16.0918 O   0  0  0  0  0  0  0  0  0  0  0  0
    4.8771  -47.0717   13.1112 C   0  0  2  0  0  0  0  0  0  0  0  0
    4.5084  -48.4641   12.9650 O   0  0  0  0  0  0  0  0  0  0  0  0
    0.7733  -50.8046   13.4569 C   0  0  0  0  0  0  0  0  0  0  0  0
    0.1972  -52.0210   12.9572 O   0  0  0  0  0  0  0  0  0  0  0  0
   -0.9770  -53.2286    9.8544 C   0  0  1  0  0  0  0  0  0  0  0  0
   -0.1574  -52.1391   10.3270 O   0  0  0  0  0  0  0  0  0  0  0  0
   -3.3941  -51.1156    4.9606 C   0  0  2  0  0  0  0  0  0  0  0  0
   -3.1286  -51.3005    6.3786 O   0  0  0  0  0  0  0  0  0  0  0  0
    2.3546  -47.8342   15.9417 C   0  0  0  0  0  0  0  0  0  0  0  0
    2.1334  -47.1279   14.7510 O   0  0  0  0  0  0  0  0  0  0  0  0
    4.7528  -46.2996   11.7470 C   0  0  1  0  0  0  0  0  0  0  0  0
    3.3449  -46.3180   11.3263 O   0  0  0  0  0  0  0  0  0  0  0  0
   -2.4562  -52.8434   10.2123 C   0  0  0  0  0  0  0  0  0  0  0  0
   -2.8573  -51.5031    9.7204 N   0  0  0  0  0  0  0  0  0  0  0  0
   -3.7738  -49.6429    4.8235 C   0  0  0  0  0  0  0  0  0  0  0  0
   -5.0587  -49.3870    5.4702 O   0  0  0  0  0  0  0  0  0  0  0  0
  1  2  1  6  0  0  0
  1  8  1  0  0  0  0
  1 36  1  0  0  0  0
  3  4  1  6  0  0  0
  3 10  1  0  0  0  0
  3 47  1  0  0  0  0
  5 11  1  0  0  0  0
  5 30  1  0  0  0  0
  5 38  1  1  0  0  0
  6 21  1  6  0  0  0
  6 42  1  0  0  0  0
  7 15  1  0  0  0  0
  7 44  1  0  0  0  0
  7 32  1  6  0  0  0
  8  9  1  6  0  0  0
  8 17  1  0  0  0  0
 11 12  1  6  0  0  0
 11 20  1  0  0  0  0
 13  6  1  0  0  0  0
 13 14  1  6  0  0  0
 15 16  1  1  0  0  0
 15 24  1  0  0  0  0
 17 26  1  0  0  0  0
 18 10  1  0  0  0  0
 18 19  1  6  0  0  0
 20 21  1  6  0  0  0
 20 29  1  0  0  0  0
 22 13  1  0  0  0  0
 22 23  1  1  0  0  0
 24 25  1  1  0  0  0
 24 33  1  0  0  0  0
 26 27  1  6  0  0  0
 26 35  1  0  0  0  0
 28  2  1  1  0  0  0
 28 18  1  0  0  0  0
 29 30  1  0  0  0  0
 29 39  1  1  0  0  0
 31 22  1  0  0  0  0
 31 32  1  6  0  0  0
 31 41  1  0  0  0  0
 33 34  1  6  0  0  0
 33 43  1  0  0  0  0
 35 36  1  0  0  0  0
 35 45  1  1  0  0  0
 37 28  1  0  0  0  0
 37 38  1  6  0  0  0
 39 40  1  0  0  0  0
 41 42  1  0  0  0  0
 41 49  1  6  0  0  0
 43 44  1  0  0  0  0
 43 51  1  1  0  0  0
 45 46  1  0  0  0  0
 47 37  1  0  0  0  0
 47 48  1  1  0  0  0
 49 50  1  0  0  0  0
 51 52  1  0  0  0  0
M  END
>  <CHROM.1>
-176.01844020,147.77953280,-148.93165807,-90.87626365,149.85229981,50.24478653
-56.59611118,159.62799926,-176.19153377,-156.73947355,-87.08522146,64.37582747
1.63922497,-50.05386724,10.94991761,0.16804064,0.87596428,2.37177060

>  <Name>
2fd0_lig

>  <RI>
1.29864e+07

>  <Rbt.Current_Directory>
/home/itssahil/PROJECTS/Mol_Feturizer/New_Systems/rnas/2fd0

>  <Rbt.Executable>
rbdock ($Id: //depot/dev/client3/rdock/2013.1/src/exe/rbdock.cxx#4 $)

>  <Rbt.Library>
libRbt.so (2013.1, Build901 2013/11/27)

>  <Rbt.Parameter_File>
/export/apps/rDock/src/rDock_2013.1_src/data/scripts/dock_solv.prm

>  <Rbt.Receptor>
prm/pocket_docking_3.prm

>  <SCORE>
-11.9358

>  <SCORE.INTER>
-12.0601

>  <SCORE.INTER.CONST>
1

>  <SCORE.INTER.POLAR>
-1.42081

>  <SCORE.INTER.ROT>
12

>  <SCORE.INTER.SOLV>
14.3169

>  <SCORE.INTER.VDW>
-19.6763

>  <SCORE.INTER.norm>
-0.231924

>  <SCORE.INTRA>
-0.264218

>  <SCORE.INTRA.DIHEDRAL>
-0.780748

>  <SCORE.INTRA.DIHEDRAL.0>
23.9727

>  <SCORE.INTRA.POLAR>
0

>  <SCORE.INTRA.POLAR.0>
0

>  <SCORE.INTRA.REPUL>
0

>  <SCORE.INTRA.REPUL.0>
0

>  <SCORE.INTRA.SOLV>
0.228862

>  <SCORE.INTRA.SOLV.lig_0>
-115.028

>  <SCORE.INTRA.VDW>
0.0117255

>  <SCORE.INTRA.VDW.0>
-6.82393

>  <SCORE.INTRA.norm>
-0.00508111

>  <SCORE.RESTR>
0.38849

>  <SCORE.RESTR.CAVITY>
0.38849

>  <SCORE.RESTR.norm>
0.00747095

>  <SCORE.SYSTEM>
0

>  <SCORE.SYSTEM.CONST>
0

>  <SCORE.SYSTEM.DIHEDRAL>
0

>  <SCORE.SYSTEM.SOLV>
0

>  <SCORE.SYSTEM.norm>
0

>  <SCORE.heavy>
52

>  <SCORE.norm>
-0.229535

>  <RMSD>
3.467

$$$$
2fd0_lig
 OpenBabel11021811433D
libRbt.so/2013.1/901 2013/11/27
 52 56  0  0  0  0  0  0  0  0999 V2000
    4.9022  -49.5922   14.9344 C   0  0  2  0  0  0  0  0  0  0  0  0
    5.3350  -48.2715   15.2882 O   0  0  0  0  0  0  0  0  0  0  0  0
    7.9617  -45.1246   13.8426 C   0  0  2  0  0  0  0  0  0  0  0  0
    8.6977  -44.2236   12.9406 N   0  0  0  0  0  0  0  0  0  0  0  0
    3.5248  -46.4352   13.3553 C   0  0  1  0  0  0  0  0  0  0  0  0
    0.3281  -46.5829   10.1556 C   0  0  1  0  0  0  0  0  0  0  0  0
   -0.5534  -50.3508    7.2843 C   0  0  1  0  0  0  0  0  0  0  0  0
    3.7188  -50.0020   15.8848 C   0  0  2  0  0  0  0  0  0  0  0  0
    2.6174  -49.0516   15.8204 N   0  0  0  0  0  0  0  0  0  0  0  0
    8.3214  -46.6414   13.5220 C   0  0  0  0  0  0  0  0  0  0  0  0
    2.1141  -45.8768   13.3155 C   0  0  2  0  0  0  0  0  0  0  0  0
    1.1811  -46.6796   14.0922 O   0  0  0  0  0  0  0  0  0  0  0  0
   -0.6832  -47.8034    9.9390 C   0  0  2  0  0  0  0  0  0  0  0  0
    0.0123  -49.1017   10.1537 N   0  0  0  0  0  0  0  0  0  0  0  0
   -1.1092  -50.0334    5.8778 C   0  0  1  0  0  0  0  0  0  0  0  0
   -0.0464  -50.1858    4.9047 O   0  0  0  0  0  0  0  0  0  0  0  0
    4.2374  -50.1795   17.3600 C   0  0  0  0  0  0  0  0  0  0  0  0
    7.5274  -47.6200   14.5126 C   0  0  2  0  0  0  0  0  0  0  0  0
    7.8404  -49.0297   14.2354 N   0  0  0  0  0  0  0  0  0  0  0  0
    1.8299  -45.7773   11.8262 C   0  0  2  0  0  0  0  0  0  0  0  0
    0.9163  -46.7563   11.4117 O   0  0  0  0  0  0  0  0  0  0  0  0
   -1.3661  -47.6114    8.4872 C   0  0  1  0  0  0  0  0  0  0  0  0
   -1.9976  -46.3186    8.4611 O   0  0  0  0  0  0  0  0  0  0  0  0
   -2.3318  -50.8566    5.3893 C   0  0  1  0  0  0  0  0  0  0  0  0
   -1.8398  -51.9790    4.6460 O   0  0  0  0  0  0  0  0  0  0  0  0
    5.4077  -51.2163   17.3536 C   0  0  2  0  0  0  0  0  0  0  0  0
    5.8942  -51.4194   18.6766 O   0  0  0  0  0  0  0  0  0  0  0  0
    6.0010  -47.3712   14.3592 C   0  0  2  0  0  0  0  0  0  0  0  0
    3.1340  -46.0829   11.0515 C   0  0  2  0  0  0  0  0  0  0  0  0
    4.0995  -46.1549   12.0908 O   0  0  0  0  0  0  0  0  0  0  0  0
   -0.2680  -47.6103    7.3005 C   0  0  2  0  0  0  0  0  0  0  0  0
    0.3227  -48.9225    7.3539 O   0  0  0  0  0  0  0  0  0  0  0  0
   -3.2895  -51.3695    6.4895 C   0  0  2  0  0  0  0  0  0  0  0  0
   -4.6229  -51.1823    5.9665 O   0  0  0  0  0  0  0  0  0  0  0  0
    6.5550  -50.6960   16.4411 C   0  0  2  0  0  0  0  0  0  0  0  0
    6.0132  -50.5146   15.0762 O   0  0  0  0  0  0  0  0  0  0  0  0
    5.6038  -45.8840   14.6071 C   0  0  2  0  0  0  0  0  0  0  0  0
    4.1763  -45.7727   14.3925 O   0  0  0  0  0  0  0  0  0  0  0  0
    3.5696  -45.0035   10.0668 C   0  0  0  0  0  0  0  0  0  0  0  0
    4.6916  -45.5257    9.3391 O   0  0  0  0  0  0  0  0  0  0  0  0
    0.7786  -46.5923    7.7125 C   0  0  1  0  0  0  0  0  0  0  0  0
    1.3714  -46.5103    9.0255 O   0  0  0  0  0  0  0  0  0  0  0  0
   -3.0446  -50.6456    7.8106 C   0  0  2  0  0  0  0  0  0  0  0  0
   -1.6578  -50.6296    8.2485 O   0  0  0  0  0  0  0  0  0  0  0  0
    7.6941  -51.6622   16.3636 C   0  0  0  0  0  0  0  0  0  0  0  0
    8.7906  -50.9959   15.7985 O   0  0  0  0  0  0  0  0  0  0  0  0
    6.4045  -44.9417   13.6356 C   0  0  1  0  0  0  0  0  0  0  0  0
    6.0437  -43.5486   13.9331 O   0  0  0  0  0  0  0  0  0  0  0  0
    1.9678  -46.4801    6.6938 C   0  0  0  0  0  0  0  0  0  0  0  0
    2.7943  -47.7083    6.6068 N   0  0  0  0  0  0  0  0  0  0  0  0
   -3.8476  -50.9661    9.0693 C   0  0  0  0  0  0  0  0  0  0  0  0
   -3.4808  -52.2832    9.5845 O   0  0  0  0  0  0  0  0  0  0  0  0
  1  2  1  1  0  0  0
  1  8  1  0  0  0  0
  1 36  1  0  0  0  0
  3  4  1  6  0  0  0
  3 10  1  0  0  0  0
  3 47  1  0  0  0  0
  5 11  1  0  0  0  0
  5 30  1  0  0  0  0
  5 38  1  1  0  0  0
  6 21  1  1  0  0  0
  6 42  1  0  0  0  0
  7 15  1  0  0  0  0
  7 44  1  0  0  0  0
  7 32  1  1  0  0  0
  8  9  1  1  0  0  0
  8 17  1  0  0  0  0
 11 12  1  1  0  0  0
 11 20  1  0  0  0  0
 13  6  1  0  0  0  0
 13 14  1  6  0  0  0
 15 16  1  6  0  0  0
 15 24  1  0  0  0  0
 17 26  1  0  0  0  0
 18 10  1  0  0  0  0
 18 19  1  6  0  0  0
 20 21  1  6  0  0  0
 20 29  1  0  0  0  0
 22 13  1  0  0  0  0
 22 23  1  1  0  0  0
 24 25  1  1  0  0  0
 24 33  1  0  0  0  0
 26 27  1  1  0  0  0
 26 35  1  0  0  0  0
 28  2  1  1  0  0  0
 28 18  1  0  0  0  0
 29 30  1  0  0  0  0
 29 39  1  6  0  0  0
 31 22  1  0  0  0  0
 31 32  1  1  0  0  0
 31 41  1  0  0  0  0
 33 34  1  6  0  0  0
 33 43  1  0  0  0  0
 35 36  1  0  0  0  0
 35 45  1  6  0  0  0
 37 28  1  0  0  0  0
 37 38  1  6  0  0  0
 39 40  1  0  0  0  0
 41 42  1  0  0  0  0
 41 49  1  6  0  0  0
 43 44  1  0  0  0  0
 43 51  1  1  0  0  0
 45 46  1  0  0  0  0
 47 37  1  0  0  0  0
 47 48  1  1  0  0  0
 49 50  1  0  0  0  0
 51 52  1  0  0  0  0
M  END
>  <CHROM.1>
-154.88855482,-170.12468387,-178.83560643,61.32450949,165.13380862,-91.07966576
-173.34925057,54.52479864,-166.25293809,-40.33688730,-65.78476133,70.43356199
2.52195014,-48.28340009,11.38028042,0.34539149,0.73761675,2.46226941

>  <Name>
2fd0_lig

>  <RI>
2.00683e+07

>  <Rbt.Current_Directory>
/home/itssahil/PROJECTS/Mol_Feturizer/New_Systems/rnas/2fd0

>  <Rbt.Executable>
rbdock ($Id: //depot/dev/client3/rdock/2013.1/src/exe/rbdock.cxx#4 $)

>  <Rbt.Library>
libRbt.so (2013.1, Build901 2013/11/27)

>  <Rbt.Parameter_File>
/export/apps/rDock/src/rDock_2013.1_src/data/scripts/dock_solv.prm

>  <Rbt.Receptor>
prm/pocket_docking_4.prm

>  <SCORE>
-22.1644

>  <SCORE.INTER>
-20.3699

>  <SCORE.INTER.CONST>
1

>  <SCORE.INTER.POLAR>
-1.91788

>  <SCORE.INTER.ROT>
12

>  <SCORE.INTER.SOLV>
17.3686

>  <SCORE.INTER.VDW>
-24.5765

>  <SCORE.INTER.norm>
-0.391729

>  <SCORE.INTRA>
-1.86098

>  <SCORE.INTRA.DIHEDRAL>
-11.137

>  <SCORE.INTRA.DIHEDRAL.0>
23.9727

>  <SCORE.INTRA.POLAR>
0

>  <SCORE.INTRA.POLAR.0>
0

>  <SCORE.INTRA.REPUL>
0

>  <SCORE.INTRA.REPUL.0>
0

>  <SCORE.INTRA.SOLV>
4.75846

>  <SCORE.INTRA.SOLV.lig_0>
-115.028

>  <SCORE.INTRA.VDW>
1.32827

>  <SCORE.INTRA.VDW.0>
-6.82393

>  <SCORE.INTRA.norm>
-0.0357881

>  <SCORE.RESTR>
0.0664911

>  <SCORE.RESTR.CAVITY>
0.0664911

>  <SCORE.RESTR.norm>
0.00127867

>  <SCORE.SYSTEM>
0

>  <SCORE.SYSTEM.CONST>
0

>  <SCORE.SYSTEM.DIHEDRAL>
0

>  <SCORE.SYSTEM.SOLV>
0

>  <SCORE.SYSTEM.norm>
0

>  <SCORE.heavy>
52

>  <SCORE.norm>
-0.426239

>  <RMSD>
3.478

$$$$
2fd0_lig
 OpenBabel11021811433D
libRbt.so/2013.1/901 2013/11/27
 52 56  0  0  0  0  0  0  0  0999 V2000
    6.0384  -47.6700   15.1663 C   0  0  2  0  0  0  0  0  0  0  0  0
    6.4740  -46.3048   15.2241 O   0  0  0  0  0  0  0  0  0  0  0  0
    8.6748  -43.4372   12.8104 C   0  0  2  0  0  0  0  0  0  0  0  0
    9.7253  -42.8232   11.9819 N   0  0  0  0  0  0  0  0  0  0  0  0
    5.1233  -46.7912   12.0577 C   0  0  1  0  0  0  0  0  0  0  0  0
    2.9334  -48.5129    8.9797 C   0  0  1  0  0  0  0  0  0  0  0  0
    0.8571  -52.3483    6.6519 C   0  0  1  0  0  0  0  0  0  0  0  0
    4.9116  -47.8813   16.2420 C   0  0  2  0  0  0  0  0  0  0  0  0
    3.7974  -46.9639   16.0479 N   0  0  0  0  0  0  0  0  0  0  0  0
    9.2719  -43.8859   14.2159 C   0  0  0  0  0  0  0  0  0  0  0  0
    5.0731  -47.6996   10.8429 C   0  0  2  0  0  0  0  0  0  0  0  0
    4.9803  -46.9512    9.5981 O   0  0  0  0  0  0  0  0  0  0  0  0
    1.5231  -48.1593    8.3124 C   0  0  2  0  0  0  0  0  0  0  0  0
    0.4303  -48.9350    8.9602 N   0  0  0  0  0  0  0  0  0  0  0  0
   -0.6763  -52.3513    6.8423 C   0  0  1  0  0  0  0  0  0  0  0  0
   -1.3011  -51.8149    5.6499 O   0  0  0  0  0  0  0  0  0  0  0  0
    5.5092  -47.7585   17.6926 C   0  0  0  0  0  0  0  0  0  0  0  0
    8.1239  -44.5441   15.1205 C   0  0  2  0  0  0  0  0  0  0  0  0
    8.6505  -44.9704   16.4253 N   0  0  0  0  0  0  0  0  0  0  0  0
    3.9067  -48.6217   11.1559 C   0  0  2  0  0  0  0  0  0  0  0  0
    2.7923  -48.3283   10.3580 O   0  0  0  0  0  0  0  0  0  0  0  0
    1.6774  -48.3725    6.7182 C   0  0  1  0  0  0  0  0  0  0  0  0
    2.7626  -47.5444    6.2625 O   0  0  0  0  0  0  0  0  0  0  0  0
   -1.3535  -53.7090    7.1724 C   0  0  1  0  0  0  0  0  0  0  0  0
   -1.7767  -54.3028    5.9384 O   0  0  0  0  0  0  0  0  0  0  0  0
    6.6895  -48.7746   17.8312 C   0  0  2  0  0  0  0  0  0  0  0  0
    7.2474  -48.7075   19.1398 O   0  0  0  0  0  0  0  0  0  0  0  0
    7.5153  -45.7594   14.3666 C   0  0  2  0  0  0  0  0  0  0  0  0
    3.4464  -48.3620   12.6102 C   0  0  2  0  0  0  0  0  0  0  0  0
    4.4461  -47.4776   13.0961 O   0  0  0  0  0  0  0  0  0  0  0  0
    2.0759  -49.8956    6.3500 C   0  0  2  0  0  0  0  0  0  0  0  0
    0.9590  -50.6815    6.8067 O   0  0  0  0  0  0  0  0  0  0  0  0
   -0.4875  -54.7306    7.9450 C   0  0  2  0  0  0  0  0  0  0  0  0
   -1.3667  -55.3299    8.9219 O   0  0  0  0  0  0  0  0  0  0  0  0
    7.7810  -48.4475   16.7722 C   0  0  2  0  0  0  0  0  0  0  0  0
    7.1659  -48.5444   15.4299 O   0  0  0  0  0  0  0  0  0  0  0  0
    6.9672  -45.3824   12.9565 C   0  0  2  0  0  0  0  0  0  0  0  0
    6.4723  -46.5966   12.3425 O   0  0  0  0  0  0  0  0  0  0  0  0
    3.4176  -49.5930   13.5092 C   0  0  0  0  0  0  0  0  0  0  0  0
    4.7569  -50.1074   13.5612 O   0  0  0  0  0  0  0  0  0  0  0  0
    3.2811  -50.2228    7.2113 C   0  0  1  0  0  0  0  0  0  0  0  0
    3.3811  -49.9423    8.6232 O   0  0  0  0  0  0  0  0  0  0  0  0
    0.7379  -54.0580    8.5578 C   0  0  2  0  0  0  0  0  0  0  0  0
    1.5221  -53.2588    7.6296 O   0  0  0  0  0  0  0  0  0  0  0  0
    8.9254  -49.4089   16.8287 C   0  0  0  0  0  0  0  0  0  0  0  0
    8.4464  -50.6753   16.4647 O   0  0  0  0  0  0  0  0  0  0  0  0
    8.1051  -44.7260   12.0923 C   0  0  1  0  0  0  0  0  0  0  0  0
    7.5399  -44.3376   10.7926 O   0  0  0  0  0  0  0  0  0  0  0  0
    3.7930  -51.6952    7.0259 C   0  0  0  0  0  0  0  0  0  0  0  0
    4.8031  -52.1047    8.0316 N   0  0  0  0  0  0  0  0  0  0  0  0
    1.7698  -54.8404    9.3673 C   0  0  0  0  0  0  0  0  0  0  0  0
    2.5053  -55.7586    8.5010 O   0  0  0  0  0  0  0  0  0  0  0  0
  1  2  1  1  0  0  0
  1  8  1  0  0  0  0
  1 36  1  0  0  0  0
  3  4  1  6  0  0  0
  3 10  1  0  0  0  0
  3 47  1  0  0  0  0
  5 11  1  0  0  0  0
  5 30  1  0  0  0  0
  5 38  1  1  0  0  0
  6 21  1  1  0  0  0
  6 42  1  0  0  0  0
  7 15  1  0  0  0  0
  7 44  1  0  0  0  0
  7 32  1  1  0  0  0
  8  9  1  6  0  0  0
  8 17  1  0  0  0  0
 11 12  1  6  0  0  0
 11 20  1  0  0  0  0
 13  6  1  0  0  0  0
 13 14  1  1  0  0  0
 15 16  1  6  0  0  0
 15 24  1  0  0  0  0
 17 26  1  0  0  0  0
 18 10  1  0  0  0  0
 18 19  1  1  0  0  0
 20 21  1  6  0  0  0
 20 29  1  0  0  0  0
 22 13  1  0  0  0  0
 22 23  1  1  0  0  0
 24 25  1  6  0  0  0
 24 33  1  0  0  0  0
 26 27  1  1  0  0  0
 26 35  1  0  0  0  0
 28  2  1  1  0  0  0
 28 18  1  0  0  0  0
 29 30  1  0  0  0  0
 29 39  1  1  0  0  0
 31 22  1  0  0  0  0
 31 32  1  1  0  0  0
 31 41  1  0  0  0  0
 33 34  1  1  0  0  0
 33 43  1  0  0  0  0
 35 36  1  0  0  0  0
 35 45  1  6  0  0  0
 37 28  1  0  0  0  0
 37 38  1  6  0  0  0
 39 40  1  0  0  0  0
 41 42  1  0  0  0  0
 41 49  1  1  0  0  0
 43 44  1  0  0  0  0
 43 51  1  6  0  0  0
 45 46  1  0  0  0  0
 47 37  1  0  0  0  0
 47 48  1  6  0  0  0
 49 50  1  0  0  0  0
 51 52  1  0  0  0  0
M  END
>  <CHROM.1>
179.76354410,150.09835729,178.16756279,-160.82611787,63.78072451,-154.97964512
60.36919678,179.45363277,65.22181717,114.23936591,-169.41878361,68.22612349
4.21270513,-49.08787474,11.31286343,0.20493191,0.95076692,2.23170365

>  <Name>
2fd0_lig

>  <RI>
2.00683e+07

>  <Rbt.Current_Directory>
/home/itssahil/PROJECTS/Mol_Feturizer/New_Systems/rnas/2fd0

>  <Rbt.Executable>
rbdock ($Id: //depot/dev/client3/rdock/2013.1/src/exe/rbdock.cxx#4 $)

>  <Rbt.Library>
libRbt.so (2013.1, Build901 2013/11/27)

>  <Rbt.Parameter_File>
/export/apps/rDock/src/rDock_2013.1_src/data/scripts/dock_solv.prm

>  <Rbt.Receptor>
prm/pocket_docking_4.prm

>  <SCORE>
-8.60678

>  <SCORE.INTER>
-7.67357

>  <SCORE.INTER.CONST>
1

>  <SCORE.INTER.POLAR>
-0.742792

>  <SCORE.INTER.ROT>
12

>  <SCORE.INTER.SOLV>
17.7503

>  <SCORE.INTER.VDW>
-20.1565

>  <SCORE.INTER.norm>
-0.147569

>  <SCORE.INTRA>
-1.10095

>  <SCORE.INTRA.DIHEDRAL>
-6.76483

>  <SCORE.INTRA.DIHEDRAL.0>
23.9727

>  <SCORE.INTRA.POLAR>
0

>  <SCORE.INTRA.POLAR.0>
0

>  <SCORE.INTRA.REPUL>
0

>  <SCORE.INTRA.REPUL.0>
0

>  <SCORE.INTRA.SOLV>
1.0795

>  <SCORE.INTRA.SOLV.lig_0>
-115.028

>  <SCORE.INTRA.VDW>
1.74172

>  <SCORE.INTRA.VDW.0>
-6.82393

>  <SCORE.INTRA.norm>
-0.0211721

>  <SCORE.RESTR>
0.167739

>  <SCORE.RESTR.CAVITY>
0.167739

>  <SCORE.RESTR.norm>
0.00322575

>  <SCORE.SYSTEM>
0

>  <SCORE.SYSTEM.CONST>
0

>  <SCORE.SYSTEM.DIHEDRAL>
0

>  <SCORE.SYSTEM.SOLV>
0

>  <SCORE.SYSTEM.norm>
0

>  <SCORE.heavy>
52

>  <SCORE.norm>
-0.165515

>  <RMSD>
3.488

$$$$
2fd0_lig
 OpenBabel11021811433D
libRbt.so/2013.1/901 2013/11/27
 52 56  0  0  0  0  0  0  0  0999 V2000
    4.0666  -47.3956   15.2131 C   0  0  2  0  0  0  0  0  0  0  0  0
    4.9450  -47.7948   14.1519 O   0  0  0  0  0  0  0  0  0  0  0  0
    5.0092  -44.3020   11.5656 C   0  0  2  0  0  0  0  0  0  0  0  0
    5.3854  -43.3608   10.4981 N   0  0  0  0  0  0  0  0  0  0  0  0
    3.1796  -48.1116   10.2570 C   0  0  1  0  0  0  0  0  0  0  0  0
    1.5553  -51.3295    7.7462 C   0  0  1  0  0  0  0  0  0  0  0  0
   -2.6085  -53.2914    5.9783 C   0  0  1  0  0  0  0  0  0  0  0  0
    3.9580  -48.5778   16.2437 C   0  0  2  0  0  0  0  0  0  0  0  0
    5.2624  -48.9700   16.7587 N   0  0  0  0  0  0  0  0  0  0  0  0
    6.2536  -44.5839   12.5170 C   0  0  0  0  0  0  0  0  0  0  0  0
    2.8996  -49.5921   10.0748 C   0  0  2  0  0  0  0  0  0  0  0  0
    3.9751  -50.2742    9.3705 O   0  0  0  0  0  0  0  0  0  0  0  0
    1.5526  -51.4644    6.1521 C   0  0  2  0  0  0  0  0  0  0  0  0
    0.4987  -50.5981    5.5570 N   0  0  0  0  0  0  0  0  0  0  0  0
   -2.9866  -52.9381    4.5223 C   0  0  1  0  0  0  0  0  0  0  0  0
   -2.5397  -54.0028    3.6468 O   0  0  0  0  0  0  0  0  0  0  0  0
    3.2055  -49.7998   15.5981 C   0  0  0  0  0  0  0  0  0  0  0  0
    5.8386  -45.6002   13.6850 C   0  0  2  0  0  0  0  0  0  0  0  0
    6.9728  -45.8798   14.5779 N   0  0  0  0  0  0  0  0  0  0  0  0
    1.5431  -49.5997    9.3902 C   0  0  2  0  0  0  0  0  0  0  0  0
    1.6511  -49.9666    8.0417 O   0  0  0  0  0  0  0  0  0  0  0  0
    1.4398  -53.0378    5.8020 C   0  0  1  0  0  0  0  0  0  0  0  0
    2.5359  -53.7150    6.4432 O   0  0  0  0  0  0  0  0  0  0  0  0
   -4.4841  -52.6613    4.2192 C   0  0  1  0  0  0  0  0  0  0  0  0
   -5.0824  -53.8912    3.7907 O   0  0  0  0  0  0  0  0  0  0  0  0
    1.8153  -49.3085   15.0778 C   0  0  2  0  0  0  0  0  0  0  0  0
    1.0933  -50.3920   14.5009 O   0  0  0  0  0  0  0  0  0  0  0  0
    5.3194  -46.9207   13.0506 C   0  0  2  0  0  0  0  0  0  0  0  0
    0.9871  -48.1557    9.3763 C   0  0  2  0  0  0  0  0  0  0  0  0
    1.9250  -47.4571   10.1826 O   0  0  0  0  0  0  0  0  0  0  0  0
    0.0855  -53.6915    6.3960 C   0  0  2  0  0  0  0  0  0  0  0  0
   -0.9781  -52.9983    5.7165 O   0  0  0  0  0  0  0  0  0  0  0  0
   -5.3180  -52.0820    5.3853 C   0  0  2  0  0  0  0  0  0  0  0  0
   -6.1687  -51.0744    4.7957 O   0  0  0  0  0  0  0  0  0  0  0  0
    2.0255  -48.1883   14.0191 C   0  0  2  0  0  0  0  0  0  0  0  0
    2.7626  -47.0779   14.6618 O   0  0  0  0  0  0  0  0  0  0  0  0
    4.1345  -46.6912   12.0635 C   0  0  2  0  0  0  0  0  0  0  0  0
    3.7733  -47.9791   11.5096 O   0  0  0  0  0  0  0  0  0  0  0  0
   -0.3957  -47.9890    9.9963 C   0  0  0  0  0  0  0  0  0  0  0  0
   -1.0045  -46.8511    9.3671 O   0  0  0  0  0  0  0  0  0  0  0  0
    0.0540  -53.3054    7.8628 C   0  0  1  0  0  0  0  0  0  0  0  0
    0.3038  -51.9767    8.3671 O   0  0  0  0  0  0  0  0  0  0  0  0
   -4.4141  -51.5463    6.4924 C   0  0  2  0  0  0  0  0  0  0  0  0
   -3.3951  -52.4774    6.9508 O   0  0  0  0  0  0  0  0  0  0  0  0
    0.7283  -47.6487   13.5062 C   0  0  0  0  0  0  0  0  0  0  0  0
    1.0067  -46.5156   12.7289 O   0  0  0  0  0  0  0  0  0  0  0  0
    4.5588  -45.6810   10.9356 C   0  0  1  0  0  0  0  0  0  0  0  0
    3.4040  -45.4497   10.0568 O   0  0  0  0  0  0  0  0  0  0  0  0
   -1.2280  -53.8174    8.6103 C   0  0  0  0  0  0  0  0  0  0  0  0
   -1.1944  -55.2664    8.9243 N   0  0  0  0  0  0  0  0  0  0  0  0
   -4.9791  -50.9268    7.7687 C   0  0  0  0  0  0  0  0  0  0  0  0
   -5.6061  -49.6404    7.4749 O   0  0  0  0  0  0  0  0  0  0  0  0
  1  2  1  6  0  0  0
  1  8  1  0  0  0  0
  1 36  1  0  0  0  0
  3  4  1  6  0  0  0
  3 10  1  0  0  0  0
  3 47  1  0  0  0  0
  5 11  1  0  0  0  0
  5 30  1  0  0  0  0
  5 38  1  1  0  0  0
  6 21  1  6  0  0  0
  6 42  1  0  0  0  0
  7 15  1  0  0  0  0
  7 44  1  0  0  0  0
  7 32  1  6  0  0  0
  8  9  1  6  0  0  0
  8 17  1  0  0  0  0
 11 12  1  6  0  0  0
 11 20  1  0  0  0  0
 13  6  1  0  0  0  0
 13 14  1  6  0  0  0
 15 16  1  6  0  0  0
 15 24  1  0  0  0  0
 17 26  1  0  0  0  0
 18 10  1  0  0  0  0
 18 19  1  1  0  0  0
 20 21  1  6  0  0  0
 20 29  1  0  0  0  0
 22 13  1  0  0  0  0
 22 23  1  1  0  0  0
 24 25  1  1  0  0  0
 24 33  1  0  0  0  0
 26 27  1  6  0  0  0
 26 35  1  0  0  0  0
 28  2  1  1  0  0  0
 28 18  1  0  0  0  0
 29 30  1  0  0  0  0
 29 39  1  1  0  0  0
 31 22  1  0  0  0  0
 31 32  1  6  0  0  0
 31 41  1  0  0  0  0
 33 34  1  6  0  0  0
 33 43  1  0  0  0  0
 35 36  1  0  0  0  0
 35 45  1  1  0  0  0
 37 28  1  0  0  0  0
 37 38  1  6  0  0  0
 39 40  1  0  0  0  0
 41 42  1  0  0  0  0
 41 49  1  6  0  0  0
 43 44  1  0  0  0  0
 43 51  1  1  0  0  0
 45 46  1  0  0  0  0
 47 37  1  0  0  0  0
 47 48  1  6  0  0  0
 49 50  1  0  0  0  0
 51 52  1  0  0  0  0
M  END
>  <CHROM.1>
-177.28524125,-177.28216789,174.12322372,-148.71765772,89.67962369,52.02157223
-153.02123497,-179.52749480,170.79784644,-153.10869509,76.07615914,-69.75347670
0.97391335,-49.66444978,9.72790993,0.76934337,0.58121615,1.44652569

>  <Name>
2fd0_lig

>  <RI>
1.29864e+07

>  <Rbt.Current_Directory>
/home/itssahil/PROJECTS/Mol_Feturizer/New_Systems/rnas/2fd0

>  <Rbt.Executable>
rbdock ($Id: //depot/dev/client3/rdock/2013.1/src/exe/rbdock.cxx#4 $)

>  <Rbt.Library>
libRbt.so (2013.1, Build901 2013/11/27)

>  <Rbt.Parameter_File>
/export/apps/rDock/src/rDock_2013.1_src/data/scripts/dock_solv.prm

>  <Rbt.Receptor>
prm/pocket_docking_3.prm

>  <SCORE>
-9.52014

>  <SCORE.INTER>
-6.03542

>  <SCORE.INTER.CONST>
1

>  <SCORE.INTER.POLAR>
-1.81094

>  <SCORE.INTER.ROT>
12

>  <SCORE.INTER.SOLV>
11.374

>  <SCORE.INTER.VDW>
-13.3785

>  <SCORE.INTER.norm>
-0.116066

>  <SCORE.INTRA>
-3.76871

>  <SCORE.INTRA.DIHEDRAL>
-8.1771

>  <SCORE.INTRA.DIHEDRAL.0>
23.9727

>  <SCORE.INTRA.POLAR>
0

>  <SCORE.INTRA.POLAR.0>
0

>  <SCORE.INTRA.REPUL>
0

>  <SCORE.INTRA.REPUL.0>
0

>  <SCORE.INTRA.SOLV>
-2.42331

>  <SCORE.INTRA.SOLV.lig_0>
-115.028

>  <SCORE.INTRA.VDW>
1.53149

>  <SCORE.INTRA.VDW.0>
-6.82393

>  <SCORE.INTRA.norm>
-0.0724752

>  <SCORE.RESTR>
0.283986

>  <SCORE.RESTR.CAVITY>
0.283986

>  <SCORE.RESTR.norm>
0.00546128

>  <SCORE.SYSTEM>
0

>  <SCORE.SYSTEM.CONST>
0

>  <SCORE.SYSTEM.DIHEDRAL>
0

>  <SCORE.SYSTEM.SOLV>
0

>  <SCORE.SYSTEM.norm>
0

>  <SCORE.heavy>
52

>  <SCORE.norm>
-0.18308

>  <RMSD>
3.494

$$$$
2fd0_lig
 OpenBabel11021811433D
libRbt.so/2013.1/901 2013/11/27
 52 56  0  0  0  0  0  0  0  0999 V2000
    5.1095  -47.4404   15.9779 C   0  0  2  0  0  0  0  0  0  0  0  0
    5.3982  -48.0571   14.7156 O   0  0  0  0  0  0  0  0  0  0  0  0
    4.9510  -44.8130   11.8575 C   0  0  2  0  0  0  0  0  0  0  0  0
    5.0669  -44.0037   10.6334 N   0  0  0  0  0  0  0  0  0  0  0  0
    2.2213  -48.4794   12.0230 C   0  0  1  0  0  0  0  0  0  0  0  0
    0.2581  -51.0113    9.2139 C   0  0  1  0  0  0  0  0  0  0  0  0
   -3.3608  -52.4757    6.2525 C   0  0  1  0  0  0  0  0  0  0  0  0
    5.0700  -48.5579   17.0829 C   0  0  2  0  0  0  0  0  0  0  0  0
    6.3149  -49.3116   17.1370 N   0  0  0  0  0  0  0  0  0  0  0  0
    6.3943  -45.1315   12.4477 C   0  0  0  0  0  0  0  0  0  0  0  0
    2.2459  -49.7084   11.1329 C   0  0  2  0  0  0  0  0  0  0  0  0
    2.5133  -49.3763    9.7414 O   0  0  0  0  0  0  0  0  0  0  0  0
   -0.6972  -50.4737    8.0487 C   0  0  2  0  0  0  0  0  0  0  0  0
   -2.1091  -50.4166    8.5163 N   0  0  0  0  0  0  0  0  0  0  0  0
   -3.0793  -53.6390    5.2752 C   0  0  1  0  0  0  0  0  0  0  0  0
   -3.5736  -54.8721    5.8541 O   0  0  0  0  0  0  0  0  0  0  0  0
    3.8348  -49.5067   16.8585 C   0  0  0  0  0  0  0  0  0  0  0  0
    6.2652  -46.0033   13.7865 C   0  0  2  0  0  0  0  0  0  0  0  0
    7.5867  -46.3140   14.3513 N   0  0  0  0  0  0  0  0  0  0  0  0
    0.9037  -50.3611   11.4175 C   0  0  2  0  0  0  0  0  0  0  0  0
    0.0224  -50.2139   10.3374 O   0  0  0  0  0  0  0  0  0  0  0  0
   -0.4321  -51.3925    6.7461 C   0  0  1  0  0  0  0  0  0  0  0  0
    0.9702  -51.3213    6.4305 O   0  0  0  0  0  0  0  0  0  0  0  0
   -3.6508  -53.5187    3.8365 C   0  0  1  0  0  0  0  0  0  0  0  0
   -4.9292  -54.1663    3.8138 O   0  0  0  0  0  0  0  0  0  0  0  0
    2.5382  -48.6336   16.8208 C   0  0  2  0  0  0  0  0  0  0  0  0
    1.3925  -49.4593   16.6370 O   0  0  0  0  0  0  0  0  0  0  0  0
    5.4982  -47.3168   13.4670 C   0  0  2  0  0  0  0  0  0  0  0  0
    0.2312  -49.6176   12.5963 C   0  0  2  0  0  0  0  0  0  0  0  0
    1.2574  -48.7361   13.0294 O   0  0  0  0  0  0  0  0  0  0  0  0
   -0.7604  -52.9499    7.0305 C   0  0  2  0  0  0  0  0  0  0  0  0
   -2.1701  -52.9740    7.3233 O   0  0  0  0  0  0  0  0  0  0  0  0
   -3.8106  -52.0826    3.2862 C   0  0  2  0  0  0  0  0  0  0  0  0
   -3.3827  -52.1415    1.9078 O   0  0  0  0  0  0  0  0  0  0  0  0
    2.6413  -47.6040   15.6593 C   0  0  2  0  0  0  0  0  0  0  0  0
    3.8317  -46.7578   15.8967 O   0  0  0  0  0  0  0  0  0  0  0  0
    4.0979  -47.0590   12.8317 C   0  0  2  0  0  0  0  0  0  0  0  0
    3.5071  -48.3485   12.5413 O   0  0  0  0  0  0  0  0  0  0  0  0
   -0.1706  -50.5001   13.7728 C   0  0  0  0  0  0  0  0  0  0  0  0
   -1.1264  -51.4506   13.2786 O   0  0  0  0  0  0  0  0  0  0  0  0
    0.0014  -53.3045    8.2936 C   0  0  1  0  0  0  0  0  0  0  0  0
    0.0155  -52.5055    9.4951 O   0  0  0  0  0  0  0  0  0  0  0  0
   -3.0228  -51.0823    4.1278 C   0  0  2  0  0  0  0  0  0  0  0  0
   -3.2753  -51.1575    5.5582 O   0  0  0  0  0  0  0  0  0  0  0  0
    1.4434  -46.7110   15.5914 C   0  0  0  0  0  0  0  0  0  0  0  0
    0.3132  -47.5159   15.3903 O   0  0  0  0  0  0  0  0  0  0  0  0
    4.2470  -46.1907   11.5292 C   0  0  1  0  0  0  0  0  0  0  0  0
    2.9066  -45.9250   10.9887 O   0  0  0  0  0  0  0  0  0  0  0  0
   -0.2312  -54.7848    8.7617 C   0  0  0  0  0  0  0  0  0  0  0  0
    0.5759  -55.1680    9.9454 N   0  0  0  0  0  0  0  0  0  0  0  0
   -3.0145  -49.5885    3.8110 C   0  0  0  0  0  0  0  0  0  0  0  0
   -2.0170  -48.9013    4.6279 O   0  0  0  0  0  0  0  0  0  0  0  0
  1  2  1  6  0  0  0
  1  8  1  0  0  0  0
  1 36  1  0  0  0  0
  3  4  1  6  0  0  0
  3 10  1  0  0  0  0
  3 47  1  0  0  0  0
  5 11  1  0  0  0  0
  5 30  1  0  0  0  0
  5 38  1  1  0  0  0
  6 21  1  1  0  0  0
  6 42  1  0  0  0  0
  7 15  1  0  0  0  0
  7 44  1  0  0  0  0
  7 32  1  1  0  0  0
  8  9  1  6  0  0  0
  8 17  1  0  0  0  0
 11 12  1  6  0  0  0
 11 20  1  0  0  0  0
 13  6  1  0  0  0  0
 13 14  1  1  0  0  0
 15 16  1  1  0  0  0
 15 24  1  0  0  0  0
 17 26  1  0  0  0  0
 18 10  1  0  0  0  0
 18 19  1  6  0  0  0
 20 21  1  6  0  0  0
 20 29  1  0  0  0  0
 22 13  1  0  0  0  0
 22 23  1  1  0  0  0
 24 25  1  1  0  0  0
 24 33  1  0  0  0  0
 26 27  1  6  0  0  0
 26 35  1  0  0  0  0
 28  2  1  1  0  0  0
 28 18  1  0  0  0  0
 29 30  1  0  0  0  0
 29 39  1  1  0  0  0
 31 22  1  0  0  0  0
 31 32  1  1  0  0  0
 31 41  1  0  0  0  0
 33 34  1  6  0  0  0
 33 43  1  0  0  0  0
 35 36  1  0  0  0  0
 35 45  1  1  0  0  0
 37 28  1  0  0  0  0
 37 38  1  6  0  0  0
 39 40  1  0  0  0  0
 41 42  1  0  0  0  0
 41 49  1  1  0  0  0
 43 44  1  0  0  0  0
 43 51  1  6  0  0  0
 45 46  1  0  0  0  0
 47 37  1  0  0  0  0
 47 48  1  1  0  0  0
 49 50  1  0  0  0  0
 51 52  1  0  0  0  0
M  END
>  <CHROM.1>
179.45343714,147.32088385,-169.93533450,67.03472411,74.59043526,41.03585563
-61.33175413,60.50400055,-59.84172396,176.85757288,176.30253350,-170.66663920
1.00327225,-49.81154115,10.50563260,0.54779544,0.87768695,1.97532923

>  <Name>
2fd0_lig

>  <RI>
0

>  <Rbt.Current_Directory>
/home/itssahil/PROJECTS/Mol_Feturizer/New_Systems/rnas/2fd0

>  <Rbt.Executable>
rbdock ($Id: //depot/dev/client3/rdock/2013.1/src/exe/rbdock.cxx#4 $)

>  <Rbt.Library>
libRbt.so (2013.1, Build901 2013/11/27)

>  <Rbt.Parameter_File>
/export/apps/rDock/src/rDock_2013.1_src/data/scripts/dock_solv.prm

>  <Rbt.Receptor>
prm/pocket_docking_5.prm

>  <SCORE>
-14.8136

>  <SCORE.INTER>
-6.8778

>  <SCORE.INTER.CONST>
1

>  <SCORE.INTER.POLAR>
-0.916515

>  <SCORE.INTER.ROT>
12

>  <SCORE.INTER.SOLV>
13.2659

>  <SCORE.INTER.VDW>
-17.5521

>  <SCORE.INTER.norm>
-0.132265

>  <SCORE.INTRA>
-7.93583

>  <SCORE.INTRA.DIHEDRAL>
-14.4575

>  <SCORE.INTRA.DIHEDRAL.0>
23.9727

>  <SCORE.INTRA.POLAR>
0

>  <SCORE.INTRA.POLAR.0>
0

>  <SCORE.INTRA.REPUL>
0

>  <SCORE.INTRA.REPUL.0>
0

>  <SCORE.INTRA.SOLV>
-1.48706

>  <SCORE.INTRA.SOLV.lig_0>
-115.028

>  <SCORE.INTRA.VDW>
0.0364269

>  <SCORE.INTRA.VDW.0>
-6.82393

>  <SCORE.INTRA.norm>
-0.152612

>  <SCORE.RESTR>
0

>  <SCORE.RESTR.CAVITY>
0

>  <SCORE.RESTR.norm>
0

>  <SCORE.SYSTEM>
0

>  <SCORE.SYSTEM.CONST>
0

>  <SCORE.SYSTEM.DIHEDRAL>
0

>  <SCORE.SYSTEM.SOLV>
0

>  <SCORE.SYSTEM.norm>
0

>  <SCORE.heavy>
52

>  <SCORE.norm>
-0.284877

>  <RMSD>
3.520

$$$$
2fd0_lig
 OpenBabel11021811433D
libRbt.so/2013.1/901 2013/11/27
 52 56  0  0  0  0  0  0  0  0999 V2000
    5.4936  -47.8932   14.6111 C   0  0  2  0  0  0  0  0  0  0  0  0
    5.0279  -48.3292   13.3266 O   0  0  0  0  0  0  0  0  0  0  0  0
    4.1925  -44.6031   11.2503 C   0  0  2  0  0  0  0  0  0  0  0  0
    3.9130  -43.6331   10.1788 N   0  0  0  0  0  0  0  0  0  0  0  0
    1.9406  -48.4718   11.3452 C   0  0  1  0  0  0  0  0  0  0  0  0
    2.0168  -52.3772    8.9852 C   0  0  1  0  0  0  0  0  0  0  0  0
   -2.0790  -53.4219    6.5139 C   0  0  1  0  0  0  0  0  0  0  0  0
    5.6741  -49.1545   15.5320 C   0  0  2  0  0  0  0  0  0  0  0  0
    6.5829  -50.1292   14.9448 N   0  0  0  0  0  0  0  0  0  0  0  0
    5.5677  -45.3538   10.9706 C   0  0  0  0  0  0  0  0  0  0  0  0
    2.9429  -49.6022   11.1993 C   0  0  2  0  0  0  0  0  0  0  0  0
    4.0502  -49.2478   10.3238 O   0  0  0  0  0  0  0  0  0  0  0  0
    2.2493  -52.4337    7.4034 C   0  0  2  0  0  0  0  0  0  0  0  0
    1.4707  -51.3632    6.7230 N   0  0  0  0  0  0  0  0  0  0  0  0
   -2.1765  -52.8351    5.0877 C   0  0  1  0  0  0  0  0  0  0  0  0
   -1.8363  -53.8665    4.1285 O   0  0  0  0  0  0  0  0  0  0  0  0
    4.2760  -49.7986   15.8590 C   0  0  0  0  0  0  0  0  0  0  0  0
    5.8754  -46.4014   12.1441 C   0  0  2  0  0  0  0  0  0  0  0  0
    7.1411  -47.1114   11.9082 N   0  0  0  0  0  0  0  0  0  0  0  0
    2.0786  -50.7662   10.7448 C   0  0  2  0  0  0  0  0  0  0  0  0
    2.2963  -51.0700    9.3938 O   0  0  0  0  0  0  0  0  0  0  0  0
    1.9260  -53.9421    6.9225 C   0  0  1  0  0  0  0  0  0  0  0  0
    2.7707  -54.8367    7.6689 O   0  0  0  0  0  0  0  0  0  0  0  0
   -3.5327  -52.2098    4.6627 C   0  0  1  0  0  0  0  0  0  0  0  0
   -4.3007  -53.2260    4.0055 O   0  0  0  0  0  0  0  0  0  0  0  0
    3.3597  -48.7013   16.4923 C   0  0  2  0  0  0  0  0  0  0  0  0
    2.0872  -49.2502   16.8205 O   0  0  0  0  0  0  0  0  0  0  0  0
    4.7027  -47.4169   12.2407 C   0  0  2  0  0  0  0  0  0  0  0  0
    0.5925  -50.3440   10.8331 C   0  0  2  0  0  0  0  0  0  0  0  0
    0.6692  -49.0825   11.4814 O   0  0  0  0  0  0  0  0  0  0  0  0
    0.4014  -54.3662    7.2541 C   0  0  2  0  0  0  0  0  0  0  0  0
   -0.4028  -53.4599    6.4760 O   0  0  0  0  0  0  0  0  0  0  0  0
   -4.3852  -51.5983    5.7985 C   0  0  2  0  0  0  0  0  0  0  0  0
   -4.9286  -50.3716    5.2634 O   0  0  0  0  0  0  0  0  0  0  0  0
    3.1870  -47.5275   15.4863 C   0  0  2  0  0  0  0  0  0  0  0  0
    4.5269  -46.9763   15.1855 O   0  0  0  0  0  0  0  0  0  0  0  0
    3.3219  -46.7259   12.4573 C   0  0  2  0  0  0  0  0  0  0  0  0
    2.3144  -47.7652   12.4854 O   0  0  0  0  0  0  0  0  0  0  0  0
   -0.2916  -51.2605   11.6714 C   0  0  0  0  0  0  0  0  0  0  0  0
    0.2050  -51.2084   13.0174 O   0  0  0  0  0  0  0  0  0  0  0  0
    0.1995  -54.0507    8.7242 C   0  0  1  0  0  0  0  0  0  0  0  0
    0.5889  -52.8150    9.3593 O   0  0  0  0  0  0  0  0  0  0  0  0
   -3.5522  -51.3972    7.0616 C   0  0  2  0  0  0  0  0  0  0  0  0
   -2.8123  -52.5713    7.4967 O   0  0  0  0  0  0  0  0  0  0  0  0
    2.3470  -46.4246   16.0477 C   0  0  0  0  0  0  0  0  0  0  0  0
    2.2280  -45.4284   15.0685 O   0  0  0  0  0  0  0  0  0  0  0  0
    3.0477  -45.6931   11.3038 C   0  0  1  0  0  0  0  0  0  0  0  0
    1.7655  -45.0260   11.5688 O   0  0  0  0  0  0  0  0  0  0  0  0
   -1.2554  -54.3562    9.2287 C   0  0  0  0  0  0  0  0  0  0  0  0
   -1.4482  -54.1024   10.6771 N   0  0  0  0  0  0  0  0  0  0  0  0
   -4.1507  -50.8170    8.3411 C   0  0  0  0  0  0  0  0  0  0  0  0
   -5.5619  -51.1788    8.4517 O   0  0  0  0  0  0  0  0  0  0  0  0
  1  2  1  6  0  0  0
  1  8  1  0  0  0  0
  1 36  1  0  0  0  0
  3  4  1  6  0  0  0
  3 10  1  0  0  0  0
  3 47  1  0  0  0  0
  5 11  1  0  0  0  0
  5 30  1  0  0  0  0
  5 38  1  1  0  0  0
  6 21  1  6  0  0  0
  6 42  1  0  0  0  0
  7 15  1  0  0  0  0
  7 44  1  0  0  0  0
  7 32  1  1  0  0  0
  8  9  1  6  0  0  0
  8 17  1  0  0  0  0
 11 12  1  6  0  0  0
 11 20  1  0  0  0  0
 13  6  1  0  0  0  0
 13 14  1  6  0  0  0
 15 16  1  6  0  0  0
 15 24  1  0  0  0  0
 17 26  1  0  0  0  0
 18 10  1  0  0  0  0
 18 19  1  6  0  0  0
 20 21  1  6  0  0  0
 20 29  1  0  0  0  0
 22 13  1  0  0  0  0
 22 23  1  1  0  0  0
 24 25  1  1  0  0  0
 24 33  1  0  0  0  0
 26 27  1  6  0  0  0
 26 35  1  0  0  0  0
 28  2  1  1  0  0  0
 28 18  1  0  0  0  0
 29 30  1  0  0  0  0
 29 39  1  1  0  0  0
 31 22  1  0  0  0  0
 31 32  1  6  0  0  0
 31 41  1  0  0  0  0
 33 34  1  6  0  0  0
 33 43  1  0  0  0  0
 35 36  1  0  0  0  0
 35 45  1  1  0  0  0
 37 28  1  0  0  0  0
 37 38  1  6  0  0  0
 39 40  1  0  0  0  0
 41 42  1  0  0  0  0
 41 49  1  6  0  0  0
 43 44  1  0  0  0  0
 43 51  1  1  0  0  0
 45 46  1  0  0  0  0
 47 37  1  0  0  0  0
 47 48  1  1  0  0  0
 49 50  1  0  0  0  0
 51 52  1  0  0  0  0
M  END
>  <CHROM.1>
177.49278237,84.59494678,176.21583553,-154.15280920,154.98968431,46.91979686
62.99628036,-176.88948583,-178.98267604,-71.02031673,177.68835007,31.05397142
1.30164644,-50.05036153,10.41689877,-0.74308172,0.67200244,-2.81066466

>  <Name>
2fd0_lig

>  <RI>
2.00683e+07

>  <Rbt.Current_Directory>
/home/itssahil/PROJECTS/Mol_Feturizer/New_Systems/rnas/2fd0

>  <Rbt.Executable>
rbdock ($Id: //depot/dev/client3/rdock/2013.1/src/exe/rbdock.cxx#4 $)

>  <Rbt.Library>
libRbt.so (2013.1, Build901 2013/11/27)

>  <Rbt.Parameter_File>
/export/apps/rDock/src/rDock_2013.1_src/data/scripts/dock_solv.prm

>  <Rbt.Receptor>
prm/pocket_docking_4.prm

>  <SCORE>
-14.8589

>  <SCORE.INTER>
-11.1845

>  <SCORE.INTER.CONST>
1

>  <SCORE.INTER.POLAR>
-2.72623

>  <SCORE.INTER.ROT>
12

>  <SCORE.INTER.SOLV>
17.8071

>  <SCORE.INTER.VDW>
-15.9046

>  <SCORE.INTER.norm>
-0.215086

>  <SCORE.INTRA>
-3.81525

>  <SCORE.INTRA.DIHEDRAL>
-10.5777

>  <SCORE.INTRA.DIHEDRAL.0>
23.9727

>  <SCORE.INTRA.POLAR>
0

>  <SCORE.INTRA.POLAR.0>
0

>  <SCORE.INTRA.REPUL>
0

>  <SCORE.INTRA.REPUL.0>
0

>  <SCORE.INTRA.SOLV>
-0.478571

>  <SCORE.INTRA.SOLV.lig_0>
-115.028

>  <SCORE.INTRA.VDW>
1.71289

>  <SCORE.INTRA.VDW.0>
-6.82393

>  <SCORE.INTRA.norm>
-0.0733702

>  <SCORE.RESTR>
0.14088

>  <SCORE.RESTR.CAVITY>
0.14088

>  <SCORE.RESTR.norm>
0.00270923

>  <SCORE.SYSTEM>
0

>  <SCORE.SYSTEM.CONST>
0

>  <SCORE.SYSTEM.DIHEDRAL>
0

>  <SCORE.SYSTEM.SOLV>
0

>  <SCORE.SYSTEM.norm>
0

>  <SCORE.heavy>
52

>  <SCORE.norm>
-0.285747

>  <RMSD>
3.544

$$$$
2fd0_lig
 OpenBabel11021811433D
libRbt.so/2013.1/901 2013/11/27
 52 56  0  0  0  0  0  0  0  0999 V2000
    4.7892  -48.1975   15.8372 C   0  0  2  0  0  0  0  0  0  0  0  0
    4.8329  -47.2216   14.7871 O   0  0  0  0  0  0  0  0  0  0  0  0
    8.1555  -45.2647   12.7812 C   0  0  2  0  0  0  0  0  0  0  0  0
    9.3475  -45.0405   11.9470 N   0  0  0  0  0  0  0  0  0  0  0  0
    4.8155  -47.3670   10.8510 C   0  0  1  0  0  0  0  0  0  0  0  0
    2.9726  -50.8359    8.9362 C   0  0  1  0  0  0  0  0  0  0  0  0
    0.3281  -53.0506    5.0273 C   0  0  1  0  0  0  0  0  0  0  0  0
    4.9076  -49.6279   15.1956 C   0  0  2  0  0  0  0  0  0  0  0  0
    6.1180  -49.7660   14.3977 N   0  0  0  0  0  0  0  0  0  0  0  0
    8.4602  -46.3575   13.8974 C   0  0  0  0  0  0  0  0  0  0  0  0
    3.7139  -48.4109   10.8444 C   0  0  2  0  0  0  0  0  0  0  0  0
    4.1204  -49.6458   11.4987 O   0  0  0  0  0  0  0  0  0  0  0  0
    3.6567  -52.0315    8.1225 C   0  0  2  0  0  0  0  0  0  0  0  0
    3.9760  -51.6018    6.7338 N   0  0  0  0  0  0  0  0  0  0  0  0
    0.0051  -51.5479    4.8689 C   0  0  1  0  0  0  0  0  0  0  0  0
    1.1188  -50.8921    4.2136 O   0  0  0  0  0  0  0  0  0  0  0  0
    3.6224  -49.9565   14.3490 C   0  0  0  0  0  0  0  0  0  0  0  0
    7.1644  -46.5918   14.8113 C   0  0  2  0  0  0  0  0  0  0  0  0
    7.4188  -47.6005   15.8504 N   0  0  0  0  0  0  0  0  0  0  0  0
    3.3592  -48.5215    9.3712 C   0  0  2  0  0  0  0  0  0  0  0  0
    3.8166  -49.7275    8.8224 O   0  0  0  0  0  0  0  0  0  0  0  0
    2.6854  -53.3168    8.2474 C   0  0  1  0  0  0  0  0  0  0  0  0
    2.4963  -53.5962    9.6464 O   0  0  0  0  0  0  0  0  0  0  0  0
   -1.2932  -51.1720    4.1047 C   0  0  1  0  0  0  0  0  0  0  0  0
   -0.9515  -50.9670    2.7280 O   0  0  0  0  0  0  0  0  0  0  0  0
    2.3678  -49.7974   15.2685 C   0  0  2  0  0  0  0  0  0  0  0  0
    1.1818  -50.1047   14.5426 O   0  0  0  0  0  0  0  0  0  0  0  0
    5.9797  -47.0395   13.9103 C   0  0  2  0  0  0  0  0  0  0  0  0
    4.1086  -47.4112    8.5965 C   0  0  2  0  0  0  0  0  0  0  0  0
    4.6816  -46.6396    9.6423 O   0  0  0  0  0  0  0  0  0  0  0  0
    1.2178  -53.0245    7.6349 C   0  0  2  0  0  0  0  0  0  0  0  0
    1.4542  -52.7686    6.2377 O   0  0  0  0  0  0  0  0  0  0  0  0
   -2.4491  -52.1959    4.1833 C   0  0  2  0  0  0  0  0  0  0  0  0
   -3.6533  -51.4154    4.3475 O   0  0  0  0  0  0  0  0  0  0  0  0
    2.2994  -48.3379   15.8023 C   0  0  2  0  0  0  0  0  0  0  0  0
    3.5394  -48.0655   16.5623 O   0  0  0  0  0  0  0  0  0  0  0  0
    5.6779  -46.0278   12.7630 C   0  0  2  0  0  0  0  0  0  0  0  0
    4.5939  -46.5743   11.9742 O   0  0  0  0  0  0  0  0  0  0  0  0
    3.2227  -46.4975    7.7570 C   0  0  0  0  0  0  0  0  0  0  0  0
    2.4661  -47.3400    6.8743 O   0  0  0  0  0  0  0  0  0  0  0  0
    0.7502  -51.7382    8.2892 C   0  0  1  0  0  0  0  0  0  0  0  0
    1.5516  -50.5453    8.4195 O   0  0  0  0  0  0  0  0  0  0  0  0
   -2.2152  -53.2014    5.3076 C   0  0  2  0  0  0  0  0  0  0  0  0
   -0.9095  -53.8419    5.2902 O   0  0  0  0  0  0  0  0  0  0  0  0
    1.1372  -48.1288   16.7204 C   0  0  0  0  0  0  0  0  0  0  0  0
   -0.0056  -47.9251   15.9341 O   0  0  0  0  0  0  0  0  0  0  0  0
    6.9654  -45.8022   11.8889 C   0  0  1  0  0  0  0  0  0  0  0  0
    6.6583  -44.8065   10.8527 O   0  0  0  0  0  0  0  0  0  0  0  0
   -0.6561  -51.2606    7.7805 C   0  0  0  0  0  0  0  0  0  0  0  0
   -1.1307  -50.0137    8.4280 N   0  0  0  0  0  0  0  0  0  0  0  0
   -3.2002  -54.3311    5.6001 C   0  0  0  0  0  0  0  0  0  0  0  0
   -4.5360  -53.7909    5.8416 O   0  0  0  0  0  0  0  0  0  0  0  0
  1  2  1  6  0  0  0
  1  8  1  0  0  0  0
  1 36  1  0  0  0  0
  3  4  1  6  0  0  0
  3 10  1  0  0  0  0
  3 47  1  0  0  0  0
  5 11  1  0  0  0  0
  5 30  1  0  0  0  0
  5 38  1  1  0  0  0
  6 21  1  6  0  0  0
  6 42  1  0  0  0  0
  7 15  1  0  0  0  0
  7 44  1  0  0  0  0
  7 32  1  1  0  0  0
  8  9  1  6  0  0  0
  8 17  1  0  0  0  0
 11 12  1  6  0  0  0
 11 20  1  0  0  0  0
 13  6  1  0  0  0  0
 13 14  1  6  0  0  0
 15 16  1  6  0  0  0
 15 24  1  0  0  0  0
 17 26  1  0  0  0  0
 18 10  1  0  0  0  0
 18 19  1  1  0  0  0
 20 21  1  6  0  0  0
 20 29  1  0  0  0  0
 22 13  1  0  0  0  0
 22 23  1  1  0  0  0
 24 25  1  6  0  0  0
 24 33  1  0  0  0  0
 26 27  1  6  0  0  0
 26 35  1  0  0  0  0
 28  2  1  1  0  0  0
 28 18  1  0  0  0  0
 29 30  1  0  0  0  0
 29 39  1  1  0  0  0
 31 22  1  0  0  0  0
 31 32  1  6  0  0  0
 31 41  1  0  0  0  0
 33 34  1  1  0  0  0
 33 43  1  0  0  0  0
 35 36  1  0  0  0  0
 35 45  1  1  0  0  0
 37 28  1  0  0  0  0
 37 38  1  6  0  0  0
 39 40  1  0  0  0  0
 41 42  1  0  0  0  0
 41 49  1  6  0  0  0
 43 44  1  0  0  0  0
 43 51  1  6  0  0  0
 45 46  1  0  0  0  0
 47 37  1  0  0  0  0
 47 48  1  6  0  0  0
 49 50  1  0  0  0  0
 51 52  1  0  0  0  0
M  END
>  <CHROM.1>
-62.41874829,143.97005278,174.86027902,104.66812131,86.80847184,-62.97594475
-55.30794812,152.60798562,-81.08072833,-92.30231348,179.19862273,-55.87975208
2.65235298,-49.56582041,10.04656339,0.83050709,0.63153113,1.53503784

>  <Name>
2fd0_lig

>  <RI>
2.00683e+07

>  <Rbt.Current_Directory>
/home/itssahil/PROJECTS/Mol_Feturizer/New_Systems/rnas/2fd0

>  <Rbt.Executable>
rbdock ($Id: //depot/dev/client3/rdock/2013.1/src/exe/rbdock.cxx#4 $)

>  <Rbt.Library>
libRbt.so (2013.1, Build901 2013/11/27)

>  <Rbt.Parameter_File>
/export/apps/rDock/src/rDock_2013.1_src/data/scripts/dock_solv.prm

>  <Rbt.Receptor>
prm/pocket_docking_4.prm

>  <SCORE>
-17.8493

>  <SCORE.INTER>
-21.0845

>  <SCORE.INTER.CONST>
1

>  <SCORE.INTER.POLAR>
-2.61017

>  <SCORE.INTER.ROT>
12

>  <SCORE.INTER.SOLV>
18.0763

>  <SCORE.INTER.VDW>
-22.9812

>  <SCORE.INTER.norm>
-0.40547

>  <SCORE.INTRA>
3.23511

>  <SCORE.INTRA.DIHEDRAL>
0.213279

>  <SCORE.INTRA.DIHEDRAL.0>
23.9727

>  <SCORE.INTRA.POLAR>
0

>  <SCORE.INTRA.POLAR.0>
0

>  <SCORE.INTRA.REPUL>
0

>  <SCORE.INTRA.REPUL.0>
0

>  <SCORE.INTRA.SOLV>
2.448

>  <SCORE.INTRA.SOLV.lig_0>
-115.028

>  <SCORE.INTRA.VDW>
1.90447

>  <SCORE.INTRA.VDW.0>
-6.82393

>  <SCORE.INTRA.norm>
0.0622137

>  <SCORE.RESTR>
0

>  <SCORE.RESTR.CAVITY>
0

>  <SCORE.RESTR.norm>
0

>  <SCORE.SYSTEM>
0

>  <SCORE.SYSTEM.CONST>
0

>  <SCORE.SYSTEM.DIHEDRAL>
0

>  <SCORE.SYSTEM.SOLV>
0

>  <SCORE.SYSTEM.norm>
0

>  <SCORE.heavy>
52

>  <SCORE.norm>
-0.343257

>  <RMSD>
3.559

$$$$
2fd0_lig
 OpenBabel11021811433D
libRbt.so/2013.1/901 2013/11/27
 52 56  0  0  0  0  0  0  0  0999 V2000
    6.1466  -47.4191   15.8255 C   0  0  2  0  0  0  0  0  0  0  0  0
    6.5142  -48.2486   14.7147 O   0  0  0  0  0  0  0  0  0  0  0  0
    5.6052  -45.7657   11.2648 C   0  0  2  0  0  0  0  0  0  0  0  0
    5.5749  -45.2424    9.8893 N   0  0  0  0  0  0  0  0  0  0  0  0
    3.4274  -49.5808   12.0750 C   0  0  1  0  0  0  0  0  0  0  0  0
   -0.0433  -52.1851   11.2107 C   0  0  1  0  0  0  0  0  0  0  0  0
   -2.7832  -52.3246    7.0036 C   0  0  1  0  0  0  0  0  0  0  0  0
    6.3522  -48.2388   17.1511 C   0  0  2  0  0  0  0  0  0  0  0  0
    7.7196  -48.7218   17.2838 N   0  0  0  0  0  0  0  0  0  0  0  0
    7.1035  -45.8327   11.7973 C   0  0  0  0  0  0  0  0  0  0  0  0
    3.3470  -51.0859   12.2527 C   0  0  2  0  0  0  0  0  0  0  0  0
    4.0241  -51.8044   11.1834 O   0  0  0  0  0  0  0  0  0  0  0  0
   -0.3280  -53.1692    9.9819 C   0  0  2  0  0  0  0  0  0  0  0  0
    0.2531  -52.6186    8.7271 N   0  0  0  0  0  0  0  0  0  0  0  0
   -2.1768  -51.1780    6.1637 C   0  0  1  0  0  0  0  0  0  0  0  0
   -0.7314  -51.2569    6.2311 O   0  0  0  0  0  0  0  0  0  0  0  0
    5.3165  -49.4210   17.2303 C   0  0  0  0  0  0  0  0  0  0  0  0
    7.1330  -46.3923   13.2990 C   0  0  2  0  0  0  0  0  0  0  0  0
    8.5080  -46.4667   13.8145 N   0  0  0  0  0  0  0  0  0  0  0  0
    1.8535  -51.3336   12.3820 C   0  0  2  0  0  0  0  0  0  0  0  0
    1.3336  -51.9455   11.2331 O   0  0  0  0  0  0  0  0  0  0  0  0
   -1.9190  -53.4495    9.9477 C   0  0  1  0  0  0  0  0  0  0  0  0
   -2.3027  -53.9866   11.2265 O   0  0  0  0  0  0  0  0  0  0  0  0
   -2.5859  -51.0931    4.6683 C   0  0  1  0  0  0  0  0  0  0  0  0
   -1.6087  -51.8088    3.9020 O   0  0  0  0  0  0  0  0  0  0  0  0
    3.8759  -48.8294   17.0906 C   0  0  2  0  0  0  0  0  0  0  0  0
    2.9054  -49.8682   17.1757 O   0  0  0  0  0  0  0  0  0  0  0  0
    6.4731  -47.7991   13.3314 C   0  0  2  0  0  0  0  0  0  0  0  0
    1.1315  -49.9683   12.4787 C   0  0  2  0  0  0  0  0  0  0  0  0
    2.2139  -49.0546   12.5835 O   0  0  0  0  0  0  0  0  0  0  0  0
   -2.7665  -52.0870    9.7487 C   0  0  2  0  0  0  0  0  0  0  0  0
   -2.3643  -51.5973    8.4556 O   0  0  0  0  0  0  0  0  0  0  0  0
   -3.9900  -51.6361    4.3156 C   0  0  2  0  0  0  0  0  0  0  0  0
   -4.5428  -50.7026    3.3620 O   0  0  0  0  0  0  0  0  0  0  0  0
    3.7481  -48.0953   15.7252 C   0  0  2  0  0  0  0  0  0  0  0  0
    4.7599  -47.0163   15.6845 O   0  0  0  0  0  0  0  0  0  0  0  0
    5.0205  -47.7978   12.7649 C   0  0  2  0  0  0  0  0  0  0  0  0
    4.5353  -49.1612   12.8069 O   0  0  0  0  0  0  0  0  0  0  0  0
    0.2376  -49.7945   13.7015 C   0  0  0  0  0  0  0  0  0  0  0  0
    1.0413  -50.0856   14.8550 O   0  0  0  0  0  0  0  0  0  0  0  0
   -2.2556  -51.1290   10.8083 C   0  0  1  0  0  0  0  0  0  0  0  0
   -0.8618  -50.8864   11.0919 O   0  0  0  0  0  0  0  0  0  0  0  0
   -4.8433  -51.8050    5.5698 C   0  0  2  0  0  0  0  0  0  0  0  0
   -4.2110  -52.5608    6.6395 O   0  0  0  0  0  0  0  0  0  0  0  0
    2.3996  -47.4739   15.5448 C   0  0  0  0  0  0  0  0  0  0  0  0
    2.3937  -46.7995   14.3156 O   0  0  0  0  0  0  0  0  0  0  0  0
    5.0133  -47.2320   11.2977 C   0  0  1  0  0  0  0  0  0  0  0  0
    3.6251  -47.1973   10.8170 O   0  0  0  0  0  0  0  0  0  0  0  0
   -2.9360  -49.7157   10.7447 C   0  0  0  0  0  0  0  0  0  0  0  0
   -2.7829  -49.0404    9.4333 N   0  0  0  0  0  0  0  0  0  0  0  0
   -6.2736  -52.3365    5.5091 C   0  0  0  0  0  0  0  0  0  0  0  0
   -7.1172  -51.4371    4.7257 O   0  0  0  0  0  0  0  0  0  0  0  0
  1  2  1  6  0  0  0
  1  8  1  0  0  0  0
  1 36  1  0  0  0  0
  3  4  1  6  0  0  0
  3 10  1  0  0  0  0
  3 47  1  0  0  0  0
  5 11  1  0  0  0  0
  5 30  1  0  0  0  0
  5 38  1  1  0  0  0
  6 21  1  6  0  0  0
  6 42  1  0  0  0  0
  7 15  1  0  0  0  0
  7 44  1  0  0  0  0
  7 32  1  1  0  0  0
  8  9  1  6  0  0  0
  8 17  1  0  0  0  0
 11 12  1  6  0  0  0
 11 20  1  0  0  0  0
 13  6  1  0  0  0  0
 13 14  1  6  0  0  0
 15 16  1  6  0  0  0
 15 24  1  0  0  0  0
 17 26  1  0  0  0  0
 18 10  1  0  0  0  0
 18 19  1  6  0  0  0
 20 21  1  6  0  0  0
 20 29  1  0  0  0  0
 22 13  1  0  0  0  0
 22 23  1  1  0  0  0
 24 25  1  6  0  0  0
 24 33  1  0  0  0  0
 26 27  1  6  0  0  0
 26 35  1  0  0  0  0
 28  2  1  1  0  0  0
 28 18  1  0  0  0  0
 29 30  1  0  0  0  0
 29 39  1  1  0  0  0
 31 22  1  0  0  0  0
 31 32  1  6  0  0  0
 31 41  1  0  0  0  0
 33 34  1  6  0  0  0
 33 43  1  0  0  0  0
 35 36  1  0  0  0  0
 35 45  1  1  0  0  0
 37 28  1  0  0  0  0
 37 38  1  6  0  0  0
 39 40  1  0  0  0  0
 41 42  1  0  0  0  0
 41 49  1  6  0  0  0
 43 44  1  0  0  0  0
 43 51  1  6  0  0  0
 45 46  1  0  0  0  0
 47 37  1  0  0  0  0
 47 48  1  1  0  0  0
 49 50  1  0  0  0  0
 51 52  1  0  0  0  0
M  END
>  <CHROM.1>
-178.71966269,173.27124353,-167.27398807,173.25740153,-177.88480567,45.87941513
53.55931116,70.44751463,177.94858496,-163.12120798,-57.41114002,-62.26524000
1.30390567,-49.85775330,11.14762832,0.56915559,0.58571335,1.83852915

>  <Name>
2fd0_lig

>  <RI>
0

>  <Rbt.Current_Directory>
/home/itssahil/PROJECTS/Mol_Feturizer/New_Systems/rnas/2fd0

>  <Rbt.Executable>
rbdock ($Id: //depot/dev/client3/rdock/2013.1/src/exe/rbdock.cxx#4 $)

>  <Rbt.Library>
libRbt.so (2013.1, Build901 2013/11/27)

>  <Rbt.Parameter_File>
/export/apps/rDock/src/rDock_2013.1_src/data/scripts/dock_solv.prm

>  <Rbt.Receptor>
prm/pocket_docking_5.prm

>  <SCORE>
-18.7084

>  <SCORE.INTER>
-11.9262

>  <SCORE.INTER.CONST>
1

>  <SCORE.INTER.POLAR>
-0.816316

>  <SCORE.INTER.ROT>
12

>  <SCORE.INTER.SOLV>
16.5748

>  <SCORE.INTER.VDW>
-22.3547

>  <SCORE.INTER.norm>
-0.229351

>  <SCORE.INTRA>
-6.78216

>  <SCORE.INTRA.DIHEDRAL>
-18.0858

>  <SCORE.INTRA.DIHEDRAL.0>
23.9727

>  <SCORE.INTRA.POLAR>
0

>  <SCORE.INTRA.POLAR.0>
0

>  <SCORE.INTRA.REPUL>
0

>  <SCORE.INTRA.REPUL.0>
0

>  <SCORE.INTRA.SOLV>
1.46607

>  <SCORE.INTRA.SOLV.lig_0>
-115.028

>  <SCORE.INTRA.VDW>
1.52772

>  <SCORE.INTRA.VDW.0>
-6.82393

>  <SCORE.INTRA.norm>
-0.130426

>  <SCORE.RESTR>
0

>  <SCORE.RESTR.CAVITY>
0

>  <SCORE.RESTR.norm>
0

>  <SCORE.SYSTEM>
0

>  <SCORE.SYSTEM.CONST>
0

>  <SCORE.SYSTEM.DIHEDRAL>
0

>  <SCORE.SYSTEM.SOLV>
0

>  <SCORE.SYSTEM.norm>
0

>  <SCORE.heavy>
52

>  <SCORE.norm>
-0.359777

>  <RMSD>
3.606

$$$$
2fd0_lig
 OpenBabel11021811433D
libRbt.so/2013.1/901 2013/11/27
 52 56  0  0  0  0  0  0  0  0999 V2000
    4.6940  -49.9089   15.4121 C   0  0  2  0  0  0  0  0  0  0  0  0
    5.3633  -48.6454   15.5246 O   0  0  0  0  0  0  0  0  0  0  0  0
    4.5202  -44.4953   14.5456 C   0  0  2  0  0  0  0  0  0  0  0  0
    4.2102  -43.2750   13.7829 N   0  0  0  0  0  0  0  0  0  0  0  0
    2.1741  -48.2285   13.7610 C   0  0  1  0  0  0  0  0  0  0  0  0
   -0.9554  -50.0884   11.0784 C   0  0  1  0  0  0  0  0  0  0  0  0
   -0.6457  -51.1833    6.2904 C   0  0  1  0  0  0  0  0  0  0  0  0
    3.9468  -50.2009   16.7641 C   0  0  2  0  0  0  0  0  0  0  0  0
    3.0123  -49.1382   17.1080 N   0  0  0  0  0  0  0  0  0  0  0  0
    5.8572  -45.1635   13.9988 C   0  0  0  0  0  0  0  0  0  0  0  0
    1.2256  -49.3922   13.9839 C   0  0  2  0  0  0  0  0  0  0  0  0
    1.8953  -50.6792   13.8691 O   0  0  0  0  0  0  0  0  0  0  0  0
   -0.7460  -51.3361   10.0992 C   0  0  2  0  0  0  0  0  0  0  0  0
    0.5655  -51.2380    9.4023 N   0  0  0  0  0  0  0  0  0  0  0  0
   -1.8033  -50.7743    5.3520 C   0  0  1  0  0  0  0  0  0  0  0  0
   -1.4830  -49.5037    4.7332 O   0  0  0  0  0  0  0  0  0  0  0  0
    4.9844  -50.4484   17.9210 C   0  0  0  0  0  0  0  0  0  0  0  0
    6.1986  -46.4859   14.8380 C   0  0  2  0  0  0  0  0  0  0  0  0
    7.4298  -47.1249   14.3505 N   0  0  0  0  0  0  0  0  0  0  0  0
    0.1172  -49.1244   12.9798 C   0  0  2  0  0  0  0  0  0  0  0  0
    0.1689  -50.0243   11.9064 O   0  0  0  0  0  0  0  0  0  0  0  0
   -2.0413  -51.4158    9.1366 C   0  0  1  0  0  0  0  0  0  0  0  0
   -3.2091  -51.5186    9.9713 O   0  0  0  0  0  0  0  0  0  0  0  0
   -2.2001  -51.7709    4.2293 C   0  0  1  0  0  0  0  0  0  0  0  0
   -1.4741  -51.4146    3.0460 O   0  0  0  0  0  0  0  0  0  0  0  0
    5.9451  -51.6035   17.4878 C   0  0  2  0  0  0  0  0  0  0  0  0
    6.8908  -51.8715   18.5184 O   0  0  0  0  0  0  0  0  0  0  0  0
    5.0054  -47.4765   14.7355 C   0  0  2  0  0  0  0  0  0  0  0  0
    0.3438  -47.7282   12.3524 C   0  0  2  0  0  0  0  0  0  0  0  0
    1.4154  -47.2122   13.1289 O   0  0  0  0  0  0  0  0  0  0  0  0
   -2.2222  -50.0709    8.2575 C   0  0  2  0  0  0  0  0  0  0  0  0
   -1.0447  -50.0195    7.4300 O   0  0  0  0  0  0  0  0  0  0  0  0
   -1.9560  -53.2675    4.5312 C   0  0  2  0  0  0  0  0  0  0  0  0
   -3.1116  -53.9645    4.0160 O   0  0  0  0  0  0  0  0  0  0  0  0
    6.6855  -51.1981   16.1813 C   0  0  2  0  0  0  0  0  0  0  0  0
    5.6706  -50.9455   15.1346 O   0  0  0  0  0  0  0  0  0  0  0  0
    3.6579  -46.8492   15.2063 C   0  0  2  0  0  0  0  0  0  0  0  0
    2.6250  -47.8469   15.0220 O   0  0  0  0  0  0  0  0  0  0  0  0
   -0.8356  -46.7688   12.4661 C   0  0  0  0  0  0  0  0  0  0  0  0
   -1.0130  -46.4836   13.8619 O   0  0  0  0  0  0  0  0  0  0  0  0
   -2.1666  -48.9237    9.2486 C   0  0  1  0  0  0  0  0  0  0  0  0
   -1.1762  -48.7852   10.2888 O   0  0  0  0  0  0  0  0  0  0  0  0
   -1.7205  -53.4947    6.0220 C   0  0  2  0  0  0  0  0  0  0  0  0
   -0.7058  -52.6384    6.6158 O   0  0  0  0  0  0  0  0  0  0  0  0
    7.5967  -52.2790   15.6927 C   0  0  0  0  0  0  0  0  0  0  0  0
    8.6168  -52.4474   16.6396 O   0  0  0  0  0  0  0  0  0  0  0  0
    3.3504  -45.5468   14.3806 C   0  0  1  0  0  0  0  0  0  0  0  0
    2.1032  -44.9566   14.8860 O   0  0  0  0  0  0  0  0  0  0  0  0
   -2.2802  -47.5129    8.5694 C   0  0  0  0  0  0  0  0  0  0  0  0
   -3.5291  -47.3262    7.7917 N   0  0  0  0  0  0  0  0  0  0  0  0
   -1.4433  -54.8829    6.5946 C   0  0  0  0  0  0  0  0  0  0  0  0
   -0.1554  -55.3815    6.1179 O   0  0  0  0  0  0  0  0  0  0  0  0
  1  2  1  1  0  0  0
  1  8  1  0  0  0  0
  1 36  1  0  0  0  0
  3  4  1  6  0  0  0
  3 10  1  0  0  0  0
  3 47  1  0  0  0  0
  5 11  1  0  0  0  0
  5 30  1  0  0  0  0
  5 38  1  1  0  0  0
  6 21  1  6  0  0  0
  6 42  1  0  0  0  0
  7 15  1  0  0  0  0
  7 44  1  0  0  0  0
  7 32  1  1  0  0  0
  8  9  1  1  0  0  0
  8 17  1  0  0  0  0
 11 12  1  6  0  0  0
 11 20  1  0  0  0  0
 13  6  1  0  0  0  0
 13 14  1  6  0  0  0
 15 16  1  6  0  0  0
 15 24  1  0  0  0  0
 17 26  1  0  0  0  0
 18 10  1  0  0  0  0
 18 19  1  6  0  0  0
 20 21  1  6  0  0  0
 20 29  1  0  0  0  0
 22 13  1  0  0  0  0
 22 23  1  1  0  0  0
 24 25  1  6  0  0  0
 24 33  1  0  0  0  0
 26 27  1  1  0  0  0
 26 35  1  0  0  0  0
 28  2  1  1  0  0  0
 28 18  1  0  0  0  0
 29 30  1  0  0  0  0
 29 39  1  1  0  0  0
 31 22  1  0  0  0  0
 31 32  1  6  0  0  0
 31 41  1  0  0  0  0
 33 34  1  1  0  0  0
 33 43  1  0  0  0  0
 35 36  1  0  0  0  0
 35 45  1  6  0  0  0
 37 28  1  0  0  0  0
 37 38  1  6  0  0  0
 39 40  1  0  0  0  0
 41 42  1  0  0  0  0
 41 49  1  6  0  0  0
 43 44  1  0  0  0  0
 43 51  1  6  0  0  0
 45 46  1  0  0  0  0
 47 37  1  0  0  0  0
 47 48  1  1  0  0  0
 49 50  1  0  0  0  0
 51 52  1  0  0  0  0
M  END
>  <CHROM.1>
-114.13411124,173.52256525,-170.87222183,70.02441576,165.83414161,-163.50053318
65.61346108,62.13813825,-65.27611859,-70.80766910,58.77857072,66.58374135
1.49578575,-49.64755422,11.61725562,-0.58198060,0.80976127,-2.69777852

>  <Name>
2fd0_lig

>  <RI>
3.4301e+07

>  <Rbt.Current_Directory>
/home/itssahil/PROJECTS/Mol_Feturizer/New_Systems/rnas/2fd0

>  <Rbt.Executable>
rbdock ($Id: //depot/dev/client3/rdock/2013.1/src/exe/rbdock.cxx#4 $)

>  <Rbt.Library>
libRbt.so (2013.1, Build901 2013/11/27)

>  <Rbt.Parameter_File>
/export/apps/rDock/src/rDock_2013.1_src/data/scripts/dock_solv.prm

>  <Rbt.Receptor>
prm/pocket_docking_7.prm

>  <SCORE>
-14.7897

>  <SCORE.INTER>
-10.9074

>  <SCORE.INTER.CONST>
1

>  <SCORE.INTER.POLAR>
-0.938083

>  <SCORE.INTER.ROT>
12

>  <SCORE.INTER.SOLV>
13.1651

>  <SCORE.INTER.VDW>
-20.133

>  <SCORE.INTER.norm>
-0.209757

>  <SCORE.INTRA>
-3.88235

>  <SCORE.INTRA.DIHEDRAL>
-10.9926

>  <SCORE.INTRA.DIHEDRAL.0>
23.9727

>  <SCORE.INTRA.POLAR>
0

>  <SCORE.INTRA.POLAR.0>
0

>  <SCORE.INTRA.REPUL>
0

>  <SCORE.INTRA.REPUL.0>
0

>  <SCORE.INTRA.SOLV>
0.819251

>  <SCORE.INTRA.SOLV.lig_0>
-115.028

>  <SCORE.INTRA.VDW>
1.20432

>  <SCORE.INTRA.VDW.0>
-6.82393

>  <SCORE.INTRA.norm>
-0.0746606

>  <SCORE.RESTR>
0

>  <SCORE.RESTR.CAVITY>
0

>  <SCORE.RESTR.norm>
0

>  <SCORE.SYSTEM>
0

>  <SCORE.SYSTEM.CONST>
0

>  <SCORE.SYSTEM.DIHEDRAL>
0

>  <SCORE.SYSTEM.SOLV>
0

>  <SCORE.SYSTEM.norm>
0

>  <SCORE.heavy>
52

>  <SCORE.norm>
-0.284418

>  <RMSD>
3.610

$$$$
2fd0_lig
 OpenBabel11021811433D
libRbt.so/2013.1/901 2013/11/27
 52 56  0  0  0  0  0  0  0  0999 V2000
    5.6527  -47.1678   16.1026 C   0  0  2  0  0  0  0  0  0  0  0  0
    6.1281  -47.7260   14.8700 O   0  0  0  0  0  0  0  0  0  0  0  0
    5.1714  -44.7059   11.8941 C   0  0  2  0  0  0  0  0  0  0  0  0
    5.2040  -43.8951   10.6658 N   0  0  0  0  0  0  0  0  0  0  0  0
    3.5129  -48.9317   11.7861 C   0  0  1  0  0  0  0  0  0  0  0  0
    0.4874  -51.8489   10.4617 C   0  0  1  0  0  0  0  0  0  0  0  0
   -2.0619  -53.4254    6.3188 C   0  0  1  0  0  0  0  0  0  0  0  0
    5.7042  -48.2832   17.2093 C   0  0  2  0  0  0  0  0  0  0  0  0
    7.0435  -48.8342   17.3622 N   0  0  0  0  0  0  0  0  0  0  0  0
    6.5797  -44.6459   12.6329 C   0  0  0  0  0  0  0  0  0  0  0  0
    3.7362  -50.4126   11.5396 C   0  0  2  0  0  0  0  0  0  0  0  0
    4.3958  -50.6666   10.2674 O   0  0  0  0  0  0  0  0  0  0  0  0
    0.4482  -53.1488    9.5299 C   0  0  2  0  0  0  0  0  0  0  0  0
    1.0289  -52.8497    8.1925 N   0  0  0  0  0  0  0  0  0  0  0  0
   -1.4396  -52.4907    5.2573 C   0  0  1  0  0  0  0  0  0  0  0  0
    0.0039  -52.5354    5.3770 O   0  0  0  0  0  0  0  0  0  0  0  0
    4.6521  -49.4116   16.8991 C   0  0  0  0  0  0  0  0  0  0  0  0
    6.5383  -45.5203   13.9757 C   0  0  2  0  0  0  0  0  0  0  0  0
    7.8300  -45.4839   14.6770 N   0  0  0  0  0  0  0  0  0  0  0  0
    2.3428  -50.9973   11.6977 C   0  0  2  0  0  0  0  0  0  0  0  0
    1.8059  -51.3850   10.4622 O   0  0  0  0  0  0  0  0  0  0  0  0
   -1.0742  -53.6903    9.5223 C   0  0  1  0  0  0  0  0  0  0  0  0
   -1.4644  -53.9373   10.8853 O   0  0  0  0  0  0  0  0  0  0  0  0
   -1.8085  -52.7499    3.7715 C   0  0  1  0  0  0  0  0  0  0  0  0
   -0.8067  -53.6083    3.2112 O   0  0  0  0  0  0  0  0  0  0  0  0
    3.2421  -48.7507   16.7579 C   0  0  2  0  0  0  0  0  0  0  0  0
    2.2559  -49.7437   16.4942 O   0  0  0  0  0  0  0  0  0  0  0  0
    6.1656  -46.9861   13.6176 C   0  0  2  0  0  0  0  0  0  0  0  0
    1.3977  -49.8905   12.2233 C   0  0  2  0  0  0  0  0  0  0  0  0
    2.2962  -48.8270   12.5047 O   0  0  0  0  0  0  0  0  0  0  0  0
   -2.1034  -52.5860    8.9429 C   0  0  2  0  0  0  0  0  0  0  0  0
   -1.6868  -52.3847    7.5792 O   0  0  0  0  0  0  0  0  0  0  0  0
   -3.1993  -53.3749    3.5153 C   0  0  2  0  0  0  0  0  0  0  0  0
   -3.7314  -52.6869    2.3620 O   0  0  0  0  0  0  0  0  0  0  0  0
    3.2711  -47.7120   15.6003 C   0  0  2  0  0  0  0  0  0  0  0  0
    4.2941  -46.6920   15.9207 O   0  0  0  0  0  0  0  0  0  0  0  0
    4.8186  -47.0938   12.8398 C   0  0  2  0  0  0  0  0  0  0  0  0
    4.6063  -48.4915   12.5276 O   0  0  0  0  0  0  0  0  0  0  0  0
    0.6472  -50.2355   13.5047 C   0  0  0  0  0  0  0  0  0  0  0  0
   -0.0505  -51.4672   13.2650 O   0  0  0  0  0  0  0  0  0  0  0  0
   -1.8248  -51.3167    9.7255 C   0  0  1  0  0  0  0  0  0  0  0  0
   -0.5093  -50.7800    9.9774 O   0  0  0  0  0  0  0  0  0  0  0  0
   -4.0853  -53.2667    4.7533 C   0  0  2  0  0  0  0  0  0  0  0  0
   -3.4780  -53.7544    5.9816 O   0  0  0  0  0  0  0  0  0  0  0  0
    1.9575  -47.0160   15.4362 C   0  0  0  0  0  0  0  0  0  0  0  0
    2.0643  -46.1387   14.3478 O   0  0  0  0  0  0  0  0  0  0  0  0
    4.8764  -46.2177   11.5353 C   0  0  1  0  0  0  0  0  0  0  0  0
    3.5754  -46.3024   10.8574 O   0  0  0  0  0  0  0  0  0  0  0  0
   -2.7071  -50.1013    9.2683 C   0  0  0  0  0  0  0  0  0  0  0  0
   -4.1445  -50.4334    9.1173 N   0  0  0  0  0  0  0  0  0  0  0  0
   -5.5104  -53.8150    4.7783 C   0  0  0  0  0  0  0  0  0  0  0  0
   -5.5175  -55.2289    4.4103 O   0  0  0  0  0  0  0  0  0  0  0  0
  1  2  1  6  0  0  0
  1  8  1  0  0  0  0
  1 36  1  0  0  0  0
  3  4  1  6  0  0  0
  3 10  1  0  0  0  0
  3 47  1  0  0  0  0
  5 11  1  0  0  0  0
  5 30  1  0  0  0  0
  5 38  1  1  0  0  0
  6 21  1  6  0  0  0
  6 42  1  0  0  0  0
  7 15  1  0  0  0  0
  7 44  1  0  0  0  0
  7 32  1  1  0  0  0
  8  9  1  6  0  0  0
  8 17  1  0  0  0  0
 11 12  1  6  0  0  0
 11 20  1  0  0  0  0
 13  6  1  0  0  0  0
 13 14  1  6  0  0  0
 15 16  1  6  0  0  0
 15 24  1  0  0  0  0
 17 26  1  0  0  0  0
 18 10  1  0  0  0  0
 18 19  1  6  0  0  0
 20 21  1  6  0  0  0
 20 29  1  0  0  0  0
 22 13  1  0  0  0  0
 22 23  1  1  0  0  0
 24 25  1  1  0  0  0
 24 33  1  0  0  0  0
 26 27  1  6  0  0  0
 26 35  1  0  0  0  0
 28  2  1  1  0  0  0
 28 18  1  0  0  0  0
 29 30  1  0  0  0  0
 29 39  1  1  0  0  0
 31 22  1  0  0  0  0
 31 32  1  6  0  0  0
 31 41  1  0  0  0  0
 33 34  1  6  0  0  0
 33 43  1  0  0  0  0
 35 36  1  0  0  0  0
 35 45  1  1  0  0  0
 37 28  1  0  0  0  0
 37 38  1  6  0  0  0
 39 40  1  0  0  0  0
 41 42  1  0  0  0  0
 41 49  1  6  0  0  0
 43 44  1  0  0  0  0
 43 51  1  6  0  0  0
 45 46  1  0  0  0  0
 47 37  1  0  0  0  0
 47 48  1  1  0  0  0
 49 50  1  0  0  0  0
 51 52  1  0  0  0  0
M  END
>  <CHROM.1>
177.41335015,173.47602318,-136.15669850,174.27640975,-175.46241045,36.39507875
-54.89504887,79.03343314,-177.98605174,-177.40576031,46.82543281,55.16479277
1.43068966,-50.02562485,10.78013124,0.64266731,0.74960936,1.71637837

>  <Name>
2fd0_lig

>  <RI>
2.00683e+07

>  <Rbt.Current_Directory>
/home/itssahil/PROJECTS/Mol_Feturizer/New_Systems/rnas/2fd0

>  <Rbt.Executable>
rbdock ($Id: //depot/dev/client3/rdock/2013.1/src/exe/rbdock.cxx#4 $)

>  <Rbt.Library>
libRbt.so (2013.1, Build901 2013/11/27)

>  <Rbt.Parameter_File>
/export/apps/rDock/src/rDock_2013.1_src/data/scripts/dock_solv.prm

>  <Rbt.Receptor>
prm/pocket_docking_4.prm

>  <SCORE>
-18.6266

>  <SCORE.INTER>
-12.9527

>  <SCORE.INTER.CONST>
1

>  <SCORE.INTER.POLAR>
-1.34132

>  <SCORE.INTER.ROT>
12

>  <SCORE.INTER.SOLV>
11.4201

>  <SCORE.INTER.VDW>
-19.5708

>  <SCORE.INTER.norm>
-0.24909

>  <SCORE.INTRA>
-5.70236

>  <SCORE.INTRA.DIHEDRAL>
-11.2049

>  <SCORE.INTRA.DIHEDRAL.0>
23.9727

>  <SCORE.INTRA.POLAR>
0

>  <SCORE.INTRA.POLAR.0>
0

>  <SCORE.INTRA.REPUL>
0

>  <SCORE.INTRA.REPUL.0>
0

>  <SCORE.INTRA.SOLV>
-1.2043

>  <SCORE.INTRA.SOLV.lig_0>
-115.028

>  <SCORE.INTRA.VDW>
0.502231

>  <SCORE.INTRA.VDW.0>
-6.82393

>  <SCORE.INTRA.norm>
-0.109661

>  <SCORE.RESTR>
0.0284438

>  <SCORE.RESTR.CAVITY>
0.0284438

>  <SCORE.RESTR.norm>
0.000546997

>  <SCORE.SYSTEM>
0

>  <SCORE.SYSTEM.CONST>
0

>  <SCORE.SYSTEM.DIHEDRAL>
0

>  <SCORE.SYSTEM.SOLV>
0

>  <SCORE.SYSTEM.norm>
0

>  <SCORE.heavy>
52

>  <SCORE.norm>
-0.358204

>  <RMSD>
3.613

$$$$
2fd0_lig
 OpenBabel11021811433D
libRbt.so/2013.1/901 2013/11/27
 52 56  0  0  0  0  0  0  0  0999 V2000
    1.4427  -47.3532   13.0363 C   0  0  2  0  0  0  0  0  0  0  0  0
    1.9887  -46.0383   13.2090 O   0  0  0  0  0  0  0  0  0  0  0  0
    5.4128  -43.8503   11.6662 C   0  0  2  0  0  0  0  0  0  0  0  0
    6.7991  -43.4402   11.3884 N   0  0  0  0  0  0  0  0  0  0  0  0
    3.5891  -47.5049    9.6219 C   0  0  1  0  0  0  0  0  0  0  0  0
    2.4620  -50.9095    7.0600 C   0  0  1  0  0  0  0  0  0  0  0  0
   -2.1277  -51.8899    6.1146 C   0  0  1  0  0  0  0  0  0  0  0  0
   -0.1017  -47.2951   13.3243 C   0  0  2  0  0  0  0  0  0  0  0  0
   -0.7768  -46.3277   12.4704 N   0  0  0  0  0  0  0  0  0  0  0  0
    5.1441  -43.8616   13.2349 C   0  0  0  0  0  0  0  0  0  0  0  0
    2.9420  -48.8729    9.5068 C   0  0  2  0  0  0  0  0  0  0  0  0
    3.9032  -49.9533    9.6716 O   0  0  0  0  0  0  0  0  0  0  0  0
    1.3782  -50.9268    5.8834 C   0  0  2  0  0  0  0  0  0  0  0  0
    0.3106  -49.9226    6.1426 N   0  0  0  0  0  0  0  0  0  0  0  0
   -2.9894  -51.0434    7.0784 C   0  0  1  0  0  0  0  0  0  0  0  0
   -2.3405  -49.7656    7.2932 O   0  0  0  0  0  0  0  0  0  0  0  0
   -0.3641  -46.9969   14.8470 C   0  0  0  0  0  0  0  0  0  0  0  0
    3.6310  -44.2977   13.5343 C   0  0  2  0  0  0  0  0  0  0  0  0
    3.3570  -44.3189   14.9788 N   0  0  0  0  0  0  0  0  0  0  0  0
    2.2391  -48.8043    8.1615 C   0  0  2  0  0  0  0  0  0  0  0  0
    2.8931  -49.5873    7.2003 O   0  0  0  0  0  0  0  0  0  0  0  0
    0.8728  -52.4525    5.7162 C   0  0  1  0  0  0  0  0  0  0  0  0
    2.0248  -53.2763    5.4607 O   0  0  0  0  0  0  0  0  0  0  0  0
   -4.4630  -50.7733    6.6704 C   0  0  1  0  0  0  0  0  0  0  0  0
   -4.5048  -49.5247    5.9679 O   0  0  0  0  0  0  0  0  0  0  0  0
    0.3799  -48.0758   15.6998 C   0  0  2  0  0  0  0  0  0  0  0  0
    0.1519  -47.8513   17.0875 O   0  0  0  0  0  0  0  0  0  0  0  0
    3.3749  -45.7026   12.9209 C   0  0  2  0  0  0  0  0  0  0  0  0
    2.3245  -47.3530    7.6314 C   0  0  2  0  0  0  0  0  0  0  0  0
    2.8829  -46.6548    8.7351 O   0  0  0  0  0  0  0  0  0  0  0  0
    0.1975  -53.0154    7.0732 C   0  0  2  0  0  0  0  0  0  0  0  0
   -0.9544  -52.1759    7.2783 O   0  0  0  0  0  0  0  0  0  0  0  0
   -5.1368  -51.8578    5.7984 C   0  0  2  0  0  0  0  0  0  0  0  0
   -6.4795  -51.9957    6.3129 O   0  0  0  0  0  0  0  0  0  0  0  0
    1.9044  -48.0143   15.3964 C   0  0  2  0  0  0  0  0  0  0  0  0
    2.0983  -48.2684   13.9516 O   0  0  0  0  0  0  0  0  0  0  0  0
    3.6798  -45.7589   11.3929 C   0  0  2  0  0  0  0  0  0  0  0  0
    3.4478  -47.1184   10.9522 O   0  0  0  0  0  0  0  0  0  0  0  0
    0.9856  -46.7107    7.2859 C   0  0  0  0  0  0  0  0  0  0  0  0
    1.2721  -45.4442    6.6735 O   0  0  0  0  0  0  0  0  0  0  0  0
    1.2012  -52.7362    8.1760 C   0  0  1  0  0  0  0  0  0  0  0  0
    1.8809  -51.4779    8.3676 O   0  0  0  0  0  0  0  0  0  0  0  0
   -4.3366  -53.1572    5.8243 C   0  0  2  0  0  0  0  0  0  0  0  0
   -2.9214  -53.0072    5.5243 O   0  0  0  0  0  0  0  0  0  0  0  0
    2.6713  -49.0492   16.1566 C   0  0  0  0  0  0  0  0  0  0  0  0
    4.0223  -48.9378   15.7988 O   0  0  0  0  0  0  0  0  0  0  0  0
    5.1633  -45.3138   11.1212 C   0  0  1  0  0  0  0  0  0  0  0  0
    5.3977  -45.3295    9.6706 O   0  0  0  0  0  0  0  0  0  0  0  0
    0.6985  -53.1766    9.5965 C   0  0  0  0  0  0  0  0  0  0  0  0
    1.6978  -52.9675   10.6721 N   0  0  0  0  0  0  0  0  0  0  0  0
   -4.7734  -54.3916    5.0385 C   0  0  0  0  0  0  0  0  0  0  0  0
   -6.1653  -54.7188    5.3384 O   0  0  0  0  0  0  0  0  0  0  0  0
  1  2  1  1  0  0  0
  1  8  1  0  0  0  0
  1 36  1  0  0  0  0
  3  4  1  1  0  0  0
  3 10  1  0  0  0  0
  3 47  1  0  0  0  0
  5 11  1  0  0  0  0
  5 30  1  0  0  0  0
  5 38  1  1  0  0  0
  6 21  1  1  0  0  0
  6 42  1  0  0  0  0
  7 15  1  0  0  0  0
  7 44  1  0  0  0  0
  7 32  1  1  0  0  0
  8  9  1  6  0  0  0
  8 17  1  0  0  0  0
 11 12  1  6  0  0  0
 11 20  1  0  0  0  0
 13  6  1  0  0  0  0
 13 14  1  1  0  0  0
 15 16  1  6  0  0  0
 15 24  1  0  0  0  0
 17 26  1  0  0  0  0
 18 10  1  0  0  0  0
 18 19  1  1  0  0  0
 20 21  1  6  0  0  0
 20 29  1  0  0  0  0
 22 13  1  0  0  0  0
 22 23  1  1  0  0  0
 24 25  1  6  0  0  0
 24 33  1  0  0  0  0
 26 27  1  1  0  0  0
 26 35  1  0  0  0  0
 28  2  1  6  0  0  0
 28 18  1  0  0  0  0
 29 30  1  0  0  0  0
 29 39  1  1  0  0  0
 31 22  1  0  0  0  0
 31 32  1  1  0  0  0
 31 41  1  0  0  0  0
 33 34  1  1  0  0  0
 33 43  1  0  0  0  0
 35 36  1  0  0  0  0
 35 45  1  1  0  0  0
 37 28  1  0  0  0  0
 37 38  1  1  0  0  0
 39 40  1  0  0  0  0
 41 42  1  0  0  0  0
 41 49  1  1  0  0  0
 43 44  1  0  0  0  0
 43 51  1  6  0  0  0
 45 46  1  0  0  0  0
 47 37  1  0  0  0  0
 47 48  1  6  0  0  0
 49 50  1  0  0  0  0
 51 52  1  0  0  0  0
M  END
>  <CHROM.1>
-175.01762908,-166.36487522,94.13018838,176.55308670,91.58300647,-167.53063384
-173.47199549,52.33826339,178.70058103,177.96105342,177.24076958,-52.00734133
0.88752501,-49.04814804,9.68524419,0.86328242,0.56399768,1.27418296

>  <Name>
2fd0_lig

>  <RI>
0

>  <Rbt.Current_Directory>
/home/itssahil/PROJECTS/Mol_Feturizer/New_Systems/rnas/2fd0

>  <Rbt.Executable>
rbdock ($Id: //depot/dev/client3/rdock/2013.1/src/exe/rbdock.cxx#4 $)

>  <Rbt.Library>
libRbt.so (2013.1, Build901 2013/11/27)

>  <Rbt.Parameter_File>
/export/apps/rDock/src/rDock_2013.1_src/data/scripts/dock_solv.prm

>  <Rbt.Receptor>
prm/pocket_docking_5.prm

>  <SCORE>
-16.7877

>  <SCORE.INTER>
-11.5427

>  <SCORE.INTER.CONST>
1

>  <SCORE.INTER.POLAR>
-1.65245

>  <SCORE.INTER.ROT>
12

>  <SCORE.INTER.SOLV>
13.4464

>  <SCORE.INTER.VDW>
-18.2691

>  <SCORE.INTER.norm>
-0.221976

>  <SCORE.INTRA>
-5.24493

>  <SCORE.INTRA.DIHEDRAL>
-11.5504

>  <SCORE.INTRA.DIHEDRAL.0>
23.9727

>  <SCORE.INTRA.POLAR>
0

>  <SCORE.INTRA.POLAR.0>
0

>  <SCORE.INTRA.REPUL>
0

>  <SCORE.INTRA.REPUL.0>
0

>  <SCORE.INTRA.SOLV>
-1.18831

>  <SCORE.INTRA.SOLV.lig_0>
-115.028

>  <SCORE.INTRA.VDW>
1.12441

>  <SCORE.INTRA.VDW.0>
-6.82393

>  <SCORE.INTRA.norm>
-0.100864

>  <SCORE.RESTR>
0

>  <SCORE.RESTR.CAVITY>
0

>  <SCORE.RESTR.norm>
0

>  <SCORE.SYSTEM>
0

>  <SCORE.SYSTEM.CONST>
0

>  <SCORE.SYSTEM.DIHEDRAL>
0

>  <SCORE.SYSTEM.SOLV>
0

>  <SCORE.SYSTEM.norm>
0

>  <SCORE.heavy>
52

>  <SCORE.norm>
-0.32284

>  <RMSD>
3.617

$$$$
2fd0_lig
 OpenBabel11021811433D
libRbt.so/2013.1/901 2013/11/27
 52 56  0  0  0  0  0  0  0  0999 V2000
    6.6414  -46.9925   14.8067 C   0  0  2  0  0  0  0  0  0  0  0  0
    6.9518  -47.3463   13.4519 O   0  0  0  0  0  0  0  0  0  0  0  0
    7.1941  -43.4870   11.4671 C   0  0  2  0  0  0  0  0  0  0  0  0
    7.3907  -42.4575   10.4334 N   0  0  0  0  0  0  0  0  0  0  0  0
    4.9090  -47.3223   10.6212 C   0  0  1  0  0  0  0  0  0  0  0  0
    3.1570  -51.0105    8.5548 C   0  0  1  0  0  0  0  0  0  0  0  0
   -1.4716  -50.4258    6.0858 C   0  0  1  0  0  0  0  0  0  0  0  0
    6.8375  -48.2624   15.7125 C   0  0  2  0  0  0  0  0  0  0  0  0
    8.1855  -48.8028   15.6046 N   0  0  0  0  0  0  0  0  0  0  0  0
    8.5191  -44.3504   11.6455 C   0  0  0  0  0  0  0  0  0  0  0  0
    4.0850  -48.5659   10.9005 C   0  0  2  0  0  0  0  0  0  0  0  0
    4.8817  -49.6365   11.4813 O   0  0  0  0  0  0  0  0  0  0  0  0
    3.0657  -50.9557    6.9585 C   0  0  2  0  0  0  0  0  0  0  0  0
    2.7035  -49.5856    6.5034 N   0  0  0  0  0  0  0  0  0  0  0  0
   -1.2633  -51.1296    4.7260 C   0  0  1  0  0  0  0  0  0  0  0  0
   -1.1698  -52.5592    4.9439 O   0  0  0  0  0  0  0  0  0  0  0  0
    5.7542  -49.3515   15.3709 C   0  0  0  0  0  0  0  0  0  0  0  0
    8.3064  -45.4634   12.7792 C   0  0  2  0  0  0  0  0  0  0  0  0
    9.5168  -46.2779   12.9622 N   0  0  0  0  0  0  0  0  0  0  0  0
    3.4496  -48.8625    9.5525 C   0  0  2  0  0  0  0  0  0  0  0  0
    4.0259  -49.9896    8.9506 O   0  0  0  0  0  0  0  0  0  0  0  0
    2.0607  -52.1321    6.4928 C   0  0  1  0  0  0  0  0  0  0  0  0
    2.5670  -53.3776    7.0059 O   0  0  0  0  0  0  0  0  0  0  0  0
   -2.3247  -50.8788    3.6208 C   0  0  1  0  0  0  0  0  0  0  0  0
   -3.3044  -51.9215    3.7047 O   0  0  0  0  0  0  0  0  0  0  0  0
    4.3377  -48.7058   15.5163 C   0  0  2  0  0  0  0  0  0  0  0  0
    3.3257  -49.6668   15.2325 O   0  0  0  0  0  0  0  0  0  0  0  0
    7.1068  -46.3696   12.3847 C   0  0  2  0  0  0  0  0  0  0  0  0
    3.7536  -47.6877    8.5924 C   0  0  2  0  0  0  0  0  0  0  0  0
    4.3604  -46.7353    9.4540 O   0  0  0  0  0  0  0  0  0  0  0  0
    0.5821  -51.9444    7.1195 C   0  0  2  0  0  0  0  0  0  0  0  0
    0.1112  -50.7006    6.5673 O   0  0  0  0  0  0  0  0  0  0  0  0
   -3.0467  -49.5124    3.6691 C   0  0  2  0  0  0  0  0  0  0  0  0
   -3.1450  -49.0726    2.2967 O   0  0  0  0  0  0  0  0  0  0  0  0
    4.2148  -47.5022   14.5385 C   0  0  2  0  0  0  0  0  0  0  0  0
    5.2705  -46.5224   14.8772 O   0  0  0  0  0  0  0  0  0  0  0  0
    5.7950  -45.5627   12.1416 C   0  0  2  0  0  0  0  0  0  0  0  0
    4.7719  -46.5052   11.7404 O   0  0  0  0  0  0  0  0  0  0  0  0
    2.5297  -47.0427    7.9516 C   0  0  0  0  0  0  0  0  0  0  0  0
    2.9742  -46.4026    6.7458 O   0  0  0  0  0  0  0  0  0  0  0  0
    0.7900  -51.7627    8.6112 C   0  0  1  0  0  0  0  0  0  0  0  0
    1.7661  -50.8795    9.2021 O   0  0  0  0  0  0  0  0  0  0  0  0
   -2.3043  -48.5317    4.5728 C   0  0  2  0  0  0  0  0  0  0  0  0
   -1.9949  -49.0407    5.8997 O   0  0  0  0  0  0  0  0  0  0  0  0
    2.8907  -46.8163   14.6545 C   0  0  0  0  0  0  0  0  0  0  0  0
    2.7845  -45.8973   13.6010 O   0  0  0  0  0  0  0  0  0  0  0  0
    6.0306  -44.4682   11.0374 C   0  0  1  0  0  0  0  0  0  0  0  0
    4.7912  -43.6960   10.8729 O   0  0  0  0  0  0  0  0  0  0  0  0
   -0.5466  -51.5172    9.3971 C   0  0  0  0  0  0  0  0  0  0  0  0
   -0.3664  -51.4393   10.8671 N   0  0  0  0  0  0  0  0  0  0  0  0
   -2.8072  -47.1092    4.8080 C   0  0  0  0  0  0  0  0  0  0  0  0
   -1.9887  -46.4410    5.8170 O   0  0  0  0  0  0  0  0  0  0  0  0
  1  2  1  6  0  0  0
  1  8  1  0  0  0  0
  1 36  1  0  0  0  0
  3  4  1  6  0  0  0
  3 10  1  0  0  0  0
  3 47  1  0  0  0  0
  5 11  1  0  0  0  0
  5 30  1  0  0  0  0
  5 38  1  1  0  0  0
  6 21  1  1  0  0  0
  6 42  1  0  0  0  0
  7 15  1  0  0  0  0
  7 44  1  0  0  0  0
  7 32  1  6  0  0  0
  8  9  1  6  0  0  0
  8 17  1  0  0  0  0
 11 12  1  6  0  0  0
 11 20  1  0  0  0  0
 13  6  1  0  0  0  0
 13 14  1  1  0  0  0
 15 16  1  1  0  0  0
 15 24  1  0  0  0  0
 17 26  1  0  0  0  0
 18 10  1  0  0  0  0
 18 19  1  6  0  0  0
 20 21  1  6  0  0  0
 20 29  1  0  0  0  0
 22 13  1  0  0  0  0
 22 23  1  1  0  0  0
 24 25  1  1  0  0  0
 24 33  1  0  0  0  0
 26 27  1  6  0  0  0
 26 35  1  0  0  0  0
 28  2  1  1  0  0  0
 28 18  1  0  0  0  0
 29 30  1  0  0  0  0
 29 39  1  1  0  0  0
 31 22  1  0  0  0  0
 31 32  1  6  0  0  0
 31 41  1  0  0  0  0
 33 34  1  6  0  0  0
 33 43  1  0  0  0  0
 35 36  1  0  0  0  0
 35 45  1  1  0  0  0
 37 28  1  0  0  0  0
 37 38  1  6  0  0  0
 39 40  1  0  0  0  0
 41 42  1  0  0  0  0
 41 49  1  1  0  0  0
 43 44  1  0  0  0  0
 43 51  1  1  0  0  0
 45 46  1  0  0  0  0
 47 37  1  0  0  0  0
 47 48  1  1  0  0  0
 49 50  1  0  0  0  0
 51 52  1  0  0  0  0
M  END
>  <CHROM.1>
-168.80778623,152.05767024,106.67828731,-81.06097371,126.01871829,62.05166515
-156.85641921,141.82556780,-170.52861287,-58.39074405,175.68644651,174.07559492
2.88718175,-48.44351618,9.63360699,0.13108242,0.85767908,2.53292693

>  <Name>
2fd0_lig

>  <RI>
1.29864e+07

>  <Rbt.Current_Directory>
/home/itssahil/PROJECTS/Mol_Feturizer/New_Systems/rnas/2fd0

>  <Rbt.Executable>
rbdock ($Id: //depot/dev/client3/rdock/2013.1/src/exe/rbdock.cxx#4 $)

>  <Rbt.Library>
libRbt.so (2013.1, Build901 2013/11/27)

>  <Rbt.Parameter_File>
/export/apps/rDock/src/rDock_2013.1_src/data/scripts/dock_solv.prm

>  <Rbt.Receptor>
prm/pocket_docking_3.prm

>  <SCORE>
-9.00599

>  <SCORE.INTER>
-10.9674

>  <SCORE.INTER.CONST>
1

>  <SCORE.INTER.POLAR>
-1.22823

>  <SCORE.INTER.ROT>
12

>  <SCORE.INTER.SOLV>
19.6075

>  <SCORE.INTER.VDW>
-21.3533

>  <SCORE.INTER.norm>
-0.210911

>  <SCORE.INTRA>
1.95836

>  <SCORE.INTRA.DIHEDRAL>
3.73812

>  <SCORE.INTRA.DIHEDRAL.0>
23.9727

>  <SCORE.INTRA.POLAR>
0

>  <SCORE.INTRA.POLAR.0>
0

>  <SCORE.INTRA.REPUL>
0

>  <SCORE.INTRA.REPUL.0>
0

>  <SCORE.INTRA.SOLV>
-0.605842

>  <SCORE.INTRA.SOLV.lig_0>
-115.028

>  <SCORE.INTRA.VDW>
0.392223

>  <SCORE.INTRA.VDW.0>
-6.82393

>  <SCORE.INTRA.norm>
0.0376608

>  <SCORE.RESTR>
0.00302899

>  <SCORE.RESTR.CAVITY>
0.00302899

>  <SCORE.RESTR.norm>
5.82497e-05

>  <SCORE.SYSTEM>
0

>  <SCORE.SYSTEM.CONST>
0

>  <SCORE.SYSTEM.DIHEDRAL>
0

>  <SCORE.SYSTEM.SOLV>
0

>  <SCORE.SYSTEM.norm>
0

>  <SCORE.heavy>
52

>  <SCORE.norm>
-0.173192

>  <RMSD>
3.647

$$$$
2fd0_lig
 OpenBabel11021811433D
libRbt.so/2013.1/901 2013/11/27
 52 56  0  0  0  0  0  0  0  0999 V2000
    3.9141  -47.3902   14.5889 C   0  0  2  0  0  0  0  0  0  0  0  0
    4.7677  -48.1326   13.7073 O   0  0  0  0  0  0  0  0  0  0  0  0
    6.9696  -45.1123   11.4887 C   0  0  2  0  0  0  0  0  0  0  0  0
    7.7928  -44.4591   10.4578 N   0  0  0  0  0  0  0  0  0  0  0  0
    3.6271  -48.0032   10.4187 C   0  0  1  0  0  0  0  0  0  0  0  0
    1.6134  -50.8361    7.5201 C   0  0  1  0  0  0  0  0  0  0  0  0
   -3.2924  -51.1781    6.5698 C   0  0  1  0  0  0  0  0  0  0  0  0
    3.5443  -48.3040   15.8135 C   0  0  2  0  0  0  0  0  0  0  0  0
    4.7298  -48.7851   16.5091 N   0  0  0  0  0  0  0  0  0  0  0  0
    7.7651  -46.3252   12.1438 C   0  0  0  0  0  0  0  0  0  0  0  0
    2.2733  -48.6881   10.4565 C   0  0  2  0  0  0  0  0  0  0  0  0
    2.2549  -49.8238   11.3665 O   0  0  0  0  0  0  0  0  0  0  0  0
    0.3770  -49.8908    7.1498 C   0  0  2  0  0  0  0  0  0  0  0  0
   -0.5843  -49.8207    8.2840 N   0  0  0  0  0  0  0  0  0  0  0  0
   -3.6524  -52.1425    5.4174 C   0  0  1  0  0  0  0  0  0  0  0  0
   -3.9582  -53.4463    5.9709 O   0  0  0  0  0  0  0  0  0  0  0  0
    2.6281  -49.4966   15.3501 C   0  0  0  0  0  0  0  0  0  0  0  0
    6.8711  -47.0279   13.2736 C   0  0  2  0  0  0  0  0  0  0  0  0
    7.5829  -48.1551   13.8937 N   0  0  0  0  0  0  0  0  0  0  0  0
    2.0096  -49.0008    8.9932 C   0  0  2  0  0  0  0  0  0  0  0  0
    2.1355  -50.3720    8.7308 O   0  0  0  0  0  0  0  0  0  0  0  0
   -0.2340  -50.4225    5.7516 C   0  0  1  0  0  0  0  0  0  0  0  0
    0.8216  -50.4127    4.7735 O   0  0  0  0  0  0  0  0  0  0  0  0
   -4.8192  -51.7314    4.4789 C   0  0  1  0  0  0  0  0  0  0  0  0
   -6.0229  -52.3204    4.9871 O   0  0  0  0  0  0  0  0  0  0  0  0
    1.3758  -48.9073   14.6227 C   0  0  2  0  0  0  0  0  0  0  0  0
    0.5098  -49.9569   14.2025 O   0  0  0  0  0  0  0  0  0  0  0  0
    5.5411  -47.5202   12.6377 C   0  0  2  0  0  0  0  0  0  0  0  0
    3.1034  -48.3199    8.1362 C   0  0  2  0  0  0  0  0  0  0  0  0
    3.7984  -47.5331    9.0930 O   0  0  0  0  0  0  0  0  0  0  0  0
   -0.7450  -51.9526    5.8606 C   0  0  2  0  0  0  0  0  0  0  0  0
   -1.8066  -51.9103    6.8325 O   0  0  0  0  0  0  0  0  0  0  0  0
   -5.0453  -50.2124    4.3004 C   0  0  2  0  0  0  0  0  0  0  0  0
   -5.3340  -50.0215    2.8980 O   0  0  0  0  0  0  0  0  0  0  0  0
    1.8363  -48.0753   13.3916 C   0  0  2  0  0  0  0  0  0  0  0  0
    2.7181  -46.9886   13.8724 O   0  0  0  0  0  0  0  0  0  0  0  0
    4.7503  -46.3772   11.9311 C   0  0  2  0  0  0  0  0  0  0  0  0
    3.5643  -46.9656   11.3453 O   0  0  0  0  0  0  0  0  0  0  0  0
    2.5845  -47.3948    7.0410 C   0  0  0  0  0  0  0  0  0  0  0  0
    1.5538  -46.5854    7.6273 O   0  0  0  0  0  0  0  0  0  0  0  0
    0.4170  -52.7311    6.4480 C   0  0  1  0  0  0  0  0  0  0  0  0
    1.1884  -52.3141    7.5940 O   0  0  0  0  0  0  0  0  0  0  0  0
   -3.8374  -49.4173    4.7887 C   0  0  2  0  0  0  0  0  0  0  0  0
   -3.3874  -49.7553    6.1299 O   0  0  0  0  0  0  0  0  0  0  0  0
    0.6834  -47.4526   12.6706 C   0  0  0  0  0  0  0  0  0  0  0  0
    0.2162  -46.3803   13.4437 O   0  0  0  0  0  0  0  0  0  0  0  0
    5.6503  -45.6931   10.8381 C   0  0  1  0  0  0  0  0  0  0  0  0
    4.8918  -44.5904   10.2313 O   0  0  0  0  0  0  0  0  0  0  0  0
    0.0927  -54.2502    6.6750 C   0  0  0  0  0  0  0  0  0  0  0  0
   -0.8530  -54.4963    7.7906 N   0  0  0  0  0  0  0  0  0  0  0  0
   -3.7991  -47.8916    4.7373 C   0  0  0  0  0  0  0  0  0  0  0  0
   -4.8724  -47.3284    5.5529 O   0  0  0  0  0  0  0  0  0  0  0  0
  1  2  1  6  0  0  0
  1  8  1  0  0  0  0
  1 36  1  0  0  0  0
  3  4  1  6  0  0  0
  3 10  1  0  0  0  0
  3 47  1  0  0  0  0
  5 11  1  0  0  0  0
  5 30  1  0  0  0  0
  5 38  1  1  0  0  0
  6 21  1  1  0  0  0
  6 42  1  0  0  0  0
  7 15  1  0  0  0  0
  7 44  1  0  0  0  0
  7 32  1  6  0  0  0
  8  9  1  6  0  0  0
  8 17  1  0  0  0  0
 11 12  1  1  0  0  0
 11 20  1  0  0  0  0
 13  6  1  0  0  0  0
 13 14  1  1  0  0  0
 15 16  1  1  0  0  0
 15 24  1  0  0  0  0
 17 26  1  0  0  0  0
 18 10  1  0  0  0  0
 18 19  1  6  0  0  0
 20 21  1  1  0  0  0
 20 29  1  0  0  0  0
 22 13  1  0  0  0  0
 22 23  1  6  0  0  0
 24 25  1  1  0  0  0
 24 33  1  0  0  0  0
 26 27  1  6  0  0  0
 26 35  1  0  0  0  0
 28  2  1  1  0  0  0
 28 18  1  0  0  0  0
 29 30  1  0  0  0  0
 29 39  1  6  0  0  0
 31 22  1  0  0  0  0
 31 32  1  1  0  0  0
 31 41  1  0  0  0  0
 33 34  1  6  0  0  0
 33 43  1  0  0  0  0
 35 36  1  0  0  0  0
 35 45  1  1  0  0  0
 37 28  1  0  0  0  0
 37 38  1  6  0  0  0
 39 40  1  0  0  0  0
 41 42  1  0  0  0  0
 41 49  1  1  0  0  0
 43 44  1  0  0  0  0
 43 51  1  1  0  0  0
 45 46  1  0  0  0  0
 47 37  1  0  0  0  0
 47 48  1  1  0  0  0
 49 50  1  0  0  0  0
 51 52  1  0  0  0  0
M  END
>  <CHROM.1>
-165.76184434,158.47619668,-30.14716853,62.77948866,165.04869854,85.38338435
45.21566636,69.24259247,74.03547538,-57.86068331,-71.28547234,60.94987355
1.17252539,-49.08621592,9.37245330,0.53190197,0.65568127,1.89886434

>  <Name>
2fd0_lig

>  <RI>
2.89522e+07

>  <Rbt.Current_Directory>
/home/itssahil/PROJECTS/Mol_Feturizer/New_Systems/rnas/2fd0

>  <Rbt.Executable>
rbdock ($Id: //depot/dev/client3/rdock/2013.1/src/exe/rbdock.cxx#4 $)

>  <Rbt.Library>
libRbt.so (2013.1, Build901 2013/11/27)

>  <Rbt.Parameter_File>
/export/apps/rDock/src/rDock_2013.1_src/data/scripts/dock_solv.prm

>  <Rbt.Receptor>
prm/pocket_docking_2.prm

>  <SCORE>
5.96665

>  <SCORE.INTER>
0.477202

>  <SCORE.INTER.CONST>
1

>  <SCORE.INTER.POLAR>
-0.253878

>  <SCORE.INTER.ROT>
12

>  <SCORE.INTER.SOLV>
13.635

>  <SCORE.INTER.VDW>
-14.9806

>  <SCORE.INTER.norm>
0.00917697

>  <SCORE.INTRA>
1.22561

>  <SCORE.INTRA.DIHEDRAL>
-9.72816

>  <SCORE.INTRA.DIHEDRAL.0>
23.9727

>  <SCORE.INTRA.POLAR>
0

>  <SCORE.INTRA.POLAR.0>
0

>  <SCORE.INTRA.REPUL>
0

>  <SCORE.INTRA.REPUL.0>
0

>  <SCORE.INTRA.SOLV>
2.52583

>  <SCORE.INTRA.SOLV.lig_0>
-115.028

>  <SCORE.INTRA.VDW>
4.82677

>  <SCORE.INTRA.VDW.0>
-6.82393

>  <SCORE.INTRA.norm>
0.0235693

>  <SCORE.RESTR>
4.26384

>  <SCORE.RESTR.CAVITY>
4.26384

>  <SCORE.RESTR.norm>
0.081997

>  <SCORE.SYSTEM>
0

>  <SCORE.SYSTEM.CONST>
0

>  <SCORE.SYSTEM.DIHEDRAL>
0

>  <SCORE.SYSTEM.SOLV>
0

>  <SCORE.SYSTEM.norm>
0

>  <SCORE.heavy>
52

>  <SCORE.norm>
0.114743

>  <RMSD>
3.675

$$$$
2fd0_lig
 OpenBabel11021811433D
libRbt.so/2013.1/901 2013/11/27
 52 56  0  0  0  0  0  0  0  0999 V2000
    5.1719  -48.0259   16.7415 C   0  0  2  0  0  0  0  0  0  0  0  0
    5.5709  -48.3905   15.4131 O   0  0  0  0  0  0  0  0  0  0  0  0
    7.1974  -44.6825   13.8327 C   0  0  2  0  0  0  0  0  0  0  0  0
    7.8664  -43.7160   12.9465 N   0  0  0  0  0  0  0  0  0  0  0  0
    4.2754  -47.8013   12.2569 C   0  0  1  0  0  0  0  0  0  0  0  0
    2.6163  -50.1549    8.7749 C   0  0  1  0  0  0  0  0  0  0  0  0
   -1.2610  -53.0260    7.7164 C   0  0  1  0  0  0  0  0  0  0  0  0
    4.6875  -49.3201   17.4911 C   0  0  2  0  0  0  0  0  0  0  0  0
    5.7160  -50.3508   17.5140 N   0  0  0  0  0  0  0  0  0  0  0  0
    8.1927  -45.8652   14.2115 C   0  0  0  0  0  0  0  0  0  0  0  0
    2.9833  -48.5830   12.1049 C   0  0  2  0  0  0  0  0  0  0  0  0
    3.0356  -49.8714   12.7796 O   0  0  0  0  0  0  0  0  0  0  0  0
    1.0167  -50.1272    8.7803 C   0  0  2  0  0  0  0  0  0  0  0  0
    0.4824  -51.0524    9.8166 N   0  0  0  0  0  0  0  0  0  0  0  0
   -1.3658  -53.5507    6.2668 C   0  0  1  0  0  0  0  0  0  0  0  0
   -0.8060  -54.8860    6.2065 O   0  0  0  0  0  0  0  0  0  0  0  0
    3.3530  -49.8560   16.8521 C   0  0  0  0  0  0  0  0  0  0  0  0
    7.4657  -46.9104   15.1852 C   0  0  2  0  0  0  0  0  0  0  0  0
    8.3641  -48.0161   15.5487 N   0  0  0  0  0  0  0  0  0  0  0  0
    2.7870  -48.6255   10.5988 C   0  0  2  0  0  0  0  0  0  0  0  0
    3.0347  -49.9059   10.0851 O   0  0  0  0  0  0  0  0  0  0  0  0
    0.5248  -50.4167    7.2686 C   0  0  1  0  0  0  0  0  0  0  0  0
    1.1226  -49.4284    6.4102 O   0  0  0  0  0  0  0  0  0  0  0  0
   -2.7771  -53.5899    5.6204 C   0  0  1  0  0  0  0  0  0  0  0  0
   -3.3296  -54.8932    5.8454 O   0  0  0  0  0  0  0  0  0  0  0  0
    2.2962  -48.7038   16.8696 C   0  0  2  0  0  0  0  0  0  0  0  0
    1.0647  -49.1551   16.3147 O   0  0  0  0  0  0  0  0  0  0  0  0
    6.1950  -47.4634   14.4814 C   0  0  2  0  0  0  0  0  0  0  0  0
    3.8427  -47.7090    9.9355 C   0  0  2  0  0  0  0  0  0  0  0  0
    4.4427  -47.0714   11.0539 O   0  0  0  0  0  0  0  0  0  0  0  0
    1.0325  -51.8560    6.7351 C   0  0  2  0  0  0  0  0  0  0  0  0
    0.3985  -52.8091    7.6088 O   0  0  0  0  0  0  0  0  0  0  0  0
   -3.7841  -52.5292    6.1217 C   0  0  2  0  0  0  0  0  0  0  0  0
   -4.4853  -52.0684    4.9459 O   0  0  0  0  0  0  0  0  0  0  0  0
    2.8347  -47.4952   16.0516 C   0  0  2  0  0  0  0  0  0  0  0  0
    4.1027  -47.0477   16.6692 O   0  0  0  0  0  0  0  0  0  0  0  0
    5.2122  -46.3372   14.0378 C   0  0  2  0  0  0  0  0  0  0  0  0
    4.1003  -46.9711   13.3610 O   0  0  0  0  0  0  0  0  0  0  0  0
    3.2781  -46.6320    9.0159 C   0  0  0  0  0  0  0  0  0  0  0  0
    4.3932  -46.0205    8.3498 O   0  0  0  0  0  0  0  0  0  0  0  0
    2.5272  -51.8840    6.9933 C   0  0  1  0  0  0  0  0  0  0  0  0
    3.1534  -51.4922    8.2329 O   0  0  0  0  0  0  0  0  0  0  0  0
   -3.0724  -51.4147    6.8840 C   0  0  2  0  0  0  0  0  0  0  0  0
   -2.1801  -51.8713    7.9380 O   0  0  0  0  0  0  0  0  0  0  0  0
    1.8825  -46.3418   16.0592 C   0  0  0  0  0  0  0  0  0  0  0  0
    2.4061  -45.3415   15.2280 O   0  0  0  0  0  0  0  0  0  0  0  0
    5.9497  -45.3165   13.0961 C   0  0  1  0  0  0  0  0  0  0  0  0
    5.0093  -44.2445   12.7413 O   0  0  0  0  0  0  0  0  0  0  0  0
    3.2019  -53.2392    6.5777 C   0  0  0  0  0  0  0  0  0  0  0  0
    4.5677  -53.4167    7.1276 N   0  0  0  0  0  0  0  0  0  0  0  0
   -3.8330  -50.2414    7.4978 C   0  0  0  0  0  0  0  0  0  0  0  0
   -2.8985  -49.2353    7.9970 O   0  0  0  0  0  0  0  0  0  0  0  0
  1  2  1  6  0  0  0
  1  8  1  0  0  0  0
  1 36  1  0  0  0  0
  3  4  1  6  0  0  0
  3 10  1  0  0  0  0
  3 47  1  0  0  0  0
  5 11  1  0  0  0  0
  5 30  1  0  0  0  0
  5 38  1  1  0  0  0
  6 21  1  1  0  0  0
  6 42  1  0  0  0  0
  7 15  1  0  0  0  0
  7 44  1  0  0  0  0
  7 32  1  6  0  0  0
  8  9  1  6  0  0  0
  8 17  1  0  0  0  0
 11 12  1  6  0  0  0
 11 20  1  0  0  0  0
 13  6  1  0  0  0  0
 13 14  1  1  0  0  0
 15 16  1  1  0  0  0
 15 24  1  0  0  0  0
 17 26  1  0  0  0  0
 18 10  1  0  0  0  0
 18 19  1  6  0  0  0
 20 21  1  6  0  0  0
 20 29  1  0  0  0  0
 22 13  1  0  0  0  0
 22 23  1  6  0  0  0
 24 25  1  1  0  0  0
 24 33  1  0  0  0  0
 26 27  1  6  0  0  0
 26 35  1  0  0  0  0
 28  2  1  1  0  0  0
 28 18  1  0  0  0  0
 29 30  1  0  0  0  0
 29 39  1  6  0  0  0
 31 22  1  0  0  0  0
 31 32  1  1  0  0  0
 31 41  1  0  0  0  0
 33 34  1  6  0  0  0
 33 43  1  0  0  0  0
 35 36  1  0  0  0  0
 35 45  1  1  0  0  0
 37 28  1  0  0  0  0
 37 38  1  6  0  0  0
 39 40  1  0  0  0  0
 41 42  1  0  0  0  0
 41 49  1  1  0  0  0
 43 44  1  0  0  0  0
 43 51  1  1  0  0  0
 45 46  1  0  0  0  0
 47 37  1  0  0  0  0
 47 48  1  1  0  0  0
 49 50  1  0  0  0  0
 51 52  1  0  0  0  0
M  END
>  <CHROM.1>
-173.84261659,163.21194953,-67.46228295,65.50418850,166.59238616,56.56114116
-171.71657733,63.54352250,-176.03393107,-56.44283239,-165.36954693,-171.94584440
2.41020480,-49.33219536,11.01131540,0.83918344,0.58344891,1.45509422

>  <Name>
2fd0_lig

>  <RI>
0

>  <Rbt.Current_Directory>
/home/itssahil/PROJECTS/Mol_Feturizer/New_Systems/rnas/2fd0

>  <Rbt.Executable>
rbdock ($Id: //depot/dev/client3/rdock/2013.1/src/exe/rbdock.cxx#4 $)

>  <Rbt.Library>
libRbt.so (2013.1, Build901 2013/11/27)

>  <Rbt.Parameter_File>
/export/apps/rDock/src/rDock_2013.1_src/data/scripts/dock_solv.prm

>  <Rbt.Receptor>
prm/pocket_docking_5.prm

>  <SCORE>
-24.4123

>  <SCORE.INTER>
-14.5023

>  <SCORE.INTER.CONST>
1

>  <SCORE.INTER.POLAR>
-0.979796

>  <SCORE.INTER.ROT>
12

>  <SCORE.INTER.SOLV>
14.4995

>  <SCORE.INTER.VDW>
-22.8354

>  <SCORE.INTER.norm>
-0.278891

>  <SCORE.INTRA>
-9.90995

>  <SCORE.INTRA.DIHEDRAL>
-18.4134

>  <SCORE.INTRA.DIHEDRAL.0>
23.9727

>  <SCORE.INTRA.POLAR>
0

>  <SCORE.INTRA.POLAR.0>
0

>  <SCORE.INTRA.REPUL>
0

>  <SCORE.INTRA.REPUL.0>
0

>  <SCORE.INTRA.SOLV>
-1.86213

>  <SCORE.INTRA.SOLV.lig_0>
-115.028

>  <SCORE.INTRA.VDW>
0.227798

>  <SCORE.INTRA.VDW.0>
-6.82393

>  <SCORE.INTRA.norm>
-0.190576

>  <SCORE.RESTR>
0

>  <SCORE.RESTR.CAVITY>
0

>  <SCORE.RESTR.norm>
0

>  <SCORE.SYSTEM>
0

>  <SCORE.SYSTEM.CONST>
0

>  <SCORE.SYSTEM.DIHEDRAL>
0

>  <SCORE.SYSTEM.SOLV>
0

>  <SCORE.SYSTEM.norm>
0

>  <SCORE.heavy>
52

>  <SCORE.norm>
-0.469467

>  <RMSD>
3.705

$$$$
2fd0_lig
 OpenBabel11021811433D
libRbt.so/2013.1/901 2013/11/27
 52 56  0  0  0  0  0  0  0  0999 V2000
    7.0855  -46.4656   15.2735 C   0  0  2  0  0  0  0  0  0  0  0  0
    6.5264  -45.4436   14.4368 O   0  0  0  0  0  0  0  0  0  0  0  0
    7.8066  -42.0008   12.1129 C   0  0  2  0  0  0  0  0  0  0  0  0
    8.5998  -41.1237   11.2363 N   0  0  0  0  0  0  0  0  0  0  0  0
    5.3611  -45.4893   10.4262 C   0  0  1  0  0  0  0  0  0  0  0  0
    2.5766  -48.0680    8.7852 C   0  0  1  0  0  0  0  0  0  0  0  0
   -1.2578  -50.2262    6.4259 C   0  0  1  0  0  0  0  0  0  0  0  0
    7.7071  -47.5795   14.3545 C   0  0  2  0  0  0  0  0  0  0  0  0
    8.7071  -47.0370   13.4454 N   0  0  0  0  0  0  0  0  0  0  0  0
    8.6696  -42.4486   13.3729 C   0  0  0  0  0  0  0  0  0  0  0  0
    4.4087  -46.6587   10.5970 C   0  0  2  0  0  0  0  0  0  0  0  0
    4.9079  -47.8727    9.9684 O   0  0  0  0  0  0  0  0  0  0  0  0
    2.1099  -48.4447    7.3020 C   0  0  2  0  0  0  0  0  0  0  0  0
    0.9481  -47.6092    6.8926 N   0  0  0  0  0  0  0  0  0  0  0  0
   -1.6217  -51.6486    6.9076 C   0  0  1  0  0  0  0  0  0  0  0  0
   -2.6665  -51.5556    7.9075 O   0  0  0  0  0  0  0  0  0  0  0  0
    6.5731  -48.3397   13.5718 C   0  0  0  0  0  0  0  0  0  0  0  0
    7.8004  -43.3946   14.3316 C   0  0  2  0  0  0  0  0  0  0  0  0
    8.5765  -43.8252   15.5038 N   0  0  0  0  0  0  0  0  0  0  0  0
    3.0999  -46.1136   10.0507 C   0  0  2  0  0  0  0  0  0  0  0  0
    2.7835  -46.6859    8.8109 O   0  0  0  0  0  0  0  0  0  0  0  0
    1.8664  -50.0416    7.2645 C   0  0  1  0  0  0  0  0  0  0  0  0
    3.0861  -50.6865    7.6740 O   0  0  0  0  0  0  0  0  0  0  0  0
   -2.0729  -52.6742    5.8327 C   0  0  1  0  0  0  0  0  0  0  0  0
   -3.5031  -52.6281    5.7515 O   0  0  0  0  0  0  0  0  0  0  0  0
    5.5450  -48.9006   14.6077 C   0  0  2  0  0  0  0  0  0  0  0  0
    4.5093  -49.6133   13.9386 O   0  0  0  0  0  0  0  0  0  0  0  0
    7.3189  -44.6328   13.5249 C   0  0  2  0  0  0  0  0  0  0  0  0
    3.2716  -44.6017    9.7697 C   0  0  2  0  0  0  0  0  0  0  0  0
    4.5529  -44.3303   10.3195 O   0  0  0  0  0  0  0  0  0  0  0  0
    0.7279  -50.5022    8.3161 C   0  0  2  0  0  0  0  0  0  0  0  0
   -0.4714  -49.8496    7.8585 O   0  0  0  0  0  0  0  0  0  0  0  0
   -1.4873  -52.4759    4.4156 C   0  0  2  0  0  0  0  0  0  0  0  0
   -1.1687  -53.8002    3.9346 O   0  0  0  0  0  0  0  0  0  0  0  0
    4.9371  -47.7235   15.4229 C   0  0  2  0  0  0  0  0  0  0  0  0
    6.0413  -47.0214   16.1137 O   0  0  0  0  0  0  0  0  0  0  0  0
    6.5157  -44.2451   12.2460 C   0  0  2  0  0  0  0  0  0  0  0  0
    6.1646  -45.4726   11.5633 O   0  0  0  0  0  0  0  0  0  0  0  0
    2.2544  -43.6966   10.4556 C   0  0  0  0  0  0  0  0  0  0  0  0
    0.9549  -44.1038   10.0009 O   0  0  0  0  0  0  0  0  0  0  0  0
    1.1305  -49.8950    9.6468 C   0  0  1  0  0  0  0  0  0  0  0  0
    1.5445  -48.5252    9.8322 O   0  0  0  0  0  0  0  0  0  0  0  0
   -0.2880  -51.5322    4.4451 C   0  0  2  0  0  0  0  0  0  0  0  0
   -0.5232  -50.2696    5.1277 O   0  0  0  0  0  0  0  0  0  0  0  0
    3.9687  -48.1981   16.4592 C   0  0  0  0  0  0  0  0  0  0  0  0
    4.6541  -49.0523   17.3346 O   0  0  0  0  0  0  0  0  0  0  0  0
    7.3812  -43.3064   11.3282 C   0  0  1  0  0  0  0  0  0  0  0  0
    6.5751  -42.9208   10.1616 O   0  0  0  0  0  0  0  0  0  0  0  0
    0.1087  -50.1974   10.7996 C   0  0  0  0  0  0  0  0  0  0  0  0
    0.0805  -51.6221   11.2108 N   0  0  0  0  0  0  0  0  0  0  0  0
    0.4750  -51.1543    3.1775 C   0  0  0  0  0  0  0  0  0  0  0  0
    1.0608  -52.3435    2.5633 O   0  0  0  0  0  0  0  0  0  0  0  0
  1  2  1  6  0  0  0
  1  8  1  0  0  0  0
  1 36  1  0  0  0  0
  3  4  1  6  0  0  0
  3 10  1  0  0  0  0
  3 47  1  0  0  0  0
  5 11  1  0  0  0  0
  5 30  1  0  0  0  0
  5 38  1  1  0  0  0
  6 21  1  6  0  0  0
  6 42  1  0  0  0  0
  7 15  1  0  0  0  0
  7 44  1  0  0  0  0
  7 32  1  1  0  0  0
  8  9  1  6  0  0  0
  8 17  1  0  0  0  0
 11 12  1  6  0  0  0
 11 20  1  0  0  0  0
 13  6  1  0  0  0  0
 13 14  1  1  0  0  0
 15 16  1  1  0  0  0
 15 24  1  0  0  0  0
 17 26  1  0  0  0  0
 18 10  1  0  0  0  0
 18 19  1  1  0  0  0
 20 21  1  6  0  0  0
 20 29  1  0  0  0  0
 22 13  1  0  0  0  0
 22 23  1  1  0  0  0
 24 25  1  6  0  0  0
 24 33  1  0  0  0  0
 26 27  1  6  0  0  0
 26 35  1  0  0  0  0
 28  2  1  1  0  0  0
 28 18  1  0  0  0  0
 29 30  1  0  0  0  0
 29 39  1  1  0  0  0
 31 22  1  0  0  0  0
 31 32  1  6  0  0  0
 31 41  1  0  0  0  0
 33 34  1  1  0  0  0
 33 43  1  0  0  0  0
 35 36  1  0  0  0  0
 35 45  1  1  0  0  0
 37 28  1  0  0  0  0
 37 38  1  6  0  0  0
 39 40  1  0  0  0  0
 41 42  1  0  0  0  0
 41 49  1  1  0  0  0
 43 44  1  0  0  0  0
 43 51  1  6  0  0  0
 45 46  1  0  0  0  0
 47 37  1  0  0  0  0
 47 48  1  6  0  0  0
 49 50  1  0  0  0  0
 51 52  1  0  0  0  0
M  END
>  <CHROM.1>
-62.79554494,-138.00436892,175.14085580,65.08224567,62.22559366,-88.99469254
-59.11482008,67.88069637,59.94592294,175.47115328,68.79958161,-61.40909865
3.29975820,-47.80595866,10.21963224,0.25421305,0.89924274,2.13110305

>  <Name>
2fd0_lig

>  <RI>
0

>  <Rbt.Current_Directory>
/home/itssahil/PROJECTS/Mol_Feturizer/New_Systems/rnas/2fd0

>  <Rbt.Executable>
rbdock ($Id: //depot/dev/client3/rdock/2013.1/src/exe/rbdock.cxx#4 $)

>  <Rbt.Library>
libRbt.so (2013.1, Build901 2013/11/27)

>  <Rbt.Parameter_File>
/export/apps/rDock/src/rDock_2013.1_src/data/scripts/dock_solv.prm

>  <Rbt.Receptor>
prm/pocket_docking_5.prm

>  <SCORE>
-12.9188

>  <SCORE.INTER>
-9.95273

>  <SCORE.INTER.CONST>
1

>  <SCORE.INTER.POLAR>
-1.33609

>  <SCORE.INTER.ROT>
12

>  <SCORE.INTER.SOLV>
16.2615

>  <SCORE.INTER.VDW>
-19.202

>  <SCORE.INTER.norm>
-0.191399

>  <SCORE.INTRA>
-2.96605

>  <SCORE.INTRA.DIHEDRAL>
-12.4218

>  <SCORE.INTRA.DIHEDRAL.0>
23.9727

>  <SCORE.INTRA.POLAR>
0

>  <SCORE.INTRA.POLAR.0>
0

>  <SCORE.INTRA.REPUL>
0

>  <SCORE.INTRA.REPUL.0>
0

>  <SCORE.INTRA.SOLV>
0.35351

>  <SCORE.INTRA.SOLV.lig_0>
-115.028

>  <SCORE.INTRA.VDW>
3.0681

>  <SCORE.INTRA.VDW.0>
-6.82393

>  <SCORE.INTRA.norm>
-0.0570394

>  <SCORE.RESTR>
0

>  <SCORE.RESTR.CAVITY>
0

>  <SCORE.RESTR.norm>
0

>  <SCORE.SYSTEM>
0

>  <SCORE.SYSTEM.CONST>
0

>  <SCORE.SYSTEM.DIHEDRAL>
0

>  <SCORE.SYSTEM.SOLV>
0

>  <SCORE.SYSTEM.norm>
0

>  <SCORE.heavy>
52

>  <SCORE.norm>
-0.248438

>  <RMSD>
3.744

$$$$
2fd0_lig
 OpenBabel11021811433D
libRbt.so/2013.1/901 2013/11/27
 52 56  0  0  0  0  0  0  0  0999 V2000
    5.1713  -48.3036   15.0642 C   0  0  2  0  0  0  0  0  0  0  0  0
    5.0000  -48.4288   13.6458 O   0  0  0  0  0  0  0  0  0  0  0  0
    6.9493  -44.9437   11.9291 C   0  0  2  0  0  0  0  0  0  0  0  0
    7.6953  -44.0736   11.0053 N   0  0  0  0  0  0  0  0  0  0  0  0
    3.6110  -48.2350   11.0462 C   0  0  1  0  0  0  0  0  0  0  0  0
    0.5993  -51.1047    9.9650 C   0  0  1  0  0  0  0  0  0  0  0  0
   -2.3758  -53.6569    6.5736 C   0  0  1  0  0  0  0  0  0  0  0  0
    4.9120  -49.7064   15.7249 C   0  0  2  0  0  0  0  0  0  0  0  0
    5.7864  -50.7340   15.1771 N   0  0  0  0  0  0  0  0  0  0  0  0
    7.8332  -46.2028   12.3369 C   0  0  0  0  0  0  0  0  0  0  0  0
    2.1450  -48.5761   10.8509 C   0  0  2  0  0  0  0  0  0  0  0  0
    1.5846  -49.2774   11.9965 O   0  0  0  0  0  0  0  0  0  0  0  0
    0.5952  -52.7033   10.0265 C   0  0  2  0  0  0  0  0  0  0  0  0
    1.2421  -53.2738    8.8135 N   0  0  0  0  0  0  0  0  0  0  0  0
   -1.2842  -53.1500    5.6045 C   0  0  1  0  0  0  0  0  0  0  0  0
   -0.2079  -54.1191    5.5571 O   0  0  0  0  0  0  0  0  0  0  0  0
    3.3969  -50.1073   15.5823 C   0  0  0  0  0  0  0  0  0  0  0  0
    7.0231  -47.1429   13.3514 C   0  0  2  0  0  0  0  0  0  0  0  0
    7.8176  -48.3167   13.7423 N   0  0  0  0  0  0  0  0  0  0  0  0
    2.1456  -49.3382    9.5364 C   0  0  2  0  0  0  0  0  0  0  0  0
    1.9198  -50.7070    9.7369 O   0  0  0  0  0  0  0  0  0  0  0  0
   -0.9291  -53.1715   10.2878 C   0  0  1  0  0  0  0  0  0  0  0  0
   -1.3864  -52.5397   11.4973 O   0  0  0  0  0  0  0  0  0  0  0  0
   -1.7132  -52.8343    4.1460 C   0  0  1  0  0  0  0  0  0  0  0  0
   -1.4886  -54.0087    3.3557 O   0  0  0  0  0  0  0  0  0  0  0  0
    2.5215  -48.9671   16.1974 C   0  0  2  0  0  0  0  0  0  0  0  0
    1.1401  -49.3008   16.1043 O   0  0  0  0  0  0  0  0  0  0  0  0
    5.6971  -47.5950   12.6783 C   0  0  2  0  0  0  0  0  0  0  0  0
    3.5577  -49.2455    8.9107 C   0  0  2  0  0  0  0  0  0  0  0  0
    4.2134  -48.3207    9.7665 O   0  0  0  0  0  0  0  0  0  0  0  0
   -1.9207  -52.6795    9.1093 C   0  0  2  0  0  0  0  0  0  0  0  0
   -1.4373  -53.3471    7.9285 O   0  0  0  0  0  0  0  0  0  0  0  0
   -3.1772  -52.3763    3.9519 C   0  0  2  0  0  0  0  0  0  0  0  0
   -3.1278  -51.3074    2.9816 O   0  0  0  0  0  0  0  0  0  0  0  0
    2.7976  -47.6369   15.4397 C   0  0  2  0  0  0  0  0  0  0  0  0
    4.2363  -47.3185   15.5748 O   0  0  0  0  0  0  0  0  0  0  0  0
    4.8195  -46.3954   12.2074 C   0  0  2  0  0  0  0  0  0  0  0  0
    3.6442  -46.9421   11.5624 O   0  0  0  0  0  0  0  0  0  0  0  0
    3.6005  -48.6963    7.4891 C   0  0  0  0  0  0  0  0  0  0  0  0
    3.0039  -47.3909    7.5242 O   0  0  0  0  0  0  0  0  0  0  0  0
   -1.6706  -51.1908    8.9591 C   0  0  1  0  0  0  0  0  0  0  0  0
   -0.3647  -50.5815    8.8845 O   0  0  0  0  0  0  0  0  0  0  0  0
   -3.8039  -51.9654    5.2815 C   0  0  2  0  0  0  0  0  0  0  0  0
   -3.6680  -52.9454    6.3476 O   0  0  0  0  0  0  0  0  0  0  0  0
    2.0147  -46.4947   16.0051 C   0  0  0  0  0  0  0  0  0  0  0  0
    2.1743  -45.3944   15.1510 O   0  0  0  0  0  0  0  0  0  0  0  0
    5.6381  -45.4796   11.2257 C   0  0  1  0  0  0  0  0  0  0  0  0
    4.7988  -44.3350   10.8449 O   0  0  0  0  0  0  0  0  0  0  0  0
   -2.5205  -50.5327    7.8150 C   0  0  0  0  0  0  0  0  0  0  0  0
   -2.2452  -49.0878    7.6256 N   0  0  0  0  0  0  0  0  0  0  0  0
   -5.2486  -51.4806    5.3790 C   0  0  0  0  0  0  0  0  0  0  0  0
   -5.4326  -50.2681    4.5850 O   0  0  0  0  0  0  0  0  0  0  0  0
  1  2  1  6  0  0  0
  1  8  1  0  0  0  0
  1 36  1  0  0  0  0
  3  4  1  6  0  0  0
  3 10  1  0  0  0  0
  3 47  1  0  0  0  0
  5 11  1  0  0  0  0
  5 30  1  0  0  0  0
  5 38  1  6  0  0  0
  6 21  1  6  0  0  0
  6 42  1  0  0  0  0
  7 15  1  0  0  0  0
  7 44  1  0  0  0  0
  7 32  1  1  0  0  0
  8  9  1  6  0  0  0
  8 17  1  0  0  0  0
 11 12  1  1  0  0  0
 11 20  1  0  0  0  0
 13  6  1  0  0  0  0
 13 14  1  6  0  0  0
 15 16  1  6  0  0  0
 15 24  1  0  0  0  0
 17 26  1  0  0  0  0
 18 10  1  0  0  0  0
 18 19  1  6  0  0  0
 20 21  1  1  0  0  0
 20 29  1  0  0  0  0
 22 13  1  0  0  0  0
 22 23  1  1  0  0  0
 24 25  1  6  0  0  0
 24 33  1  0  0  0  0
 26 27  1  6  0  0  0
 26 35  1  0  0  0  0
 28  2  1  1  0  0  0
 28 18  1  0  0  0  0
 29 30  1  0  0  0  0
 29 39  1  6  0  0  0
 31 22  1  0  0  0  0
 31 32  1  6  0  0  0
 31 41  1  0  0  0  0
 33 34  1  6  0  0  0
 33 43  1  0  0  0  0
 35 36  1  0  0  0  0
 35 45  1  1  0  0  0
 37 28  1  0  0  0  0
 37 38  1  6  0  0  0
 39 40  1  0  0  0  0
 41 42  1  0  0  0  0
 41 49  1  6  0  0  0
 43 44  1  0  0  0  0
 43 51  1  6  0  0  0
 45 46  1  0  0  0  0
 47 37  1  0  0  0  0
 47 48  1  1  0  0  0
 49 50  1  0  0  0  0
 51 52  1  0  0  0  0
M  END
>  <CHROM.1>
-151.36032579,163.25213839,174.92899021,133.63713960,78.54830976,26.79942743
57.97941209,156.51044556,-171.60460630,-21.42234407,-177.79278306,-61.24470767
1.59517377,-49.65403422,10.19889678,0.60927685,0.69768099,1.73794325

>  <Name>
2fd0_lig

>  <RI>
1.29864e+07

>  <Rbt.Current_Directory>
/home/itssahil/PROJECTS/Mol_Feturizer/New_Systems/rnas/2fd0

>  <Rbt.Executable>
rbdock ($Id: //depot/dev/client3/rdock/2013.1/src/exe/rbdock.cxx#4 $)

>  <Rbt.Library>
libRbt.so (2013.1, Build901 2013/11/27)

>  <Rbt.Parameter_File>
/export/apps/rDock/src/rDock_2013.1_src/data/scripts/dock_solv.prm

>  <Rbt.Receptor>
prm/pocket_docking_3.prm

>  <SCORE>
-3.95913

>  <SCORE.INTER>
-7.85261

>  <SCORE.INTER.CONST>
1

>  <SCORE.INTER.POLAR>
-1.67491

>  <SCORE.INTER.ROT>
12

>  <SCORE.INTER.SOLV>
16.2045

>  <SCORE.INTER.VDW>
-16.6535

>  <SCORE.INTER.norm>
-0.151012

>  <SCORE.INTRA>
3.14987

>  <SCORE.INTRA.DIHEDRAL>
2.17469

>  <SCORE.INTRA.DIHEDRAL.0>
23.9727

>  <SCORE.INTRA.POLAR>
0

>  <SCORE.INTRA.POLAR.0>
0

>  <SCORE.INTRA.REPUL>
0

>  <SCORE.INTRA.REPUL.0>
0

>  <SCORE.INTRA.SOLV>
-1.15121

>  <SCORE.INTRA.SOLV.lig_0>
-115.028

>  <SCORE.INTRA.VDW>
2.63813

>  <SCORE.INTRA.VDW.0>
-6.82393

>  <SCORE.INTRA.norm>
0.0605744

>  <SCORE.RESTR>
0.743615

>  <SCORE.RESTR.CAVITY>
0.743615

>  <SCORE.RESTR.norm>
0.0143003

>  <SCORE.SYSTEM>
0

>  <SCORE.SYSTEM.CONST>
0

>  <SCORE.SYSTEM.DIHEDRAL>
0

>  <SCORE.SYSTEM.SOLV>
0

>  <SCORE.SYSTEM.norm>
0

>  <SCORE.heavy>
52

>  <SCORE.norm>
-0.0761371

>  <RMSD>
3.880

$$$$
2fd0_lig
 OpenBabel11021811433D
libRbt.so/2013.1/901 2013/11/27
 52 56  0  0  0  0  0  0  0  0999 V2000
    6.1610  -47.2128   16.0435 C   0  0  2  0  0  0  0  0  0  0  0  0
    6.5550  -47.7817   14.7873 O   0  0  0  0  0  0  0  0  0  0  0  0
    5.2916  -44.7863   11.9021 C   0  0  2  0  0  0  0  0  0  0  0  0
    5.1454  -44.0275   10.6492 N   0  0  0  0  0  0  0  0  0  0  0  0
    3.4467  -48.8291   12.0326 C   0  0  1  0  0  0  0  0  0  0  0  0
    0.6725  -51.8819   10.2405 C   0  0  1  0  0  0  0  0  0  0  0  0
   -1.3123  -53.3640    5.8289 C   0  0  1  0  0  0  0  0  0  0  0  0
    6.6342  -48.1709   17.1966 C   0  0  2  0  0  0  0  0  0  0  0  0
    8.0708  -48.4054   17.1518 N   0  0  0  0  0  0  0  0  0  0  0  0
    6.8217  -44.8467   12.3358 C   0  0  0  0  0  0  0  0  0  0  0  0
    3.7212  -50.2512   11.5787 C   0  0  2  0  0  0  0  0  0  0  0  0
    4.4047  -50.2981   10.2947 O   0  0  0  0  0  0  0  0  0  0  0  0
    1.1113  -53.3413    9.7538 C   0  0  2  0  0  0  0  0  0  0  0  0
    1.9341  -53.2533    8.5166 N   0  0  0  0  0  0  0  0  0  0  0  0
   -0.0442  -53.7601    5.0397 C   0  0  1  0  0  0  0  0  0  0  0  0
    0.1236  -55.1979    5.1067 O   0  0  0  0  0  0  0  0  0  0  0  0
    5.8309  -49.5232   17.1495 C   0  0  0  0  0  0  0  0  0  0  0  0
    6.9771  -45.6638   13.7060 C   0  0  2  0  0  0  0  0  0  0  0  0
    8.3837  -45.7367   14.1280 N   0  0  0  0  0  0  0  0  0  0  0  0
    2.3456  -50.8948   11.6267 C   0  0  2  0  0  0  0  0  0  0  0  0
    1.8374  -51.1156   10.3392 O   0  0  0  0  0  0  0  0  0  0  0  0
   -0.2308  -54.2333    9.6351 C   0  0  1  0  0  0  0  0  0  0  0  0
   -0.8886  -54.2182   10.9150 O   0  0  0  0  0  0  0  0  0  0  0  0
    0.0322  -53.3347    3.5484 C   0  0  1  0  0  0  0  0  0  0  0  0
   -0.4719  -54.4163    2.7544 O   0  0  0  0  0  0  0  0  0  0  0  0
    4.3032  -49.1958   17.2107 C   0  0  2  0  0  0  0  0  0  0  0  0
    3.5396  -50.3977   17.1887 O   0  0  0  0  0  0  0  0  0  0  0  0
    6.4018  -47.0948   13.5138 C   0  0  2  0  0  0  0  0  0  0  0  0
    1.3585  -49.9050   12.2903 C   0  0  2  0  0  0  0  0  0  0  0  0
    2.2182  -48.8666   12.7377 O   0  0  0  0  0  0  0  0  0  0  0  0
   -1.2776  -53.6080    8.5732 C   0  0  2  0  0  0  0  0  0  0  0  0
   -0.5858  -53.6593    7.3113 O   0  0  0  0  0  0  0  0  0  0  0  0
   -0.7285  -52.0429    3.1700 C   0  0  2  0  0  0  0  0  0  0  0  0
    0.1356  -51.3331    2.2558 O   0  0  0  0  0  0  0  0  0  0  0  0
    3.9170  -48.3004   15.9987 C   0  0  2  0  0  0  0  0  0  0  0  0
    4.7184  -47.0585   16.0681 O   0  0  0  0  0  0  0  0  0  0  0  0
    4.9189  -47.0896   13.0323 C   0  0  2  0  0  0  0  0  0  0  0  0
    4.5157  -48.4679   12.8485 O   0  0  0  0  0  0  0  0  0  0  0  0
    0.6035  -50.4547   13.4954 C   0  0  0  0  0  0  0  0  0  0  0  0
   -0.2134  -51.5365   13.0225 O   0  0  0  0  0  0  0  0  0  0  0  0
   -1.4465  -52.1543    8.9728 C   0  0  1  0  0  0  0  0  0  0  0  0
   -0.3600  -51.2573    9.2842 O   0  0  0  0  0  0  0  0  0  0  0  0
   -1.0942  -51.2378    4.4140 C   0  0  2  0  0  0  0  0  0  0  0  0
   -1.7747  -51.9961    5.4521 O   0  0  0  0  0  0  0  0  0  0  0  0
    2.4704  -47.9207   16.0183 C   0  0  0  0  0  0  0  0  0  0  0  0
    1.7122  -49.0951   15.9102 O   0  0  0  0  0  0  0  0  0  0  0  0
    4.7875  -46.2711   11.6960 C   0  0  1  0  0  0  0  0  0  0  0  0
    3.3722  -46.2443   11.3016 O   0  0  0  0  0  0  0  0  0  0  0  0
   -2.4047  -51.3573    8.0183 C   0  0  0  0  0  0  0  0  0  0  0  0
   -3.8219  -51.7857    8.1052 N   0  0  0  0  0  0  0  0  0  0  0  0
   -1.8605  -49.9197    4.3279 C   0  0  0  0  0  0  0  0  0  0  0  0
   -3.1774  -50.1354    3.7331 O   0  0  0  0  0  0  0  0  0  0  0  0
  1  2  1  6  0  0  0
  1  8  1  0  0  0  0
  1 36  1  0  0  0  0
  3  4  1  6  0  0  0
  3 10  1  0  0  0  0
  3 47  1  0  0  0  0
  5 11  1  0  0  0  0
  5 30  1  0  0  0  0
  5 38  1  1  0  0  0
  6 21  1  6  0  0  0
  6 42  1  0  0  0  0
  7 15  1  0  0  0  0
  7 44  1  0  0  0  0
  7 32  1  1  0  0  0
  8  9  1  6  0  0  0
  8 17  1  0  0  0  0
 11 12  1  6  0  0  0
 11 20  1  0  0  0  0
 13  6  1  0  0  0  0
 13 14  1  6  0  0  0
 15 16  1  6  0  0  0
 15 24  1  0  0  0  0
 17 26  1  0  0  0  0
 18 10  1  0  0  0  0
 18 19  1  6  0  0  0
 20 21  1  6  0  0  0
 20 29  1  0  0  0  0
 22 13  1  0  0  0  0
 22 23  1  1  0  0  0
 24 25  1  6  0  0  0
 24 33  1  0  0  0  0
 26 27  1  6  0  0  0
 26 35  1  0  0  0  0
 28  2  1  1  0  0  0
 28 18  1  0  0  0  0
 29 30  1  0  0  0  0
 29 39  1  1  0  0  0
 31 22  1  0  0  0  0
 31 32  1  6  0  0  0
 31 41  1  0  0  0  0
 33 34  1  6  0  0  0
 33 43  1  0  0  0  0
 35 36  1  0  0  0  0
 35 45  1  1  0  0  0
 37 28  1  0  0  0  0
 37 38  1  6  0  0  0
 39 40  1  0  0  0  0
 41 42  1  0  0  0  0
 41 49  1  6  0  0  0
 43 44  1  0  0  0  0
 43 51  1  6  0  0  0
 45 46  1  0  0  0  0
 47 37  1  0  0  0  0
 47 48  1  1  0  0  0
 49 50  1  0  0  0  0
 51 52  1  0  0  0  0
M  END
>  <CHROM.1>
-173.41808337,154.16461957,-102.94123345,-173.82260223,170.66490539,48.48809521
-63.62653098,169.56278592,-62.69996599,-158.43852412,68.16614164,61.63168761
2.12478175,-50.08682821,10.70286626,-0.66379725,-0.85623013,-1.30188347

>  <Name>
2fd0_lig

>  <RI>
0

>  <Rbt.Current_Directory>
/home/itssahil/PROJECTS/Mol_Feturizer/New_Systems/rnas/2fd0

>  <Rbt.Executable>
rbdock ($Id: //depot/dev/client3/rdock/2013.1/src/exe/rbdock.cxx#4 $)

>  <Rbt.Library>
libRbt.so (2013.1, Build901 2013/11/27)

>  <Rbt.Parameter_File>
/export/apps/rDock/src/rDock_2013.1_src/data/scripts/dock_solv.prm

>  <Rbt.Receptor>
prm/pocket_docking_5.prm

>  <SCORE>
-16.2994

>  <SCORE.INTER>
-12.9393

>  <SCORE.INTER.CONST>
1

>  <SCORE.INTER.POLAR>
-1.4177

>  <SCORE.INTER.ROT>
12

>  <SCORE.INTER.SOLV>
14.2821

>  <SCORE.INTER.VDW>
-20.2612

>  <SCORE.INTER.norm>
-0.248832

>  <SCORE.INTRA>
-3.36011

>  <SCORE.INTRA.DIHEDRAL>
-9.43724

>  <SCORE.INTRA.DIHEDRAL.0>
23.9727

>  <SCORE.INTRA.POLAR>
0

>  <SCORE.INTRA.POLAR.0>
0

>  <SCORE.INTRA.REPUL>
0

>  <SCORE.INTRA.REPUL.0>
0

>  <SCORE.INTRA.SOLV>
-1.10187

>  <SCORE.INTRA.SOLV.lig_0>
-115.028

>  <SCORE.INTRA.VDW>
1.90944

>  <SCORE.INTRA.VDW.0>
-6.82393

>  <SCORE.INTRA.norm>
-0.0646176

>  <SCORE.RESTR>
0

>  <SCORE.RESTR.CAVITY>
0

>  <SCORE.RESTR.norm>
0

>  <SCORE.SYSTEM>
0

>  <SCORE.SYSTEM.CONST>
0

>  <SCORE.SYSTEM.DIHEDRAL>
0

>  <SCORE.SYSTEM.SOLV>
0

>  <SCORE.SYSTEM.norm>
0

>  <SCORE.heavy>
52

>  <SCORE.norm>
-0.31345

>  <RMSD>
3.928

$$$$
2fd0_lig
 OpenBabel11021811433D
libRbt.so/2013.1/901 2013/11/27
 52 56  0  0  0  0  0  0  0  0999 V2000
    5.1597  -49.4272   14.9573 C   0  0  2  0  0  0  0  0  0  0  0  0
    5.4747  -48.1817   15.5949 O   0  0  0  0  0  0  0  0  0  0  0  0
    8.2347  -44.8274   15.4424 C   0  0  2  0  0  0  0  0  0  0  0  0
    9.4530  -44.0292   15.2287 N   0  0  0  0  0  0  0  0  0  0  0  0
    5.8796  -46.2018   11.8563 C   0  0  1  0  0  0  0  0  0  0  0  0
    3.4579  -46.2488    8.0603 C   0  0  1  0  0  0  0  0  0  0  0  0
   -1.0879  -48.6079    9.2183 C   0  0  1  0  0  0  0  0  0  0  0  0
    3.9397  -50.0775   15.7058 C   0  0  2  0  0  0  0  0  0  0  0  0
    2.7842  -49.1916   15.7317 N   0  0  0  0  0  0  0  0  0  0  0  0
    8.5299  -46.0279   16.4448 C   0  0  0  0  0  0  0  0  0  0  0  0
    4.9081  -46.9876   10.9948 C   0  0  2  0  0  0  0  0  0  0  0  0
    5.5885  -47.9047   10.0924 O   0  0  0  0  0  0  0  0  0  0  0  0
    2.1262  -45.3812    8.2423 C   0  0  2  0  0  0  0  0  0  0  0  0
    1.6939  -45.3815    9.6666 N   0  0  0  0  0  0  0  0  0  0  0  0
   -0.1109  -49.4536   10.0657 C   0  0  1  0  0  0  0  0  0  0  0  0
    0.2332  -48.7169   11.2651 O   0  0  0  0  0  0  0  0  0  0  0  0
    4.3585  -50.5159   17.1580 C   0  0  0  0  0  0  0  0  0  0  0  0
    7.1993  -46.8889   16.6846 C   0  0  2  0  0  0  0  0  0  0  0  0
    7.4458  -48.0077   17.6063 N   0  0  0  0  0  0  0  0  0  0  0  0
    4.0780  -45.8977   10.3379 C   0  0  2  0  0  0  0  0  0  0  0  0
    4.3925  -45.7621    8.9787 O   0  0  0  0  0  0  0  0  0  0  0  0
    1.0393  -45.9395    7.1850 C   0  0  1  0  0  0  0  0  0  0  0  0
    1.6157  -45.8547    5.8691 O   0  0  0  0  0  0  0  0  0  0  0  0
   -0.5756  -50.8736   10.4886 C   0  0  1  0  0  0  0  0  0  0  0  0
   -1.1840  -50.7718   11.7823 O   0  0  0  0  0  0  0  0  0  0  0  0
    5.5936  -51.4689   17.0523 C   0  0  2  0  0  0  0  0  0  0  0  0
    5.9935  -51.9039   18.3480 O   0  0  0  0  0  0  0  0  0  0  0  0
    6.6862  -47.4246   15.3188 C   0  0  2  0  0  0  0  0  0  0  0  0
    4.4478  -44.5389   10.9793 C   0  0  2  0  0  0  0  0  0  0  0  0
    5.2961  -44.9253   12.0510 O   0  0  0  0  0  0  0  0  0  0  0  0
    0.6993  -47.4999    7.4379 C   0  0  2  0  0  0  0  0  0  0  0  0
    0.1120  -47.5330    8.7523 O   0  0  0  0  0  0  0  0  0  0  0  0
   -1.5610  -51.5803    9.5294 C   0  0  2  0  0  0  0  0  0  0  0  0
   -1.1306  -52.9579    9.4710 O   0  0  0  0  0  0  0  0  0  0  0  0
    6.7674  -50.7197   16.3590 C   0  0  2  0  0  0  0  0  0  0  0  0
    6.3170  -50.3005   15.0133 O   0  0  0  0  0  0  0  0  0  0  0  0
    6.4363  -46.2888   14.2802 C   0  0  2  0  0  0  0  0  0  0  0  0
    6.0079  -46.9134   13.0463 O   0  0  0  0  0  0  0  0  0  0  0  0
    3.2742  -43.7549   11.5558 C   0  0  0  0  0  0  0  0  0  0  0  0
    3.8068  -42.8772   12.5593 O   0  0  0  0  0  0  0  0  0  0  0  0
    2.0402  -48.2075    7.4900 C   0  0  1  0  0  0  0  0  0  0  0  0
    3.1798  -47.7514    8.2485 O   0  0  0  0  0  0  0  0  0  0  0  0
   -1.5897  -50.8914    8.1677 C   0  0  2  0  0  0  0  0  0  0  0  0
   -1.8017  -49.4534    8.2169 O   0  0  0  0  0  0  0  0  0  0  0  0
    7.9718  -51.5911   16.1946 C   0  0  0  0  0  0  0  0  0  0  0  0
    7.5946  -52.7162   15.4478 O   0  0  0  0  0  0  0  0  0  0  0  0
    7.7492  -45.4490   14.0716 C   0  0  1  0  0  0  0  0  0  0  0  0
    7.4620  -44.3592   13.1285 O   0  0  0  0  0  0  0  0  0  0  0  0
    1.9175  -49.7459    7.7772 C   0  0  0  0  0  0  0  0  0  0  0  0
    3.2215  -50.4518    7.8037 N   0  0  0  0  0  0  0  0  0  0  0  0
   -2.4878  -51.3797    7.0333 C   0  0  0  0  0  0  0  0  0  0  0  0
   -2.2219  -52.7869    6.7443 O   0  0  0  0  0  0  0  0  0  0  0  0
  1  2  1  1  0  0  0
  1  8  1  0  0  0  0
  1 36  1  0  0  0  0
  3  4  1  6  0  0  0
  3 10  1  0  0  0  0
  3 47  1  0  0  0  0
  5 11  1  0  0  0  0
  5 30  1  0  0  0  0
  5 38  1  1  0  0  0
  6 21  1  1  0  0  0
  6 42  1  0  0  0  0
  7 15  1  0  0  0  0
  7 44  1  0  0  0  0
  7 32  1  6  0  0  0
  8  9  1  1  0  0  0
  8 17  1  0  0  0  0
 11 12  1  6  0  0  0
 11 20  1  0  0  0  0
 13  6  1  0  0  0  0
 13 14  1  1  0  0  0
 15 16  1  1  0  0  0
 15 24  1  0  0  0  0
 17 26  1  0  0  0  0
 18 10  1  0  0  0  0
 18 19  1  1  0  0  0
 20 21  1  6  0  0  0
 20 29  1  0  0  0  0
 22 13  1  0  0  0  0
 22 23  1  6  0  0  0
 24 25  1  1  0  0  0
 24 33  1  0  0  0  0
 26 27  1  1  0  0  0
 26 35  1  0  0  0  0
 28  2  1  1  0  0  0
 28 18  1  0  0  0  0
 29 30  1  0  0  0  0
 29 39  1  1  0  0  0
 31 22  1  0  0  0  0
 31 32  1  1  0  0  0
 31 41  1  0  0  0  0
 33 34  1  6  0  0  0
 33 43  1  0  0  0  0
 35 36  1  0  0  0  0
 35 45  1  6  0  0  0
 37 28  1  0  0  0  0
 37 38  1  6  0  0  0
 39 40  1  0  0  0  0
 41 42  1  0  0  0  0
 41 49  1  1  0  0  0
 43 44  1  0  0  0  0
 43 51  1  6  0  0  0
 45 46  1  0  0  0  0
 47 37  1  0  0  0  0
 47 48  1  6  0  0  0
 49 50  1  0  0  0  0
 51 52  1  0  0  0  0
M  END
>  <CHROM.1>
168.87503613,-157.06079394,63.70610537,105.91138812,106.35866068,-139.08525314
155.99196479,146.93346173,57.88377029,-170.80808315,178.86410556,-55.89628207
3.56527775,-48.15010134,11.84040175,0.34640756,0.75857517,2.47277056

>  <Name>
2fd0_lig

>  <RI>
2.00683e+07

>  <Rbt.Current_Directory>
/home/itssahil/PROJECTS/Mol_Feturizer/New_Systems/rnas/2fd0

>  <Rbt.Executable>
rbdock ($Id: //depot/dev/client3/rdock/2013.1/src/exe/rbdock.cxx#4 $)

>  <Rbt.Library>
libRbt.so (2013.1, Build901 2013/11/27)

>  <Rbt.Parameter_File>
/export/apps/rDock/src/rDock_2013.1_src/data/scripts/dock_solv.prm

>  <Rbt.Receptor>
prm/pocket_docking_4.prm

>  <SCORE>
-9.21548

>  <SCORE.INTER>
-16.7554

>  <SCORE.INTER.CONST>
1

>  <SCORE.INTER.POLAR>
-2.03927

>  <SCORE.INTER.ROT>
12

>  <SCORE.INTER.SOLV>
18.9929

>  <SCORE.INTER.VDW>
-22.3037

>  <SCORE.INTER.norm>
-0.32222

>  <SCORE.INTRA>
6.95899

>  <SCORE.INTRA.DIHEDRAL>
4.91571

>  <SCORE.INTRA.DIHEDRAL.0>
23.9727

>  <SCORE.INTRA.POLAR>
0

>  <SCORE.INTRA.POLAR.0>
0

>  <SCORE.INTRA.REPUL>
0

>  <SCORE.INTRA.REPUL.0>
0

>  <SCORE.INTRA.SOLV>
1.59324

>  <SCORE.INTRA.SOLV.lig_0>
-115.028

>  <SCORE.INTRA.VDW>
3.70452

>  <SCORE.INTRA.VDW.0>
-6.82393

>  <SCORE.INTRA.norm>
0.133827

>  <SCORE.RESTR>
0.580949

>  <SCORE.RESTR.CAVITY>
0.580949

>  <SCORE.RESTR.norm>
0.0111721

>  <SCORE.SYSTEM>
0

>  <SCORE.SYSTEM.CONST>
0

>  <SCORE.SYSTEM.DIHEDRAL>
0

>  <SCORE.SYSTEM.SOLV>
0

>  <SCORE.SYSTEM.norm>
0

>  <SCORE.heavy>
52

>  <SCORE.norm>
-0.177221

>  <RMSD>
3.978

$$$$
2fd0_lig
 OpenBabel11021811433D
libRbt.so/2013.1/901 2013/11/27
 52 56  0  0  0  0  0  0  0  0999 V2000
    4.0364  -48.5180   13.9223 C   0  0  2  0  0  0  0  0  0  0  0  0
    4.9221  -48.5726   12.7956 O   0  0  0  0  0  0  0  0  0  0  0  0
    4.6043  -44.6245   11.0058 C   0  0  2  0  0  0  0  0  0  0  0  0
    4.9219  -43.4079   10.2402 N   0  0  0  0  0  0  0  0  0  0  0  0
    3.1238  -48.8054    9.3072 C   0  0  1  0  0  0  0  0  0  0  0  0
    1.1982  -51.2617    6.0391 C   0  0  1  0  0  0  0  0  0  0  0  0
   -3.7968  -52.4310    6.3266 C   0  0  1  0  0  0  0  0  0  0  0  0
    3.7702  -49.9850   14.4207 C   0  0  2  0  0  0  0  0  0  0  0  0
    5.0070  -50.6769   14.7558 N   0  0  0  0  0  0  0  0  0  0  0  0
    5.7151  -44.8843   12.1156 C   0  0  0  0  0  0  0  0  0  0  0  0
    3.5788  -49.1203    7.8939 C   0  0  2  0  0  0  0  0  0  0  0  0
    3.3776  -47.9998    6.9872 O   0  0  0  0  0  0  0  0  0  0  0  0
    0.2617  -50.7177    4.8616 C   0  0  2  0  0  0  0  0  0  0  0  0
   -0.6827  -49.6900    5.3786 N   0  0  0  0  0  0  0  0  0  0  0  0
   -4.3013  -53.1205    5.0391 C   0  0  1  0  0  0  0  0  0  0  0  0
   -3.5467  -54.3397    4.8297 O   0  0  0  0  0  0  0  0  0  0  0  0
    2.9379  -50.7844   13.3509 C   0  0  0  0  0  0  0  0  0  0  0  0
    5.3613  -46.2032   12.9551 C   0  0  2  0  0  0  0  0  0  0  0  0
    6.3749  -46.4676   13.9868 N   0  0  0  0  0  0  0  0  0  0  0  0
    2.8128  -50.3907    7.5654 C   0  0  2  0  0  0  0  0  0  0  0  0
    1.7855  -50.1465    6.6435 O   0  0  0  0  0  0  0  0  0  0  0  0
   -0.4232  -52.0015    4.1588 C   0  0  1  0  0  0  0  0  0  0  0  0
    0.6282  -52.8763    3.7113 O   0  0  0  0  0  0  0  0  0  0  0  0
   -5.8124  -53.4691    4.9595 C   0  0  1  0  0  0  0  0  0  0  0  0
   -5.9800  -54.8149    5.4231 O   0  0  0  0  0  0  0  0  0  0  0  0
    1.6253  -49.9905   13.0483 C   0  0  2  0  0  0  0  0  0  0  0  0
    0.8329  -50.6919   12.0952 O   0  0  0  0  0  0  0  0  0  0  0  0
    5.2584  -47.4126   11.9843 C   0  0  2  0  0  0  0  0  0  0  0  0
    2.1008  -50.8854    8.8472 C   0  0  2  0  0  0  0  0  0  0  0  0
    2.6225  -50.0175    9.8433 O   0  0  0  0  0  0  0  0  0  0  0  0
   -1.3171  -52.8539    5.2021 C   0  0  2  0  0  0  0  0  0  0  0  0
   -2.3607  -51.9482    5.6075 O   0  0  0  0  0  0  0  0  0  0  0  0
   -6.7657  -52.5467    5.7539 C   0  0  2  0  0  0  0  0  0  0  0  0
   -7.9137  -52.3425    4.9015 O   0  0  0  0  0  0  0  0  0  0  0  0
    1.9880  -48.5804   12.5010 C   0  0  2  0  0  0  0  0  0  0  0  0
    2.7947  -47.8808   13.5253 O   0  0  0  0  0  0  0  0  0  0  0  0
    4.2221  -47.1834   10.8421 C   0  0  2  0  0  0  0  0  0  0  0  0
    4.2512  -48.3512    9.9868 O   0  0  0  0  0  0  0  0  0  0  0  0
    2.4170  -52.3215    9.2495 C   0  0  0  0  0  0  0  0  0  0  0  0
    1.4425  -52.7079   10.2305 O   0  0  0  0  0  0  0  0  0  0  0  0
   -0.4157  -53.1167    6.3937 C   0  0  1  0  0  0  0  0  0  0  0  0
    0.4019  -52.1187    7.0400 O   0  0  0  0  0  0  0  0  0  0  0  0
   -6.0660  -51.2513    6.1564 C   0  0  2  0  0  0  0  0  0  0  0  0
   -4.7871  -51.4321    6.8252 O   0  0  0  0  0  0  0  0  0  0  0  0
    0.7720  -47.7545   12.2245 C   0  0  0  0  0  0  0  0  0  0  0  0
    0.0838  -48.3408   11.1529 O   0  0  0  0  0  0  0  0  0  0  0  0
    4.5800  -45.8780   10.0418 C   0  0  1  0  0  0  0  0  0  0  0  0
    3.5553  -45.6668    9.0099 O   0  0  0  0  0  0  0  0  0  0  0  0
   -1.1302  -53.9041    7.5487 C   0  0  0  0  0  0  0  0  0  0  0  0
   -0.9272  -55.3717    7.4821 N   0  0  0  0  0  0  0  0  0  0  0  0
   -6.7764  -50.1646    6.9602 C   0  0  0  0  0  0  0  0  0  0  0  0
   -7.0430  -50.6299    8.3193 O   0  0  0  0  0  0  0  0  0  0  0  0
  1  2  1  6  0  0  0
  1  8  1  0  0  0  0
  1 36  1  0  0  0  0
  3  4  1  6  0  0  0
  3 10  1  0  0  0  0
  3 47  1  0  0  0  0
  5 11  1  0  0  0  0
  5 30  1  0  0  0  0
  5 38  1  1  0  0  0
  6 21  1  1  0  0  0
  6 42  1  0  0  0  0
  7 15  1  0  0  0  0
  7 44  1  0  0  0  0
  7 32  1  6  0  0  0
  8  9  1  6  0  0  0
  8 17  1  0  0  0  0
 11 12  1  6  0  0  0
 11 20  1  0  0  0  0
 13  6  1  0  0  0  0
 13 14  1  1  0  0  0
 15 16  1  1  0  0  0
 15 24  1  0  0  0  0
 17 26  1  0  0  0  0
 18 10  1  0  0  0  0
 18 19  1  1  0  0  0
 20 21  1  6  0  0  0
 20 29  1  0  0  0  0
 22 13  1  0  0  0  0
 22 23  1  1  0  0  0
 24 25  1  1  0  0  0
 24 33  1  0  0  0  0
 26 27  1  6  0  0  0
 26 35  1  0  0  0  0
 28  2  1  1  0  0  0
 28 18  1  0  0  0  0
 29 30  1  0  0  0  0
 29 39  1  1  0  0  0
 31 22  1  0  0  0  0
 31 32  1  1  0  0  0
 31 41  1  0  0  0  0
 33 34  1  6  0  0  0
 33 43  1  0  0  0  0
 35 36  1  0  0  0  0
 35 45  1  1  0  0  0
 37 28  1  0  0  0  0
 37 38  1  6  0  0  0
 39 40  1  0  0  0  0
 41 42  1  0  0  0  0
 41 49  1  1  0  0  0
 43 44  1  0  0  0  0
 43 51  1  1  0  0  0
 45 46  1  0  0  0  0
 47 37  1  0  0  0  0
 47 48  1  6  0  0  0
 49 50  1  0  0  0  0
 51 52  1  0  0  0  0
M  END
>  <CHROM.1>
172.54906228,135.04006757,-170.08946890,-68.21284127,166.46254696,37.11894316
-165.97356506,161.72004954,-67.23676034,148.46314253,94.03992335,68.39212485
0.59001481,-50.15442508,8.85165687,0.65217761,0.42615293,1.37923839

>  <Name>
2fd0_lig

>  <RI>
2.00683e+07

>  <Rbt.Current_Directory>
/home/itssahil/PROJECTS/Mol_Feturizer/New_Systems/rnas/2fd0

>  <Rbt.Executable>
rbdock ($Id: //depot/dev/client3/rdock/2013.1/src/exe/rbdock.cxx#4 $)

>  <Rbt.Library>
libRbt.so (2013.1, Build901 2013/11/27)

>  <Rbt.Parameter_File>
/export/apps/rDock/src/rDock_2013.1_src/data/scripts/dock_solv.prm

>  <Rbt.Receptor>
prm/pocket_docking_4.prm

>  <SCORE>
-16.6452

>  <SCORE.INTER>
-14.0217

>  <SCORE.INTER.CONST>
1

>  <SCORE.INTER.POLAR>
-2.6798

>  <SCORE.INTER.ROT>
12

>  <SCORE.INTER.SOLV>
19.3686

>  <SCORE.INTER.VDW>
-18.4714

>  <SCORE.INTER.norm>
-0.269649

>  <SCORE.INTRA>
-2.62345

>  <SCORE.INTRA.DIHEDRAL>
-3.60636

>  <SCORE.INTRA.DIHEDRAL.0>
23.9727

>  <SCORE.INTRA.POLAR>
0

>  <SCORE.INTRA.POLAR.0>
0

>  <SCORE.INTRA.REPUL>
0

>  <SCORE.INTRA.REPUL.0>
0

>  <SCORE.INTRA.SOLV>
-1.74246

>  <SCORE.INTRA.SOLV.lig_0>
-115.028

>  <SCORE.INTRA.VDW>
0.0509647

>  <SCORE.INTRA.VDW.0>
-6.82393

>  <SCORE.INTRA.norm>
-0.0504509

>  <SCORE.RESTR>
0

>  <SCORE.RESTR.CAVITY>
0

>  <SCORE.RESTR.norm>
0

>  <SCORE.SYSTEM>
0

>  <SCORE.SYSTEM.CONST>
0

>  <SCORE.SYSTEM.DIHEDRAL>
0

>  <SCORE.SYSTEM.SOLV>
0

>  <SCORE.SYSTEM.norm>
0

>  <SCORE.heavy>
52

>  <SCORE.norm>
-0.3201

>  <RMSD>
3.999

$$$$
2fd0_lig
 OpenBabel11021811433D
libRbt.so/2013.1/901 2013/11/27
 52 56  0  0  0  0  0  0  0  0999 V2000
    6.1266  -45.2179   13.6823 C   0  0  2  0  0  0  0  0  0  0  0  0
    5.8474  -46.6093   13.4754 O   0  0  0  0  0  0  0  0  0  0  0  0
    5.9811  -50.3704   15.6502 C   0  0  2  0  0  0  0  0  0  0  0  0
    5.8770  -51.3629   16.7323 N   0  0  0  0  0  0  0  0  0  0  0  0
    2.5536  -48.3893   12.8977 C   0  0  1  0  0  0  0  0  0  0  0  0
    1.9704  -49.4479    8.5386 C   0  0  1  0  0  0  0  0  0  0  0  0
   -2.3120  -50.2584    5.5199 C   0  0  1  0  0  0  0  0  0  0  0  0
    5.3379  -44.3845   12.6077 C   0  0  2  0  0  0  0  0  0  0  0  0
    3.9066  -44.6483   12.6600 N   0  0  0  0  0  0  0  0  0  0  0  0
    6.9719  -49.1977   16.0699 C   0  0  0  0  0  0  0  0  0  0  0  0
    3.2552  -47.9019   11.6432 C   0  0  2  0  0  0  0  0  0  0  0  0
    2.8085  -46.5764   11.2411 O   0  0  0  0  0  0  0  0  0  0  0  0
    1.3417  -48.5479    7.3750 C   0  0  2  0  0  0  0  0  0  0  0  0
    0.0716  -47.9194    7.8300 N   0  0  0  0  0  0  0  0  0  0  0  0
   -3.2528  -49.5232    6.5007 C   0  0  1  0  0  0  0  0  0  0  0  0
   -2.8660  -48.1284    6.5700 O   0  0  0  0  0  0  0  0  0  0  0  0
    5.9185  -44.6552   11.1703 C   0  0  0  0  0  0  0  0  0  0  0  0
    7.0922  -48.1240   14.8858 C   0  0  2  0  0  0  0  0  0  0  0  0
    8.0011  -47.0270   15.2496 N   0  0  0  0  0  0  0  0  0  0  0  0
    2.9959  -49.0232   10.6513 C   0  0  2  0  0  0  0  0  0  0  0  0
    2.0659  -48.6398    9.6752 O   0  0  0  0  0  0  0  0  0  0  0  0
    1.2260  -49.4760    6.0574 C   0  0  1  0  0  0  0  0  0  0  0  0
    2.5378  -49.9858    5.7567 O   0  0  0  0  0  0  0  0  0  0  0  0
   -4.7773  -49.5871    6.2132 C   0  0  1  0  0  0  0  0  0  0  0  0
   -5.1287  -48.4349    5.4364 O   0  0  0  0  0  0  0  0  0  0  0  0
    7.4505  -44.3433   11.1867 C   0  0  2  0  0  0  0  0  0  0  0  0
    8.0118  -44.5589    9.8957 O   0  0  0  0  0  0  0  0  0  0  0  0
    5.6795  -47.5626   14.5618 C   0  0  2  0  0  0  0  0  0  0  0  0
    2.3360  -50.2051   11.4010 C   0  0  2  0  0  0  0  0  0  0  0  0
    2.4177  -49.7928   12.7578 O   0  0  0  0  0  0  0  0  0  0  0  0
    0.2796  -50.7628    6.3083 C   0  0  2  0  0  0  0  0  0  0  0  0
   -1.0192  -50.2069    6.5870 O   0  0  0  0  0  0  0  0  0  0  0  0
   -5.2785  -50.8530    5.4805 C   0  0  2  0  0  0  0  0  0  0  0  0
   -6.5207  -51.2122    6.1244 O   0  0  0  0  0  0  0  0  0  0  0  0
    8.1537  -45.2582   12.2299 C   0  0  2  0  0  0  0  0  0  0  0  0
    7.5543  -44.9917   13.5562 O   0  0  0  0  0  0  0  0  0  0  0  0
    4.6543  -48.6801   14.1998 C   0  0  2  0  0  0  0  0  0  0  0  0
    3.3771  -48.0400   13.9648 O   0  0  0  0  0  0  0  0  0  0  0  0
    3.0557  -51.5419   11.2622 C   0  0  0  0  0  0  0  0  0  0  0  0
    3.0924  -51.8566    9.8619 O   0  0  0  0  0  0  0  0  0  0  0  0
    0.8059  -51.4177    7.5714 C   0  0  1  0  0  0  0  0  0  0  0  0
    1.1282  -50.7124    8.7883 O   0  0  0  0  0  0  0  0  0  0  0  0
   -4.2287  -51.9602    5.5185 C   0  0  2  0  0  0  0  0  0  0  0  0
   -2.9018  -51.5568    5.0802 O   0  0  0  0  0  0  0  0  0  0  0  0
    9.6211  -44.9835   12.3203 C   0  0  0  0  0  0  0  0  0  0  0  0
   10.1663  -45.8488   13.2794 O   0  0  0  0  0  0  0  0  0  0  0  0
    4.5633  -49.7289   15.3678 C   0  0  1  0  0  0  0  0  0  0  0  0
    3.6293  -50.7915   14.9701 O   0  0  0  0  0  0  0  0  0  0  0  0
   -0.0245  -52.6762    8.0084 C   0  0  0  0  0  0  0  0  0  0  0  0
   -1.4520  -52.3813    8.2814 N   0  0  0  0  0  0  0  0  0  0  0  0
   -4.4612  -53.3180    4.8596 C   0  0  0  0  0  0  0  0  0  0  0  0
   -5.6495  -53.9577    5.4192 O   0  0  0  0  0  0  0  0  0  0  0  0
  1  2  1  6  0  0  0
  1  8  1  0  0  0  0
  1 36  1  0  0  0  0
  3  4  1  1  0  0  0
  3 10  1  0  0  0  0
  3 47  1  0  0  0  0
  5 11  1  0  0  0  0
  5 30  1  0  0  0  0
  5 38  1  1  0  0  0
  6 21  1  1  0  0  0
  6 42  1  0  0  0  0
  7 15  1  0  0  0  0
  7 44  1  0  0  0  0
  7 32  1  1  0  0  0
  8  9  1  6  0  0  0
  8 17  1  0  0  0  0
 11 12  1  6  0  0  0
 11 20  1  0  0  0  0
 13  6  1  0  0  0  0
 13 14  1  1  0  0  0
 15 16  1  6  0  0  0
 15 24  1  0  0  0  0
 17 26  1  0  0  0  0
 18 10  1  0  0  0  0
 18 19  1  1  0  0  0
 20 21  1  6  0  0  0
 20 29  1  0  0  0  0
 22 13  1  0  0  0  0
 22 23  1  1  0  0  0
 24 25  1  6  0  0  0
 24 33  1  0  0  0  0
 26 27  1  6  0  0  0
 26 35  1  0  0  0  0
 28  2  1  6  0  0  0
 28 18  1  0  0  0  0
 29 30  1  0  0  0  0
 29 39  1  1  0  0  0
 31 22  1  0  0  0  0
 31 32  1  1  0  0  0
 31 41  1  0  0  0  0
 33 34  1  1  0  0  0
 33 43  1  0  0  0  0
 35 36  1  0  0  0  0
 35 45  1  1  0  0  0
 37 28  1  0  0  0  0
 37 38  1  1  0  0  0
 39 40  1  0  0  0  0
 41 42  1  0  0  0  0
 41 49  1  1  0  0  0
 43 44  1  0  0  0  0
 43 51  1  6  0  0  0
 45 46  1  0  0  0  0
 47 37  1  0  0  0  0
 47 48  1  6  0  0  0
 49 50  1  0  0  0  0
 51 52  1  0  0  0  0
M  END
>  <CHROM.1>
-142.11763116,-69.71053701,-157.67403594,179.41832806,165.54202466,-88.93950178
-59.42632011,107.15059383,179.96259513,136.62828833,-59.70830846,-58.41377384
2.23653120,-48.90644522,10.21597166,-0.18134444,-0.69724310,-0.77734607

>  <Name>
2fd0_lig

>  <RI>
2.89522e+07

>  <Rbt.Current_Directory>
/home/itssahil/PROJECTS/Mol_Feturizer/New_Systems/rnas/2fd0

>  <Rbt.Executable>
rbdock ($Id: //depot/dev/client3/rdock/2013.1/src/exe/rbdock.cxx#4 $)

>  <Rbt.Library>
libRbt.so (2013.1, Build901 2013/11/27)

>  <Rbt.Parameter_File>
/export/apps/rDock/src/rDock_2013.1_src/data/scripts/dock_solv.prm

>  <Rbt.Receptor>
prm/pocket_docking_2.prm

>  <SCORE>
10.1934

>  <SCORE.INTER>
0.0664652

>  <SCORE.INTER.CONST>
1

>  <SCORE.INTER.POLAR>
-0.0175533

>  <SCORE.INTER.ROT>
12

>  <SCORE.INTER.SOLV>
14.4283

>  <SCORE.INTER.VDW>
-16.3066

>  <SCORE.INTER.norm>
0.00127818

>  <SCORE.INTRA>
3.53598

>  <SCORE.INTRA.DIHEDRAL>
1.77268

>  <SCORE.INTRA.DIHEDRAL.0>
23.9727

>  <SCORE.INTRA.POLAR>
0

>  <SCORE.INTRA.POLAR.0>
0

>  <SCORE.INTRA.REPUL>
0

>  <SCORE.INTRA.REPUL.0>
0

>  <SCORE.INTRA.SOLV>
6.26454

>  <SCORE.INTRA.SOLV.lig_0>
-115.028

>  <SCORE.INTRA.VDW>
-0.482632

>  <SCORE.INTRA.VDW.0>
-6.82393

>  <SCORE.INTRA.norm>
0.0679995

>  <SCORE.RESTR>
6.59096

>  <SCORE.RESTR.CAVITY>
6.59096

>  <SCORE.RESTR.norm>
0.126749

>  <SCORE.SYSTEM>
0

>  <SCORE.SYSTEM.CONST>
0

>  <SCORE.SYSTEM.DIHEDRAL>
0

>  <SCORE.SYSTEM.SOLV>
0

>  <SCORE.SYSTEM.norm>
0

>  <SCORE.heavy>
52

>  <SCORE.norm>
0.196027

>  <RMSD>
4.024

$$$$
2fd0_lig
 OpenBabel11021811433D
libRbt.so/2013.1/901 2013/11/27
 52 56  0  0  0  0  0  0  0  0999 V2000
    4.5591  -47.1640   15.9267 C   0  0  2  0  0  0  0  0  0  0  0  0
    4.9260  -47.7831   14.6861 O   0  0  0  0  0  0  0  0  0  0  0  0
    5.0868  -44.4240   11.9323 C   0  0  2  0  0  0  0  0  0  0  0  0
    5.3094  -43.6225   10.7178 N   0  0  0  0  0  0  0  0  0  0  0  0
    3.1706  -48.5411   11.7663 C   0  0  1  0  0  0  0  0  0  0  0  0
    1.0502  -51.6646    9.8255 C   0  0  1  0  0  0  0  0  0  0  0  0
   -1.1309  -54.4776    6.0534 C   0  0  1  0  0  0  0  0  0  0  0  0
    4.6144  -48.2494   17.0626 C   0  0  2  0  0  0  0  0  0  0  0  0
    5.9270  -48.8737   17.1530 N   0  0  0  0  0  0  0  0  0  0  0  0
    6.4458  -45.1079   12.3994 C   0  0  0  0  0  0  0  0  0  0  0  0
    1.8497  -49.1986   11.4106 C   0  0  2  0  0  0  0  0  0  0  0  0
    1.5635  -50.3516   12.2514 O   0  0  0  0  0  0  0  0  0  0  0  0
    1.5436  -53.1742    9.6328 C   0  0  2  0  0  0  0  0  0  0  0  0
    2.2828  -53.3217    8.3494 N   0  0  0  0  0  0  0  0  0  0  0  0
   -0.5241  -53.2987    5.2598 C   0  0  1  0  0  0  0  0  0  0  0  0
    0.8613  -53.5967    4.9570 O   0  0  0  0  0  0  0  0  0  0  0  0
    3.4828  -49.3222   16.8507 C   0  0  0  0  0  0  0  0  0  0  0  0
    6.2033  -45.9710   13.7282 C   0  0  2  0  0  0  0  0  0  0  0  0
    7.4447  -46.6166   14.1799 N   0  0  0  0  0  0  0  0  0  0  0  0
    1.9977  -49.4765    9.9242 C   0  0  2  0  0  0  0  0  0  0  0  0
    2.1718  -50.8445    9.6730 O   0  0  0  0  0  0  0  0  0  0  0  0
    0.2515  -54.1290    9.8056 C   0  0  1  0  0  0  0  0  0  0  0  0
   -0.3267  -53.8643   11.0965 O   0  0  0  0  0  0  0  0  0  0  0  0
   -1.2288  -52.8879    3.9385 C   0  0  1  0  0  0  0  0  0  0  0  0
   -0.5916  -53.5878    2.8622 O   0  0  0  0  0  0  0  0  0  0  0  0
    2.1068  -48.5838   16.7727 C   0  0  2  0  0  0  0  0  0  0  0  0
    1.0513  -49.5241   16.5990 O   0  0  0  0  0  0  0  0  0  0  0  0
    5.1144  -47.0438   13.4471 C   0  0  2  0  0  0  0  0  0  0  0  0
    3.2959  -48.8013    9.4209 C   0  0  2  0  0  0  0  0  0  0  0  0
    3.7095  -48.0483   10.5520 O   0  0  0  0  0  0  0  0  0  0  0  0
   -0.8930  -53.7973    8.7128 C   0  0  2  0  0  0  0  0  0  0  0  0
   -0.2776  -54.0918    7.4447 O   0  0  0  0  0  0  0  0  0  0  0  0
   -2.7512  -53.1496    3.8701 C   0  0  2  0  0  0  0  0  0  0  0  0
   -3.3193  -51.9897    3.2232 O   0  0  0  0  0  0  0  0  0  0  0  0
    2.1243  -47.5811   15.5836 C   0  0  2  0  0  0  0  0  0  0  0  0
    3.2213  -46.6144   15.8108 O   0  0  0  0  0  0  0  0  0  0  0  0
    3.7787  -46.4274   12.9305 C   0  0  2  0  0  0  0  0  0  0  0  0
    2.8682  -47.5212   12.6648 O   0  0  0  0  0  0  0  0  0  0  0  0
    3.1143  -47.8440    8.2482 C   0  0  0  0  0  0  0  0  0  0  0  0
    4.2962  -47.0316    8.1814 O   0  0  0  0  0  0  0  0  0  0  0  0
   -1.1225  -52.3003    8.8022 C   0  0  1  0  0  0  0  0  0  0  0  0
   -0.0736  -51.3099    8.8346 O   0  0  0  0  0  0  0  0  0  0  0  0
   -3.3246  -53.4160    5.2592 C   0  0  2  0  0  0  0  0  0  0  0  0
   -2.6223  -54.4354    6.0229 O   0  0  0  0  0  0  0  0  0  0  0  0
    0.8448  -46.8140   15.4759 C   0  0  0  0  0  0  0  0  0  0  0  0
    0.7008  -46.0450   16.6394 O   0  0  0  0  0  0  0  0  0  0  0  0
    4.0423  -45.5741   11.6363 C   0  0  1  0  0  0  0  0  0  0  0  0
    2.7734  -44.9683   11.2095 O   0  0  0  0  0  0  0  0  0  0  0  0
   -2.1824  -51.7738    7.7708 C   0  0  0  0  0  0  0  0  0  0  0  0
   -2.4181  -50.3120    7.8541 N   0  0  0  0  0  0  0  0  0  0  0  0
   -4.8058  -53.7153    5.4789 C   0  0  0  0  0  0  0  0  0  0  0  0
   -5.2340  -54.8184    4.6219 O   0  0  0  0  0  0  0  0  0  0  0  0
  1  2  1  6  0  0  0
  1  8  1  0  0  0  0
  1 36  1  0  0  0  0
  3  4  1  6  0  0  0
  3 10  1  0  0  0  0
  3 47  1  0  0  0  0
  5 11  1  0  0  0  0
  5 30  1  0  0  0  0
  5 38  1  1  0  0  0
  6 21  1  6  0  0  0
  6 42  1  0  0  0  0
  7 15  1  0  0  0  0
  7 44  1  0  0  0  0
  7 32  1  1  0  0  0
  8  9  1  6  0  0  0
  8 17  1  0  0  0  0
 11 12  1  1  0  0  0
 11 20  1  0  0  0  0
 13  6  1  0  0  0  0
 13 14  1  6  0  0  0
 15 16  1  6  0  0  0
 15 24  1  0  0  0  0
 17 26  1  0  0  0  0
 18 10  1  0  0  0  0
 18 19  1  6  0  0  0
 20 21  1  1  0  0  0
 20 29  1  0  0  0  0
 22 13  1  0  0  0  0
 22 23  1  1  0  0  0
 24 25  1  6  0  0  0
 24 33  1  0  0  0  0
 26 27  1  6  0  0  0
 26 35  1  0  0  0  0
 28  2  1  1  0  0  0
 28 18  1  0  0  0  0
 29 30  1  0  0  0  0
 29 39  1  6  0  0  0
 31 22  1  0  0  0  0
 31 32  1  6  0  0  0
 31 41  1  0  0  0  0
 33 34  1  1  0  0  0
 33 43  1  0  0  0  0
 35 36  1  0  0  0  0
 35 45  1  1  0  0  0
 37 28  1  0  0  0  0
 37 38  1  6  0  0  0
 39 40  1  0  0  0  0
 41 42  1  0  0  0  0
 41 49  1  6  0  0  0
 43 44  1  0  0  0  0
 43 51  1  6  0  0  0
 45 46  1  0  0  0  0
 47 37  1  0  0  0  0
 47 48  1  1  0  0  0
 49 50  1  0  0  0  0
 51 52  1  0  0  0  0
M  END
>  <CHROM.1>
-173.49712073,-161.25576341,-174.26549073,121.76911180,72.92571092,57.18261914
163.07929206,156.11122298,63.12656897,-58.33581565,179.75763320,53.22022117
1.51835675,-49.88734084,10.43899270,0.75149947,0.84731415,1.60833480

>  <Name>
2fd0_lig

>  <RI>
2.00683e+07

>  <Rbt.Current_Directory>
/home/itssahil/PROJECTS/Mol_Feturizer/New_Systems/rnas/2fd0

>  <Rbt.Executable>
rbdock ($Id: //depot/dev/client3/rdock/2013.1/src/exe/rbdock.cxx#4 $)

>  <Rbt.Library>
libRbt.so (2013.1, Build901 2013/11/27)

>  <Rbt.Parameter_File>
/export/apps/rDock/src/rDock_2013.1_src/data/scripts/dock_solv.prm

>  <Rbt.Receptor>
prm/pocket_docking_4.prm

>  <SCORE>
-19.6157

>  <SCORE.INTER>
-14.671

>  <SCORE.INTER.CONST>
1

>  <SCORE.INTER.POLAR>
-1.78136

>  <SCORE.INTER.ROT>
12

>  <SCORE.INTER.SOLV>
12.1887

>  <SCORE.INTER.VDW>
-19.5057

>  <SCORE.INTER.norm>
-0.282135

>  <SCORE.INTRA>
-4.94465

>  <SCORE.INTRA.DIHEDRAL>
-8.87942

>  <SCORE.INTRA.DIHEDRAL.0>
23.9727

>  <SCORE.INTRA.POLAR>
0

>  <SCORE.INTRA.POLAR.0>
0

>  <SCORE.INTRA.REPUL>
0

>  <SCORE.INTRA.REPUL.0>
0

>  <SCORE.INTRA.SOLV>
-2.44058

>  <SCORE.INTRA.SOLV.lig_0>
-115.028

>  <SCORE.INTRA.VDW>
0.715351

>  <SCORE.INTRA.VDW.0>
-6.82393

>  <SCORE.INTRA.norm>
-0.0950894

>  <SCORE.RESTR>
0

>  <SCORE.RESTR.CAVITY>
0

>  <SCORE.RESTR.norm>
0

>  <SCORE.SYSTEM>
0

>  <SCORE.SYSTEM.CONST>
0

>  <SCORE.SYSTEM.DIHEDRAL>
0

>  <SCORE.SYSTEM.SOLV>
0

>  <SCORE.SYSTEM.norm>
0

>  <SCORE.heavy>
52

>  <SCORE.norm>
-0.377224

>  <RMSD>
4.057

$$$$
2fd0_lig
 OpenBabel11021811433D
libRbt.so/2013.1/901 2013/11/27
 52 56  0  0  0  0  0  0  0  0999 V2000
    4.5327  -45.4612   13.7971 C   0  0  2  0  0  0  0  0  0  0  0  0
    3.8389  -46.6276   13.3334 O   0  0  0  0  0  0  0  0  0  0  0  0
    4.1834  -49.4890   16.5871 C   0  0  2  0  0  0  0  0  0  0  0  0
    3.8924  -50.6024   17.5050 N   0  0  0  0  0  0  0  0  0  0  0  0
    3.5933  -49.4641   11.9485 C   0  0  1  0  0  0  0  0  0  0  0  0
    1.2696  -51.7791    8.8051 C   0  0  1  0  0  0  0  0  0  0  0  0
   -1.8241  -51.2302    4.5393 C   0  0  1  0  0  0  0  0  0  0  0  0
    5.0719  -44.6712   12.5493 C   0  0  2  0  0  0  0  0  0  0  0  0
    4.0014  -44.3163   11.6280 N   0  0  0  0  0  0  0  0  0  0  0  0
    2.9959  -48.4296   16.6102 C   0  0  0  0  0  0  0  0  0  0  0  0
    4.0251  -50.2816   10.7449 C   0  0  2  0  0  0  0  0  0  0  0  0
    4.4198  -49.4439    9.6221 O   0  0  0  0  0  0  0  0  0  0  0  0
    1.6240  -51.8637    7.2473 C   0  0  2  0  0  0  0  0  0  0  0  0
    1.5709  -50.5122    6.6260 N   0  0  0  0  0  0  0  0  0  0  0  0
   -2.5722  -49.9386    4.9390 C   0  0  1  0  0  0  0  0  0  0  0  0
   -1.6295  -48.8387    4.9747 O   0  0  0  0  0  0  0  0  0  0  0  0
    6.2013  -45.4944   11.8261 C   0  0  0  0  0  0  0  0  0  0  0  0
    3.3200  -47.2128   15.6184 C   0  0  2  0  0  0  0  0  0  0  0  0
    2.2357  -46.2197   15.6191 N   0  0  0  0  0  0  0  0  0  0  0  0
    2.8343  -51.1956   10.5099 C   0  0  2  0  0  0  0  0  0  0  0  0
    2.1166  -50.8191    9.3662 O   0  0  0  0  0  0  0  0  0  0  0  0
    0.6470  -52.9705    6.5904 C   0  0  1  0  0  0  0  0  0  0  0  0
    0.8372  -54.2078    7.3002 O   0  0  0  0  0  0  0  0  0  0  0  0
   -3.7795  -49.5105    4.0614 C   0  0  1  0  0  0  0  0  0  0  0  0
   -3.2991  -48.6013    3.0629 O   0  0  0  0  0  0  0  0  0  0  0  0
    7.3163  -45.8306   12.8693 C   0  0  2  0  0  0  0  0  0  0  0  0
    8.3689  -46.5617   12.2483 O   0  0  0  0  0  0  0  0  0  0  0  0
    3.5346  -47.7690   14.1830 C   0  0  2  0  0  0  0  0  0  0  0  0
    1.8427  -51.0298   11.6862 C   0  0  2  0  0  0  0  0  0  0  0  0
    2.5694  -50.2067   12.5873 O   0  0  0  0  0  0  0  0  0  0  0  0
   -0.9116  -52.5767    6.7633 C   0  0  2  0  0  0  0  0  0  0  0  0
   -1.0576  -51.3483    6.0262 O   0  0  0  0  0  0  0  0  0  0  0  0
   -4.5517  -50.6537    3.3632 C   0  0  2  0  0  0  0  0  0  0  0  0
   -5.9500  -50.3108    3.4809 O   0  0  0  0  0  0  0  0  0  0  0  0
    6.7040  -46.6658   14.0301 C   0  0  2  0  0  0  0  0  0  0  0  0
    5.6288  -45.8659   14.6573 O   0  0  0  0  0  0  0  0  0  0  0  0
    4.6512  -48.8552   14.1172 C   0  0  2  0  0  0  0  0  0  0  0  0
    4.7240  -49.3227   12.7489 O   0  0  0  0  0  0  0  0  0  0  0  0
    1.4736  -52.3210   12.4079 C   0  0  0  0  0  0  0  0  0  0  0  0
    0.4244  -52.0002   13.3339 O   0  0  0  0  0  0  0  0  0  0  0  0
   -1.0971  -52.2793    8.2393 C   0  0  1  0  0  0  0  0  0  0  0  0
   -0.2178  -51.4484    9.0259 O   0  0  0  0  0  0  0  0  0  0  0  0
   -4.2012  -52.0066    3.9767 C   0  0  2  0  0  0  0  0  0  0  0  0
   -2.7761  -52.2807    4.0733 O   0  0  0  0  0  0  0  0  0  0  0  0
    7.7151  -46.9908   15.0833 C   0  0  0  0  0  0  0  0  0  0  0  0
    7.1399  -47.9155   15.9663 O   0  0  0  0  0  0  0  0  0  0  0  0
    4.3204  -50.0309   15.1076 C   0  0  1  0  0  0  0  0  0  0  0  0
    5.4173  -51.0075   15.0566 O   0  0  0  0  0  0  0  0  0  0  0  0
   -2.5565  -51.8280    8.6012 C   0  0  0  0  0  0  0  0  0  0  0  0
   -3.5672  -52.2145    7.5872 N   0  0  0  0  0  0  0  0  0  0  0  0
   -4.8154  -53.3088    3.4678 C   0  0  0  0  0  0  0  0  0  0  0  0
   -4.0015  -53.8678    2.3909 O   0  0  0  0  0  0  0  0  0  0  0  0
  1  2  1  6  0  0  0
  1  8  1  0  0  0  0
  1 36  1  0  0  0  0
  3  4  1  1  0  0  0
  3 10  1  0  0  0  0
  3 47  1  0  0  0  0
  5 11  1  0  0  0  0
  5 30  1  0  0  0  0
  5 38  1  1  0  0  0
  6 21  1  6  0  0  0
  6 42  1  0  0  0  0
  7 15  1  0  0  0  0
  7 44  1  0  0  0  0
  7 32  1  1  0  0  0
  8  9  1  6  0  0  0
  8 17  1  0  0  0  0
 11 12  1  6  0  0  0
 11 20  1  0  0  0  0
 13  6  1  0  0  0  0
 13 14  1  6  0  0  0
 15 16  1  6  0  0  0
 15 24  1  0  0  0  0
 17 26  1  0  0  0  0
 18 10  1  0  0  0  0
 18 19  1  6  0  0  0
 20 21  1  6  0  0  0
 20 29  1  0  0  0  0
 22 13  1  0  0  0  0
 22 23  1  1  0  0  0
 24 25  1  6  0  0  0
 24 33  1  0  0  0  0
 26 27  1  6  0  0  0
 26 35  1  0  0  0  0
 28  2  1  6  0  0  0
 28 18  1  0  0  0  0
 29 30  1  0  0  0  0
 29 39  1  1  0  0  0
 31 22  1  0  0  0  0
 31 32  1  6  0  0  0
 31 41  1  0  0  0  0
 33 34  1  1  0  0  0
 33 43  1  0  0  0  0
 35 36  1  0  0  0  0
 35 45  1  1  0  0  0
 37 28  1  0  0  0  0
 37 38  1  6  0  0  0
 39 40  1  0  0  0  0
 41 42  1  0  0  0  0
 41 49  1  6  0  0  0
 43 44  1  0  0  0  0
 43 51  1  6  0  0  0
 45 46  1  0  0  0  0
 47 37  1  0  0  0  0
 47 48  1  1  0  0  0
 49 50  1  0  0  0  0
 51 52  1  0  0  0  0
M  END
>  <CHROM.1>
162.34077404,-166.34971615,-128.79921015,136.61660167,160.97690968,31.62043122
-172.42308623,106.10705561,-170.56472776,-36.50618398,19.98169565,89.03834728
1.64632581,-49.74090747,10.12867255,-0.26412241,-0.88048434,-0.72414161

>  <Name>
2fd0_lig

>  <RI>
1.29864e+07

>  <Rbt.Current_Directory>
/home/itssahil/PROJECTS/Mol_Feturizer/New_Systems/rnas/2fd0

>  <Rbt.Executable>
rbdock ($Id: //depot/dev/client3/rdock/2013.1/src/exe/rbdock.cxx#4 $)

>  <Rbt.Library>
libRbt.so (2013.1, Build901 2013/11/27)

>  <Rbt.Parameter_File>
/export/apps/rDock/src/rDock_2013.1_src/data/scripts/dock_solv.prm

>  <Rbt.Receptor>
prm/pocket_docking_3.prm

>  <SCORE>
2.9469

>  <SCORE.INTER>
-4.43205

>  <SCORE.INTER.CONST>
1

>  <SCORE.INTER.POLAR>
-0.981731

>  <SCORE.INTER.ROT>
12

>  <SCORE.INTER.SOLV>
19.3903

>  <SCORE.INTER.VDW>
-17.7457

>  <SCORE.INTER.norm>
-0.0852318

>  <SCORE.INTRA>
7.16028

>  <SCORE.INTRA.DIHEDRAL>
11.3724

>  <SCORE.INTRA.DIHEDRAL.0>
23.9727

>  <SCORE.INTRA.POLAR>
0

>  <SCORE.INTRA.POLAR.0>
0

>  <SCORE.INTRA.REPUL>
0

>  <SCORE.INTRA.REPUL.0>
0

>  <SCORE.INTRA.SOLV>
-0.284393

>  <SCORE.INTRA.SOLV.lig_0>
-115.028

>  <SCORE.INTRA.VDW>
1.61628

>  <SCORE.INTRA.VDW.0>
-6.82393

>  <SCORE.INTRA.norm>
0.137698

>  <SCORE.RESTR>
0.218667

>  <SCORE.RESTR.CAVITY>
0.218667

>  <SCORE.RESTR.norm>
0.00420514

>  <SCORE.SYSTEM>
0

>  <SCORE.SYSTEM.CONST>
0

>  <SCORE.SYSTEM.DIHEDRAL>
0

>  <SCORE.SYSTEM.SOLV>
0

>  <SCORE.SYSTEM.norm>
0

>  <SCORE.heavy>
52

>  <SCORE.norm>
0.0566711

>  <RMSD>
4.079

$$$$
2fd0_lig
 OpenBabel11021811433D
libRbt.so/2013.1/901 2013/11/27
 52 56  0  0  0  0  0  0  0  0999 V2000
    5.0168  -46.8087   15.8285 C   0  0  2  0  0  0  0  0  0  0  0  0
    5.3287  -47.2614   14.5038 O   0  0  0  0  0  0  0  0  0  0  0  0
    2.5487  -45.1179   11.9408 C   0  0  2  0  0  0  0  0  0  0  0  0
    1.9549  -44.4614   10.7645 N   0  0  0  0  0  0  0  0  0  0  0  0
    2.9356  -49.5354   11.7707 C   0  0  1  0  0  0  0  0  0  0  0  0
    1.3505  -53.4480   10.2982 C   0  0  1  0  0  0  0  0  0  0  0  0
   -1.7750  -54.4935    6.2396 C   0  0  1  0  0  0  0  0  0  0  0  0
    5.8777  -47.6326   16.8540 C   0  0  2  0  0  0  0  0  0  0  0  0
    7.3034  -47.5188   16.5802 N   0  0  0  0  0  0  0  0  0  0  0  0
    3.9443  -44.4443   12.3032 C   0  0  0  0  0  0  0  0  0  0  0  0
    3.6650  -50.8558   11.6029 C   0  0  2  0  0  0  0  0  0  0  0  0
    4.5029  -50.8756   10.4131 O   0  0  0  0  0  0  0  0  0  0  0  0
    1.5665  -54.1795    8.8919 C   0  0  2  0  0  0  0  0  0  0  0  0
    1.5392  -53.1907    7.7798 N   0  0  0  0  0  0  0  0  0  0  0  0
   -1.2419  -53.2529    5.4882 C   0  0  1  0  0  0  0  0  0  0  0  0
    0.1993  -53.3528    5.3749 O   0  0  0  0  0  0  0  0  0  0  0  0
    5.4158  -49.1369   16.8728 C   0  0  0  0  0  0  0  0  0  0  0  0
    4.5836  -45.1533   13.5908 C   0  0  2  0  0  0  0  0  0  0  0  0
    5.8769  -44.5505   13.9457 N   0  0  0  0  0  0  0  0  0  0  0  0
    2.5379  -51.8740   11.6427 C   0  0  2  0  0  0  0  0  0  0  0  0
    2.2959  -52.4213   10.3752 O   0  0  0  0  0  0  0  0  0  0  0  0
    0.4752  -55.3672    8.7941 C   0  0  1  0  0  0  0  0  0  0  0  0
    0.6530  -56.2284    9.9333 O   0  0  0  0  0  0  0  0  0  0  0  0
   -1.8183  -52.9707    4.0743 C   0  0  1  0  0  0  0  0  0  0  0  0
   -0.9533  -53.5893    3.1134 O   0  0  0  0  0  0  0  0  0  0  0  0
    3.8835  -49.1822   17.1806 C   0  0  2  0  0  0  0  0  0  0  0  0
    3.4287  -50.5310   17.2246 O   0  0  0  0  0  0  0  0  0  0  0  0
    4.7621  -46.6698   13.3013 C   0  0  2  0  0  0  0  0  0  0  0  0
    1.2276  -51.1478   12.0300 C   0  0  2  0  0  0  0  0  0  0  0  0
    1.6844  -49.8439   12.3599 O   0  0  0  0  0  0  0  0  0  0  0  0
   -1.0379  -54.8032    8.8764 C   0  0  2  0  0  0  0  0  0  0  0  0
   -1.1744  -53.9649    7.7135 O   0  0  0  0  0  0  0  0  0  0  0  0
   -3.2663  -53.4507    3.8221 C   0  0  2  0  0  0  0  0  0  0  0  0
   -3.9026  -52.3962    3.0673 O   0  0  0  0  0  0  0  0  0  0  0  0
    3.1115  -48.3981   16.0811 C   0  0  2  0  0  0  0  0  0  0  0  0
    3.6009  -47.0017   16.0799 O   0  0  0  0  0  0  0  0  0  0  0  0
    3.4305  -47.3657   12.8845 C   0  0  2  0  0  0  0  0  0  0  0  0
    3.7340  -48.7526   12.6006 O   0  0  0  0  0  0  0  0  0  0  0  0
    0.5032  -51.7227   13.2421 C   0  0  0  0  0  0  0  0  0  0  0  0
   -0.7407  -51.0161   13.3632 O   0  0  0  0  0  0  0  0  0  0  0  0
   -1.0805  -53.9249   10.1126 C   0  0  1  0  0  0  0  0  0  0  0  0
   -0.0913  -52.9286   10.4459 O   0  0  0  0  0  0  0  0  0  0  0  0
   -3.9734  -53.7735    5.1356 C   0  0  2  0  0  0  0  0  0  0  0  0
   -3.2405  -54.6676    6.0181 O   0  0  0  0  0  0  0  0  0  0  0  0
    1.6382  -48.3732   16.3377 C   0  0  0  0  0  0  0  0  0  0  0  0
    1.1242  -49.6429   16.0390 O   0  0  0  0  0  0  0  0  0  0  0  0
    2.8142  -46.6456   11.6298 C   0  0  1  0  0  0  0  0  0  0  0  0
    1.5379  -47.2942   11.2987 O   0  0  0  0  0  0  0  0  0  0  0  0
   -2.4755  -53.2414   10.3386 C   0  0  0  0  0  0  0  0  0  0  0  0
   -2.7270  -52.0908    9.4373 N   0  0  0  0  0  0  0  0  0  0  0  0
   -5.4135  -54.2799    5.1755 C   0  0  0  0  0  0  0  0  0  0  0  0
   -5.5955  -55.3703    4.2203 O   0  0  0  0  0  0  0  0  0  0  0  0
  1  2  1  6  0  0  0
  1  8  1  0  0  0  0
  1 36  1  0  0  0  0
  3  4  1  6  0  0  0
  3 10  1  0  0  0  0
  3 47  1  0  0  0  0
  5 11  1  0  0  0  0
  5 30  1  0  0  0  0
  5 38  1  1  0  0  0
  6 21  1  6  0  0  0
  6 42  1  0  0  0  0
  7 15  1  0  0  0  0
  7 44  1  0  0  0  0
  7 32  1  1  0  0  0
  8  9  1  6  0  0  0
  8 17  1  0  0  0  0
 11 12  1  6  0  0  0
 11 20  1  0  0  0  0
 13  6  1  0  0  0  0
 13 14  1  6  0  0  0
 15 16  1  6  0  0  0
 15 24  1  0  0  0  0
 17 26  1  0  0  0  0
 18 10  1  0  0  0  0
 18 19  1  6  0  0  0
 20 21  1  6  0  0  0
 20 29  1  0  0  0  0
 22 13  1  0  0  0  0
 22 23  1  1  0  0  0
 24 25  1  6  0  0  0
 24 33  1  0  0  0  0
 26 27  1  6  0  0  0
 26 35  1  0  0  0  0
 28  2  1  1  0  0  0
 28 18  1  0  0  0  0
 29 30  1  0  0  0  0
 29 39  1  1  0  0  0
 31 22  1  0  0  0  0
 31 32  1  6  0  0  0
 31 41  1  0  0  0  0
 33 34  1  1  0  0  0
 33 43  1  0  0  0  0
 35 36  1  0  0  0  0
 35 45  1  1  0  0  0
 37 28  1  0  0  0  0
 37 38  1  6  0  0  0
 39 40  1  0  0  0  0
 41 42  1  0  0  0  0
 41 49  1  6  0  0  0
 43 44  1  0  0  0  0
 43 51  1  6  0  0  0
 45 46  1  0  0  0  0
 47 37  1  0  0  0  0
 47 48  1  1  0  0  0
 49 50  1  0  0  0  0
 51 52  1  0  0  0  0
M  END
>  <CHROM.1>
-176.86655579,173.72455166,-163.54016124,-164.94316603,175.18346951,33.96883566
-174.26612119,92.86233650,-74.17484077,-156.51144745,-76.29688337,48.08719889
1.22391430,-50.73528603,10.83721947,-0.08051926,-1.03575758,-0.72420577

>  <Name>
2fd0_lig

>  <RI>
2.00683e+07

>  <Rbt.Current_Directory>
/home/itssahil/PROJECTS/Mol_Feturizer/New_Systems/rnas/2fd0

>  <Rbt.Executable>
rbdock ($Id: //depot/dev/client3/rdock/2013.1/src/exe/rbdock.cxx#4 $)

>  <Rbt.Library>
libRbt.so (2013.1, Build901 2013/11/27)

>  <Rbt.Parameter_File>
/export/apps/rDock/src/rDock_2013.1_src/data/scripts/dock_solv.prm

>  <Rbt.Receptor>
prm/pocket_docking_4.prm

>  <SCORE>
-19.3943

>  <SCORE.INTER>
-17.1576

>  <SCORE.INTER.CONST>
1

>  <SCORE.INTER.POLAR>
-0.950937

>  <SCORE.INTER.ROT>
12

>  <SCORE.INTER.SOLV>
15.7179

>  <SCORE.INTER.VDW>
-25.1079

>  <SCORE.INTER.norm>
-0.329953

>  <SCORE.INTRA>
-2.23677

>  <SCORE.INTRA.DIHEDRAL>
-8.5942

>  <SCORE.INTRA.DIHEDRAL.0>
23.9727

>  <SCORE.INTRA.POLAR>
0

>  <SCORE.INTRA.POLAR.0>
0

>  <SCORE.INTRA.REPUL>
0

>  <SCORE.INTRA.REPUL.0>
0

>  <SCORE.INTRA.SOLV>
-0.164536

>  <SCORE.INTRA.SOLV.lig_0>
-115.028

>  <SCORE.INTRA.VDW>
2.1426

>  <SCORE.INTRA.VDW.0>
-6.82393

>  <SCORE.INTRA.norm>
-0.0430148

>  <SCORE.RESTR>
0

>  <SCORE.RESTR.CAVITY>
0

>  <SCORE.RESTR.norm>
0

>  <SCORE.SYSTEM>
0

>  <SCORE.SYSTEM.CONST>
0

>  <SCORE.SYSTEM.DIHEDRAL>
0

>  <SCORE.SYSTEM.SOLV>
0

>  <SCORE.SYSTEM.norm>
0

>  <SCORE.heavy>
52

>  <SCORE.norm>
-0.372968

>  <RMSD>
4.089

$$$$
2fd0_lig
 OpenBabel11021811433D
libRbt.so/2013.1/901 2013/11/27
 52 56  0  0  0  0  0  0  0  0999 V2000
    5.7767  -45.4164   12.9783 C   0  0  2  0  0  0  0  0  0  0  0  0
    6.2426  -46.7727   12.9605 O   0  0  0  0  0  0  0  0  0  0  0  0
    8.0089  -49.6892   15.6562 C   0  0  2  0  0  0  0  0  0  0  0  0
    8.2996  -50.4789   16.8641 N   0  0  0  0  0  0  0  0  0  0  0  0
    4.2054  -48.4124   12.5634 C   0  0  1  0  0  0  0  0  0  0  0  0
    2.3713  -49.0314    8.8117 C   0  0  1  0  0  0  0  0  0  0  0  0
   -1.6197  -50.2070    5.4858 C   0  0  1  0  0  0  0  0  0  0  0  0
    5.2211  -45.0599   11.5515 C   0  0  2  0  0  0  0  0  0  0  0  0
    4.1664  -45.9740   11.1361 N   0  0  0  0  0  0  0  0  0  0  0  0
    8.2222  -48.1388   15.9456 C   0  0  0  0  0  0  0  0  0  0  0  0
    3.6122  -49.3638   11.5404 C   0  0  2  0  0  0  0  0  0  0  0  0
    4.5256  -49.6284   10.4387 O   0  0  0  0  0  0  0  0  0  0  0  0
    1.9277  -48.2115    7.5116 C   0  0  2  0  0  0  0  0  0  0  0  0
    0.6327  -47.5173    7.7493 N   0  0  0  0  0  0  0  0  0  0  0  0
   -2.5754  -49.1984    6.1618 C   0  0  1  0  0  0  0  0  0  0  0  0
   -2.1470  -47.8524    5.8384 O   0  0  0  0  0  0  0  0  0  0  0  0
    6.3926  -45.0212   10.5015 C   0  0  0  0  0  0  0  0  0  0  0  0
    7.9159  -47.2820   14.6260 C   0  0  2  0  0  0  0  0  0  0  0  0
    8.1031  -45.8437   14.8674 N   0  0  0  0  0  0  0  0  0  0  0  0
    2.2997  -48.6925   11.1729 C   0  0  2  0  0  0  0  0  0  0  0  0
    2.3496  -48.1380    9.8865 O   0  0  0  0  0  0  0  0  0  0  0  0
    1.9481  -49.2385    6.2642 C   0  0  1  0  0  0  0  0  0  0  0  0
    3.2689  -49.8031    6.1755 O   0  0  0  0  0  0  0  0  0  0  0  0
   -4.0883  -49.3152    5.8323 C   0  0  1  0  0  0  0  0  0  0  0  0
   -4.3705  -48.4357    4.7363 O   0  0  0  0  0  0  0  0  0  0  0  0
    7.4792  -44.0167   11.0065 C   0  0  2  0  0  0  0  0  0  0  0  0
    8.5514  -43.9387   10.0724 O   0  0  0  0  0  0  0  0  0  0  0  0
    6.4583  -47.5612   14.1642 C   0  0  2  0  0  0  0  0  0  0  0  0
    2.0727  -47.4938   12.1248 C   0  0  2  0  0  0  0  0  0  0  0  0
    3.1255  -47.6450   13.0662 O   0  0  0  0  0  0  0  0  0  0  0  0
    0.9331  -50.4771    6.4871 C   0  0  2  0  0  0  0  0  0  0  0  0
   -0.3704  -49.8685    6.5522 O   0  0  0  0  0  0  0  0  0  0  0  0
   -4.5998  -50.7308    5.4789 C   0  0  2  0  0  0  0  0  0  0  0  0
   -5.8780  -50.8615    6.1389 O   0  0  0  0  0  0  0  0  0  0  0  0
    8.0145  -44.4857   12.3897 C   0  0  2  0  0  0  0  0  0  0  0  0
    6.8751  -44.5370   13.3325 O   0  0  0  0  0  0  0  0  0  0  0  0
    6.1815  -49.0765   13.9224 C   0  0  2  0  0  0  0  0  0  0  0  0
    4.7906  -49.2101   13.5433 O   0  0  0  0  0  0  0  0  0  0  0  0
    0.7485  -47.5094   12.8802 C   0  0  0  0  0  0  0  0  0  0  0  0
    0.4416  -46.1485   13.2194 O   0  0  0  0  0  0  0  0  0  0  0  0
    1.2711  -51.0423    7.8538 C   0  0  1  0  0  0  0  0  0  0  0  0
    1.4605  -50.2506    9.0452 O   0  0  0  0  0  0  0  0  0  0  0  0
   -3.5885  -51.7976    5.8900 C   0  0  2  0  0  0  0  0  0  0  0  0
   -2.2326  -51.5659    5.4174 O   0  0  0  0  0  0  0  0  0  0  0  0
    9.0351  -43.5446   12.9463 C   0  0  0  0  0  0  0  0  0  0  0  0
   10.1051  -43.4811   12.0426 O   0  0  0  0  0  0  0  0  0  0  0  0
    6.5021  -49.8987   15.2239 C   0  0  1  0  0  0  0  0  0  0  0  0
    6.2798  -51.3239   14.9429 O   0  0  0  0  0  0  0  0  0  0  0  0
    0.3484  -52.2409    8.2735 C   0  0  0  0  0  0  0  0  0  0  0  0
    0.5709  -53.4707    7.4751 N   0  0  0  0  0  0  0  0  0  0  0  0
   -3.8377  -53.2844    5.6469 C   0  0  0  0  0  0  0  0  0  0  0  0
   -3.8598  -53.5685    4.2139 O   0  0  0  0  0  0  0  0  0  0  0  0
  1  2  1  6  0  0  0
  1  8  1  0  0  0  0
  1 36  1  0  0  0  0
  3  4  1  1  0  0  0
  3 10  1  0  0  0  0
  3 47  1  0  0  0  0
  5 11  1  0  0  0  0
  5 30  1  0  0  0  0
  5 38  1  1  0  0  0
  6 21  1  1  0  0  0
  6 42  1  0  0  0  0
  7 15  1  0  0  0  0
  7 44  1  0  0  0  0
  7 32  1  1  0  0  0
  8  9  1  6  0  0  0
  8 17  1  0  0  0  0
 11 12  1  6  0  0  0
 11 20  1  0  0  0  0
 13  6  1  0  0  0  0
 13 14  1  1  0  0  0
 15 16  1  6  0  0  0
 15 24  1  0  0  0  0
 17 26  1  0  0  0  0
 18 10  1  0  0  0  0
 18 19  1  1  0  0  0
 20 21  1  6  0  0  0
 20 29  1  0  0  0  0
 22 13  1  0  0  0  0
 22 23  1  1  0  0  0
 24 25  1  6  0  0  0
 24 33  1  0  0  0  0
 26 27  1  6  0  0  0
 26 35  1  0  0  0  0
 28  2  1  6  0  0  0
 28 18  1  0  0  0  0
 29 30  1  0  0  0  0
 29 39  1  1  0  0  0
 31 22  1  0  0  0  0
 31 32  1  1  0  0  0
 31 41  1  0  0  0  0
 33 34  1  1  0  0  0
 33 43  1  0  0  0  0
 35 36  1  0  0  0  0
 35 45  1  1  0  0  0
 37 28  1  0  0  0  0
 37 38  1  1  0  0  0
 39 40  1  0  0  0  0
 41 42  1  0  0  0  0
 41 49  1  1  0  0  0
 43 44  1  0  0  0  0
 43 51  1  6  0  0  0
 45 46  1  0  0  0  0
 47 37  1  0  0  0  0
 47 48  1  6  0  0  0
 49 50  1  0  0  0  0
 51 52  1  0  0  0  0
M  END
>  <CHROM.1>
-161.58780817,124.57380211,161.01368472,-178.65410085,70.58175070,-88.05287711
-155.31152354,119.44064591,-59.99549826,48.48027083,69.06713462,66.07581787
2.80529939,-48.49509843,10.17170581,-0.06175188,-0.72460455,-0.58841748

>  <Name>
2fd0_lig

>  <RI>
2.89522e+07

>  <Rbt.Current_Directory>
/home/itssahil/PROJECTS/Mol_Feturizer/New_Systems/rnas/2fd0

>  <Rbt.Executable>
rbdock ($Id: //depot/dev/client3/rdock/2013.1/src/exe/rbdock.cxx#4 $)

>  <Rbt.Library>
libRbt.so (2013.1, Build901 2013/11/27)

>  <Rbt.Parameter_File>
/export/apps/rDock/src/rDock_2013.1_src/data/scripts/dock_solv.prm

>  <Rbt.Receptor>
prm/pocket_docking_2.prm

>  <SCORE>
6.64639

>  <SCORE.INTER>
-4.7721

>  <SCORE.INTER.CONST>
1

>  <SCORE.INTER.POLAR>
-0.701686

>  <SCORE.INTER.ROT>
12

>  <SCORE.INTER.SOLV>
10.2878

>  <SCORE.INTER.VDW>
-15.8717

>  <SCORE.INTER.norm>
-0.0917711

>  <SCORE.INTRA>
8.98014

>  <SCORE.INTRA.DIHEDRAL>
1.20932

>  <SCORE.INTRA.DIHEDRAL.0>
23.9727

>  <SCORE.INTRA.POLAR>
0

>  <SCORE.INTRA.POLAR.0>
0

>  <SCORE.INTRA.REPUL>
0.34082

>  <SCORE.INTRA.REPUL.0>
0

>  <SCORE.INTRA.SOLV>
5.62594

>  <SCORE.INTRA.SOLV.lig_0>
-115.028

>  <SCORE.INTRA.VDW>
3.85841

>  <SCORE.INTRA.VDW.0>
-6.82393

>  <SCORE.INTRA.norm>
0.172695

>  <SCORE.RESTR>
2.43835

>  <SCORE.RESTR.CAVITY>
2.43835

>  <SCORE.RESTR.norm>
0.0468914

>  <SCORE.SYSTEM>
0

>  <SCORE.SYSTEM.CONST>
0

>  <SCORE.SYSTEM.DIHEDRAL>
0

>  <SCORE.SYSTEM.SOLV>
0

>  <SCORE.SYSTEM.norm>
0

>  <SCORE.heavy>
52

>  <SCORE.norm>
0.127815

>  <RMSD>
4.095

$$$$
2fd0_lig
 OpenBabel11021811433D
libRbt.so/2013.1/901 2013/11/27
 52 56  0  0  0  0  0  0  0  0999 V2000
    6.0147  -44.9238   12.2834 C   0  0  2  0  0  0  0  0  0  0  0  0
    6.1814  -46.3465   12.3544 O   0  0  0  0  0  0  0  0  0  0  0  0
    5.2785  -49.8409   14.7765 C   0  0  2  0  0  0  0  0  0  0  0  0
    4.9420  -50.6931   15.9286 N   0  0  0  0  0  0  0  0  0  0  0  0
    2.2534  -47.1748   12.3601 C   0  0  1  0  0  0  0  0  0  0  0  0
    0.8130  -49.8034    9.0227 C   0  0  1  0  0  0  0  0  0  0  0  0
   -2.9518  -51.4079    5.7541 C   0  0  1  0  0  0  0  0  0  0  0  0
    6.2738  -44.4633   10.8027 C   0  0  2  0  0  0  0  0  0  0  0  0
    5.3960  -45.1444    9.8613 N   0  0  0  0  0  0  0  0  0  0  0  0
    6.6115  -49.0211   15.0667 C   0  0  0  0  0  0  0  0  0  0  0  0
    2.6399  -48.1255   11.2419 C   0  0  2  0  0  0  0  0  0  0  0  0
    2.9289  -47.4262    9.9986 O   0  0  0  0  0  0  0  0  0  0  0  0
    0.1153  -49.1497    7.7400 C   0  0  2  0  0  0  0  0  0  0  0  0
   -1.2804  -48.7410    8.0568 N   0  0  0  0  0  0  0  0  0  0  0  0
   -3.9901  -50.5517    6.5135 C   0  0  1  0  0  0  0  0  0  0  0  0
   -3.5525  -49.1703    6.5151 O   0  0  0  0  0  0  0  0  0  0  0  0
    7.7877  -44.6646   10.4234 C   0  0  0  0  0  0  0  0  0  0  0  0
    6.9820  -48.1024   13.8066 C   0  0  2  0  0  0  0  0  0  0  0  0
    8.2100  -47.3313   14.0502 N   0  0  0  0  0  0  0  0  0  0  0  0
    1.4737  -49.0987   11.2049 C   0  0  2  0  0  0  0  0  0  0  0  0
    0.6704  -48.8941   10.0746 O   0  0  0  0  0  0  0  0  0  0  0  0
    0.2739  -50.1965    6.5194 C   0  0  1  0  0  0  0  0  0  0  0  0
    1.6767  -50.4673    6.3462 O   0  0  0  0  0  0  0  0  0  0  0  0
   -5.4577  -50.5920    6.0078 C   0  0  1  0  0  0  0  0  0  0  0  0
   -5.6373  -49.5081    5.0875 O   0  0  0  0  0  0  0  0  0  0  0  0
    8.6669  -43.9014   11.4671 C   0  0  2  0  0  0  0  0  0  0  0  0
   10.0475  -44.0441   11.1477 O   0  0  0  0  0  0  0  0  0  0  0  0
    5.7970  -47.1411   13.5110 C   0  0  2  0  0  0  0  0  0  0  0  0
    0.5531  -48.8150   12.4159 C   0  0  2  0  0  0  0  0  0  0  0  0
    1.3024  -47.8613   13.1551 O   0  0  0  0  0  0  0  0  0  0  0  0
   -0.4307  -51.6145    6.8465 C   0  0  2  0  0  0  0  0  0  0  0  0
   -1.8277  -51.2979    6.9938 O   0  0  0  0  0  0  0  0  0  0  0  0
   -5.9055  -51.9046    5.3244 C   0  0  2  0  0  0  0  0  0  0  0  0
   -7.2438  -52.1594    5.8045 O   0  0  0  0  0  0  0  0  0  0  0  0
    8.3907  -44.4679   12.8892 C   0  0  2  0  0  0  0  0  0  0  0  0
    6.9529  -44.2856   13.1877 O   0  0  0  0  0  0  0  0  0  0  0  0
    4.4524  -47.8948   13.2761 C   0  0  2  0  0  0  0  0  0  0  0  0
    3.4262  -46.8971   13.0575 O   0  0  0  0  0  0  0  0  0  0  0  0
    0.2820  -50.0144   13.3173 C   0  0  0  0  0  0  0  0  0  0  0  0
   -0.4203  -50.9850   12.5262 O   0  0  0  0  0  0  0  0  0  0  0  0
    0.1134  -52.0397    8.1973 C   0  0  1  0  0  0  0  0  0  0  0  0
    0.2063  -51.1797    9.3522 O   0  0  0  0  0  0  0  0  0  0  0  0
   -4.9256  -53.0374    5.6178 C   0  0  2  0  0  0  0  0  0  0  0  0
   -3.5315  -52.7220    5.3489 O   0  0  0  0  0  0  0  0  0  0  0  0
    9.1773  -43.7534   13.9418 C   0  0  0  0  0  0  0  0  0  0  0  0
   10.4636  -44.3100   13.9748 O   0  0  0  0  0  0  0  0  0  0  0  0
    4.1164  -48.8000   14.5171 C   0  0  1  0  0  0  0  0  0  0  0  0
    2.8731  -49.5322   14.2385 O   0  0  0  0  0  0  0  0  0  0  0  0
   -0.4968  -53.3911    8.7128 C   0  0  0  0  0  0  0  0  0  0  0  0
    0.1123  -53.8754    9.9753 N   0  0  0  0  0  0  0  0  0  0  0  0
   -5.1231  -54.4434    5.0554 C   0  0  0  0  0  0  0  0  0  0  0  0
   -6.4359  -54.9619    5.4324 O   0  0  0  0  0  0  0  0  0  0  0  0
  1  2  1  6  0  0  0
  1  8  1  0  0  0  0
  1 36  1  0  0  0  0
  3  4  1  1  0  0  0
  3 10  1  0  0  0  0
  3 47  1  0  0  0  0
  5 11  1  0  0  0  0
  5 30  1  0  0  0  0
  5 38  1  1  0  0  0
  6 21  1  1  0  0  0
  6 42  1  0  0  0  0
  7 15  1  0  0  0  0
  7 44  1  0  0  0  0
  7 32  1  1  0  0  0
  8  9  1  6  0  0  0
  8 17  1  0  0  0  0
 11 12  1  6  0  0  0
 11 20  1  0  0  0  0
 13  6  1  0  0  0  0
 13 14  1  1  0  0  0
 15 16  1  6  0  0  0
 15 24  1  0  0  0  0
 17 26  1  0  0  0  0
 18 10  1  0  0  0  0
 18 19  1  1  0  0  0
 20 21  1  6  0  0  0
 20 29  1  0  0  0  0
 22 13  1  0  0  0  0
 22 23  1  1  0  0  0
 24 25  1  6  0  0  0
 24 33  1  0  0  0  0
 26 27  1  6  0  0  0
 26 35  1  0  0  0  0
 28  2  1  6  0  0  0
 28 18  1  0  0  0  0
 29 30  1  0  0  0  0
 29 39  1  1  0  0  0
 31 22  1  0  0  0  0
 31 32  1  1  0  0  0
 31 41  1  0  0  0  0
 33 34  1  1  0  0  0
 33 43  1  0  0  0  0
 35 36  1  0  0  0  0
 35 45  1  1  0  0  0
 37 28  1  0  0  0  0
 37 38  1  1  0  0  0
 39 40  1  0  0  0  0
 41 42  1  0  0  0  0
 41 49  1  1  0  0  0
 43 44  1  0  0  0  0
 43 51  1  6  0  0  0
 45 46  1  0  0  0  0
 47 37  1  0  0  0  0
 47 48  1  6  0  0  0
 49 50  1  0  0  0  0
 51 52  1  0  0  0  0
M  END
>  <CHROM.1>
-169.05607946,-36.68364675,-165.02826521,-164.07300844,103.29824506,-133.78732298
-63.33668907,94.26446709,-82.62019617,156.20975776,175.02828421,-55.70496312
1.77505112,-48.97084981,10.19215078,-0.15713180,-0.66948757,-0.97879457

>  <Name>
2fd0_lig

>  <RI>
2.89522e+07

>  <Rbt.Current_Directory>
/home/itssahil/PROJECTS/Mol_Feturizer/New_Systems/rnas/2fd0

>  <Rbt.Executable>
rbdock ($Id: //depot/dev/client3/rdock/2013.1/src/exe/rbdock.cxx#4 $)

>  <Rbt.Library>
libRbt.so (2013.1, Build901 2013/11/27)

>  <Rbt.Parameter_File>
/export/apps/rDock/src/rDock_2013.1_src/data/scripts/dock_solv.prm

>  <Rbt.Receptor>
prm/pocket_docking_2.prm

>  <SCORE>
8.56601

>  <SCORE.INTER>
2.14825

>  <SCORE.INTER.CONST>
1

>  <SCORE.INTER.POLAR>
-0.707535

>  <SCORE.INTER.ROT>
12

>  <SCORE.INTER.SOLV>
18.718

>  <SCORE.INTER.VDW>
-14.0487

>  <SCORE.INTER.norm>
0.0413126

>  <SCORE.INTRA>
3.92119

>  <SCORE.INTRA.DIHEDRAL>
3.44553

>  <SCORE.INTRA.DIHEDRAL.0>
23.9727

>  <SCORE.INTRA.POLAR>
0

>  <SCORE.INTRA.POLAR.0>
0

>  <SCORE.INTRA.REPUL>
0.00823232

>  <SCORE.INTRA.REPUL.0>
0

>  <SCORE.INTRA.SOLV>
1.42785

>  <SCORE.INTRA.SOLV.lig_0>
-115.028

>  <SCORE.INTRA.VDW>
1.44334

>  <SCORE.INTRA.VDW.0>
-6.82393

>  <SCORE.INTRA.norm>
0.0754075

>  <SCORE.RESTR>
2.49656

>  <SCORE.RESTR.CAVITY>
2.49656

>  <SCORE.RESTR.norm>
0.0480109

>  <SCORE.SYSTEM>
0

>  <SCORE.SYSTEM.CONST>
0

>  <SCORE.SYSTEM.DIHEDRAL>
0

>  <SCORE.SYSTEM.SOLV>
0

>  <SCORE.SYSTEM.norm>
0

>  <SCORE.heavy>
52

>  <SCORE.norm>
0.164731

>  <RMSD>
4.128

$$$$
2fd0_lig
 OpenBabel11021811433D
libRbt.so/2013.1/901 2013/11/27
 52 56  0  0  0  0  0  0  0  0999 V2000
    5.9033  -44.7272   13.5177 C   0  0  2  0  0  0  0  0  0  0  0  0
    5.7782  -46.1369   13.2850 O   0  0  0  0  0  0  0  0  0  0  0  0
    5.8761  -49.9317   15.4022 C   0  0  2  0  0  0  0  0  0  0  0  0
    5.7442  -50.9432   16.4636 N   0  0  0  0  0  0  0  0  0  0  0  0
    2.5048  -47.9791   12.5872 C   0  0  1  0  0  0  0  0  0  0  0  0
    1.8417  -49.5929    8.4751 C   0  0  1  0  0  0  0  0  0  0  0  0
   -2.0448  -49.3999    5.1039 C   0  0  1  0  0  0  0  0  0  0  0  0
    5.6173  -43.9707   12.1696 C   0  0  2  0  0  0  0  0  0  0  0  0
    4.3059  -44.3013   11.6296 N   0  0  0  0  0  0  0  0  0  0  0  0
    6.8372  -48.7553   15.8769 C   0  0  0  0  0  0  0  0  0  0  0  0
    3.3371  -47.7613   11.3369 C   0  0  2  0  0  0  0  0  0  0  0  0
    3.1052  -46.4540   10.7408 O   0  0  0  0  0  0  0  0  0  0  0  0
    1.5567  -48.8710    7.0761 C   0  0  2  0  0  0  0  0  0  0  0  0
    0.5448  -47.7923    7.2423 N   0  0  0  0  0  0  0  0  0  0  0  0
   -2.6889  -48.1973    5.8296 C   0  0  1  0  0  0  0  0  0  0  0  0
   -1.6827  -47.1745    6.0330 O   0  0  0  0  0  0  0  0  0  0  0  0
    6.7576  -44.2626   11.1251 C   0  0  0  0  0  0  0  0  0  0  0  0
    6.9882  -47.6608   14.7155 C   0  0  2  0  0  0  0  0  0  0  0  0
    7.8704  -46.5601   15.1302 N   0  0  0  0  0  0  0  0  0  0  0  0
    2.9779  -48.9608   10.4762 C   0  0  2  0  0  0  0  0  0  0  0  0
    2.1672  -48.5913    9.3940 O   0  0  0  0  0  0  0  0  0  0  0  0
    1.1773  -50.0228    6.0082 C   0  0  1  0  0  0  0  0  0  0  0  0
    2.2635  -50.9659    5.9676 O   0  0  0  0  0  0  0  0  0  0  0  0
   -3.9221  -47.5339    5.1586 C   0  0  1  0  0  0  0  0  0  0  0  0
   -3.4532  -46.4483    4.3487 O   0  0  0  0  0  0  0  0  0  0  0  0
    8.1300  -43.8767   11.7672 C   0  0  2  0  0  0  0  0  0  0  0  0
    9.1894  -44.1096   10.8444 O   0  0  0  0  0  0  0  0  0  0  0  0
    5.5819  -47.1098   14.3490 C   0  0  2  0  0  0  0  0  0  0  0  0
    2.1169  -49.9336   11.3168 C   0  0  2  0  0  0  0  0  0  0  0  0
    2.1801  -49.3582   12.6139 O   0  0  0  0  0  0  0  0  0  0  0  0
   -0.1352  -50.8528    6.4583 C   0  0  2  0  0  0  0  0  0  0  0  0
   -1.1939  -49.8768    6.4681 O   0  0  0  0  0  0  0  0  0  0  0  0
   -4.8028  -48.4599    4.2884 C   0  0  2  0  0  0  0  0  0  0  0  0
   -6.1682  -48.0910    4.5819 O   0  0  0  0  0  0  0  0  0  0  0  0
    8.3540  -44.7198   13.0551 C   0  0  2  0  0  0  0  0  0  0  0  0
    7.2437  -44.4368   13.9913 O   0  0  0  0  0  0  0  0  0  0  0  0
    4.5836  -48.2324   13.9315 C   0  0  2  0  0  0  0  0  0  0  0  0
    3.3085  -47.6027   13.6602 O   0  0  0  0  0  0  0  0  0  0  0  0
    2.6473  -51.3606   11.3993 C   0  0  0  0  0  0  0  0  0  0  0  0
    2.5998  -51.9046   10.0715 O   0  0  0  0  0  0  0  0  0  0  0  0
    0.1290  -51.2933    7.8858 C   0  0  1  0  0  0  0  0  0  0  0  0
    0.6351  -50.4346    8.9292 O   0  0  0  0  0  0  0  0  0  0  0  0
   -4.4942  -49.9288    4.5652 C   0  0  2  0  0  0  0  0  0  0  0  0
   -3.0845  -50.2791    4.4932 O   0  0  0  0  0  0  0  0  0  0  0  0
    9.6378  -44.3716   13.7390 C   0  0  0  0  0  0  0  0  0  0  0  0
   10.6899  -44.9211   12.9929 O   0  0  0  0  0  0  0  0  0  0  0  0
    4.4623  -49.3014   15.0783 C   0  0  1  0  0  0  0  0  0  0  0  0
    3.5559  -50.3675   14.6295 O   0  0  0  0  0  0  0  0  0  0  0  0
   -1.0683  -52.0854    8.5209 C   0  0  0  0  0  0  0  0  0  0  0  0
   -0.8207  -52.5189    9.9173 N   0  0  0  0  0  0  0  0  0  0  0  0
   -5.2149  -51.0584    3.8327 C   0  0  0  0  0  0  0  0  0  0  0  0
   -4.9122  -51.0123    2.4042 O   0  0  0  0  0  0  0  0  0  0  0  0
  1  2  1  6  0  0  0
  1  8  1  0  0  0  0
  1 36  1  0  0  0  0
  3  4  1  1  0  0  0
  3 10  1  0  0  0  0
  3 47  1  0  0  0  0
  5 11  1  0  0  0  0
  5 30  1  0  0  0  0
  5 38  1  1  0  0  0
  6 21  1  1  0  0  0
  6 42  1  0  0  0  0
  7 15  1  0  0  0  0
  7 44  1  0  0  0  0
  7 32  1  1  0  0  0
  8  9  1  6  0  0  0
  8 17  1  0  0  0  0
 11 12  1  6  0  0  0
 11 20  1  0  0  0  0
 13  6  1  0  0  0  0
 13 14  1  1  0  0  0
 15 16  1  6  0  0  0
 15 24  1  0  0  0  0
 17 26  1  0  0  0  0
 18 10  1  0  0  0  0
 18 19  1  1  0  0  0
 20 21  1  6  0  0  0
 20 29  1  0  0  0  0
 22 13  1  0  0  0  0
 22 23  1  1  0  0  0
 24 25  1  6  0  0  0
 24 33  1  0  0  0  0
 26 27  1  6  0  0  0
 26 35  1  0  0  0  0
 28  2  1  6  0  0  0
 28 18  1  0  0  0  0
 29 30  1  0  0  0  0
 29 39  1  1  0  0  0
 31 22  1  0  0  0  0
 31 32  1  1  0  0  0
 31 41  1  0  0  0  0
 33 34  1  1  0  0  0
 33 43  1  0  0  0  0
 35 36  1  0  0  0  0
 35 45  1  1  0  0  0
 37 28  1  0  0  0  0
 37 38  1  1  0  0  0
 39 40  1  0  0  0  0
 41 42  1  0  0  0  0
 41 49  1  1  0  0  0
 43 44  1  0  0  0  0
 43 51  1  6  0  0  0
 45 46  1  0  0  0  0
 47 37  1  0  0  0  0
 47 48  1  6  0  0  0
 49 50  1  0  0  0  0
 51 52  1  0  0  0  0
M  END
>  <CHROM.1>
-161.17613898,-59.16357030,-153.73605417,-167.84612313,175.81940924,-95.24208047
-64.68976066,82.75904021,-74.43650354,139.15987039,-179.91613671,63.88971363
2.33031070,-48.27927114,9.97687799,-0.19463079,-0.72332914,-0.65193567

>  <Name>
2fd0_lig

>  <RI>
1.29864e+07

>  <Rbt.Current_Directory>
/home/itssahil/PROJECTS/Mol_Feturizer/New_Systems/rnas/2fd0

>  <Rbt.Executable>
rbdock ($Id: //depot/dev/client3/rdock/2013.1/src/exe/rbdock.cxx#4 $)

>  <Rbt.Library>
libRbt.so (2013.1, Build901 2013/11/27)

>  <Rbt.Parameter_File>
/export/apps/rDock/src/rDock_2013.1_src/data/scripts/dock_solv.prm

>  <Rbt.Receptor>
prm/pocket_docking_3.prm

>  <SCORE>
2.80462

>  <SCORE.INTER>
0.391713

>  <SCORE.INTER.CONST>
1

>  <SCORE.INTER.POLAR>
0

>  <SCORE.INTER.ROT>
12

>  <SCORE.INTER.SOLV>
10.0819

>  <SCORE.INTER.VDW>
-14.6995

>  <SCORE.INTER.norm>
0.00753294

>  <SCORE.INTRA>
2.33001

>  <SCORE.INTRA.DIHEDRAL>
-3.89346

>  <SCORE.INTRA.DIHEDRAL.0>
23.9727

>  <SCORE.INTRA.POLAR>
0

>  <SCORE.INTRA.POLAR.0>
0

>  <SCORE.INTRA.REPUL>
0.0317172

>  <SCORE.INTRA.REPUL.0>
0

>  <SCORE.INTRA.SOLV>
5.46923

>  <SCORE.INTRA.SOLV.lig_0>
-115.028

>  <SCORE.INTRA.VDW>
1.38354

>  <SCORE.INTRA.VDW.0>
-6.82393

>  <SCORE.INTRA.norm>
0.0448078

>  <SCORE.RESTR>
0.0828964

>  <SCORE.RESTR.CAVITY>
0.0828964

>  <SCORE.RESTR.norm>
0.00159416

>  <SCORE.SYSTEM>
0

>  <SCORE.SYSTEM.CONST>
0

>  <SCORE.SYSTEM.DIHEDRAL>
0

>  <SCORE.SYSTEM.SOLV>
0

>  <SCORE.SYSTEM.norm>
0

>  <SCORE.heavy>
52

>  <SCORE.norm>
0.0539349

>  <RMSD>
4.210

$$$$
2fd0_lig
 OpenBabel11021811433D
libRbt.so/2013.1/901 2013/11/27
 52 56  0  0  0  0  0  0  0  0999 V2000
    7.7604  -49.2963   16.9476 C   0  0  2  0  0  0  0  0  0  0  0  0
    6.5967  -48.4590   16.9890 O   0  0  0  0  0  0  0  0  0  0  0  0
    5.0422  -45.2929   14.4490 C   0  0  2  0  0  0  0  0  0  0  0  0
    4.5248  -44.5706   13.2753 N   0  0  0  0  0  0  0  0  0  0  0  0
    3.4648  -49.3845   15.4683 C   0  0  1  0  0  0  0  0  0  0  0  0
    0.4624  -50.0727   12.4882 C   0  0  1  0  0  0  0  0  0  0  0  0
   -1.7016  -51.4936    8.0729 C   0  0  1  0  0  0  0  0  0  0  0  0
    7.3930  -50.6262   16.1941 C   0  0  2  0  0  0  0  0  0  0  0  0
    6.8818  -50.3676   14.8552 N   0  0  0  0  0  0  0  0  0  0  0  0
    6.4764  -45.9057   14.1322 C   0  0  0  0  0  0  0  0  0  0  0  0
    2.2719  -48.8800   14.6770 C   0  0  2  0  0  0  0  0  0  0  0  0
    1.0082  -49.3514   15.2237 O   0  0  0  0  0  0  0  0  0  0  0  0
   -0.3712  -51.4380   12.5135 C   0  0  2  0  0  0  0  0  0  0  0  0
    0.3022  -52.4758   11.6859 N   0  0  0  0  0  0  0  0  0  0  0  0
   -3.2346  -51.6391    8.2015 C   0  0  1  0  0  0  0  0  0  0  0  0
   -3.7920  -50.3804    8.6542 O   0  0  0  0  0  0  0  0  0  0  0  0
    6.3740  -51.4731   17.0431 C   0  0  0  0  0  0  0  0  0  0  0  0
    7.0425  -46.6823   15.4151 C   0  0  2  0  0  0  0  0  0  0  0  0
    8.3673  -47.2611   15.1477 N   0  0  0  0  0  0  0  0  0  0  0  0
    2.5926  -49.3226   13.2594 C   0  0  2  0  0  0  0  0  0  0  0  0
    1.7737  -50.3866   12.8565 O   0  0  0  0  0  0  0  0  0  0  0  0
   -1.8888  -51.0838   12.0865 C   0  0  1  0  0  0  0  0  0  0  0  0
   -2.3828  -50.0816   12.9934 O   0  0  0  0  0  0  0  0  0  0  0  0
   -4.0190  -52.0872    6.9386 C   0  0  1  0  0  0  0  0  0  0  0  0
   -4.4596  -50.9091    6.2515 O   0  0  0  0  0  0  0  0  0  0  0  0
    6.9908  -51.7191   18.4586 C   0  0  2  0  0  0  0  0  0  0  0  0
    6.1045  -52.5001   19.2541 O   0  0  0  0  0  0  0  0  0  0  0  0
    6.0412  -47.8013   15.8160 C   0  0  2  0  0  0  0  0  0  0  0  0
    4.0342  -49.8842   13.2299 C   0  0  2  0  0  0  0  0  0  0  0  0
    4.5109  -49.5765   14.5320 O   0  0  0  0  0  0  0  0  0  0  0  0
   -1.9630  -50.4398   10.6053 C   0  0  2  0  0  0  0  0  0  0  0  0
   -1.4777  -51.4792    9.7349 O   0  0  0  0  0  0  0  0  0  0  0  0
   -3.2490  -52.9853    5.9431 C   0  0  2  0  0  0  0  0  0  0  0  0
   -4.1914  -53.9928    5.5149 O   0  0  0  0  0  0  0  0  0  0  0  0
    7.2591  -50.3521   19.1508 C   0  0  2  0  0  0  0  0  0  0  0  0
    8.1945  -49.5808   18.3026 O   0  0  0  0  0  0  0  0  0  0  0  0
    4.6038  -47.2586   16.0815 C   0  0  2  0  0  0  0  0  0  0  0  0
    3.7618  -48.3926   16.3994 O   0  0  0  0  0  0  0  0  0  0  0  0
    4.9626  -49.2299   12.2127 C   0  0  0  0  0  0  0  0  0  0  0  0
    4.5234  -49.6490   10.9117 O   0  0  0  0  0  0  0  0  0  0  0  0
   -0.9605  -49.3011   10.6036 C   0  0  1  0  0  0  0  0  0  0  0  0
    0.3882  -49.3945   11.1079 O   0  0  0  0  0  0  0  0  0  0  0  0
   -1.9896  -53.5608    6.5851 C   0  0  2  0  0  0  0  0  0  0  0  0
   -1.1279  -52.5784    7.2237 O   0  0  0  0  0  0  0  0  0  0  0  0
    7.8846  -50.5178   20.4993 C   0  0  0  0  0  0  0  0  0  0  0  0
    7.9083  -49.2627   21.1237 O   0  0  0  0  0  0  0  0  0  0  0  0
    4.0747  -46.4888   14.8165 C   0  0  1  0  0  0  0  0  0  0  0  0
    2.7425  -45.9487   15.1214 O   0  0  0  0  0  0  0  0  0  0  0  0
   -0.8540  -48.5722    9.2173 C   0  0  0  0  0  0  0  0  0  0  0  0
   -0.0175  -47.3482    9.2518 N   0  0  0  0  0  0  0  0  0  0  0  0
   -1.0370  -54.4757    5.8186 C   0  0  0  0  0  0  0  0  0  0  0  0
   -0.4993  -53.7845    4.6492 O   0  0  0  0  0  0  0  0  0  0  0  0
  1  2  1  1  0  0  0
  1  8  1  0  0  0  0
  1 36  1  0  0  0  0
  3  4  1  6  0  0  0
  3 10  1  0  0  0  0
  3 47  1  0  0  0  0
  5 11  1  0  0  0  0
  5 30  1  0  0  0  0
  5 38  1  1  0  0  0
  6 21  1  6  0  0  0
  6 42  1  0  0  0  0
  7 15  1  0  0  0  0
  7 44  1  0  0  0  0
  7 32  1  1  0  0  0
  8  9  1  6  0  0  0
  8 17  1  0  0  0  0
 11 12  1  1  0  0  0
 11 20  1  0  0  0  0
 13  6  1  0  0  0  0
 13 14  1  6  0  0  0
 15 16  1  6  0  0  0
 15 24  1  0  0  0  0
 17 26  1  0  0  0  0
 18 10  1  0  0  0  0
 18 19  1  6  0  0  0
 20 21  1  1  0  0  0
 20 29  1  0  0  0  0
 22 13  1  0  0  0  0
 22 23  1  1  0  0  0
 24 25  1  6  0  0  0
 24 33  1  0  0  0  0
 26 27  1  1  0  0  0
 26 35  1  0  0  0  0
 28  2  1  1  0  0  0
 28 18  1  0  0  0  0
 29 30  1  0  0  0  0
 29 39  1  6  0  0  0
 31 22  1  0  0  0  0
 31 32  1  6  0  0  0
 31 41  1  0  0  0  0
 33 34  1  1  0  0  0
 33 43  1  0  0  0  0
 35 36  1  0  0  0  0
 35 45  1  1  0  0  0
 37 28  1  0  0  0  0
 37 38  1  6  0  0  0
 39 40  1  0  0  0  0
 41 42  1  0  0  0  0
 41 49  1  6  0  0  0
 43 44  1  0  0  0  0
 43 51  1  6  0  0  0
 45 46  1  0  0  0  0
 47 37  1  0  0  0  0
 47 48  1  1  0  0  0
 49 50  1  0  0  0  0
 51 52  1  0  0  0  0
M  END
>  <CHROM.1>
-70.18918635,-85.24060141,-162.94544391,-65.34076920,77.21649439,-70.41183373
-70.70323979,163.81482004,-171.47689719,-66.11548602,172.22066669,60.16949948
2.33899529,-49.92470802,12.83074310,-0.13712443,0.83129245,3.02980219

>  <Name>
2fd0_lig

>  <RI>
2.00683e+07

>  <Rbt.Current_Directory>
/home/itssahil/PROJECTS/Mol_Feturizer/New_Systems/rnas/2fd0

>  <Rbt.Executable>
rbdock ($Id: //depot/dev/client3/rdock/2013.1/src/exe/rbdock.cxx#4 $)

>  <Rbt.Library>
libRbt.so (2013.1, Build901 2013/11/27)

>  <Rbt.Parameter_File>
/export/apps/rDock/src/rDock_2013.1_src/data/scripts/dock_solv.prm

>  <Rbt.Receptor>
prm/pocket_docking_4.prm

>  <SCORE>
-17.8227

>  <SCORE.INTER>
-15.0401

>  <SCORE.INTER.CONST>
1

>  <SCORE.INTER.POLAR>
-1.46059

>  <SCORE.INTER.ROT>
12

>  <SCORE.INTER.SOLV>
16.1985

>  <SCORE.INTER.VDW>
-22.1576

>  <SCORE.INTER.norm>
-0.289233

>  <SCORE.INTRA>
-2.78256

>  <SCORE.INTRA.DIHEDRAL>
-13.538

>  <SCORE.INTRA.DIHEDRAL.0>
23.9727

>  <SCORE.INTRA.POLAR>
0

>  <SCORE.INTRA.POLAR.0>
0

>  <SCORE.INTRA.REPUL>
0.00845208

>  <SCORE.INTRA.REPUL.0>
0

>  <SCORE.INTRA.SOLV>
2.57588

>  <SCORE.INTRA.SOLV.lig_0>
-115.028

>  <SCORE.INTRA.VDW>
2.65624

>  <SCORE.INTRA.VDW.0>
-6.82393

>  <SCORE.INTRA.norm>
-0.0535108

>  <SCORE.RESTR>
0

>  <SCORE.RESTR.CAVITY>
0

>  <SCORE.RESTR.norm>
0

>  <SCORE.SYSTEM>
0

>  <SCORE.SYSTEM.CONST>
0

>  <SCORE.SYSTEM.DIHEDRAL>
0

>  <SCORE.SYSTEM.SOLV>
0

>  <SCORE.SYSTEM.norm>
0

>  <SCORE.heavy>
52

>  <SCORE.norm>
-0.342744

>  <RMSD>
4.213

$$$$
2fd0_lig
 OpenBabel11021811433D
libRbt.so/2013.1/901 2013/11/27
 52 56  0  0  0  0  0  0  0  0999 V2000
    5.9589  -48.6656   15.4685 C   0  0  2  0  0  0  0  0  0  0  0  0
    4.7364  -48.0288   15.8647 O   0  0  0  0  0  0  0  0  0  0  0  0
    0.6050  -48.8381   14.7836 C   0  0  2  0  0  0  0  0  0  0  0  0
   -0.6656  -48.8628   14.0406 N   0  0  0  0  0  0  0  0  0  0  0  0
    4.4439  -49.6994   12.6315 C   0  0  1  0  0  0  0  0  0  0  0  0
    3.5404  -51.0390    8.8565 C   0  0  1  0  0  0  0  0  0  0  0  0
   -0.1678  -52.1014    5.4575 C   0  0  1  0  0  0  0  0  0  0  0  0
    6.8389  -48.8997   16.7501 C   0  0  2  0  0  0  0  0  0  0  0  0
    6.1363  -49.6862   17.7543 N   0  0  0  0  0  0  0  0  0  0  0  0
    1.0523  -47.3365   15.0628 C   0  0  0  0  0  0  0  0  0  0  0  0
    3.5623  -50.5401   11.7262 C   0  0  2  0  0  0  0  0  0  0  0  0
    4.2470  -51.7280   11.2380 O   0  0  0  0  0  0  0  0  0  0  0  0
    3.9190  -50.9034    7.3080 C   0  0  2  0  0  0  0  0  0  0  0  0
    3.1769  -49.7727    6.6866 N   0  0  0  0  0  0  0  0  0  0  0  0
   -0.1875  -50.7585    4.6932 C   0  0  1  0  0  0  0  0  0  0  0  0
    0.6645  -50.8669    3.5261 O   0  0  0  0  0  0  0  0  0  0  0  0
    7.3273  -47.5240   17.3379 C   0  0  0  0  0  0  0  0  0  0  0  0
    2.4301  -47.3122   15.8815 C   0  0  2  0  0  0  0  0  0  0  0  0
    2.8675  -45.9345   16.1506 N   0  0  0  0  0  0  0  0  0  0  0  0
    3.1148  -49.5454   10.6684 C   0  0  2  0  0  0  0  0  0  0  0  0
    3.7449  -49.7852    9.4394 O   0  0  0  0  0  0  0  0  0  0  0  0
    3.6831  -52.3492    6.6261 C   0  0  1  0  0  0  0  0  0  0  0  0
    4.4800  -53.3120    7.3395 O   0  0  0  0  0  0  0  0  0  0  0  0
   -1.5684  -50.2172    4.2336 C   0  0  1  0  0  0  0  0  0  0  0  0
   -1.7977  -50.6732    2.8943 O   0  0  0  0  0  0  0  0  0  0  0  0
    8.0778  -46.7411   16.2116 C   0  0  2  0  0  0  0  0  0  0  0  0
    8.5530  -45.4945   16.7098 O   0  0  0  0  0  0  0  0  0  0  0  0
    3.5181  -48.0697   15.0703 C   0  0  2  0  0  0  0  0  0  0  0  0
    3.5749  -48.1303   11.0929 C   0  0  2  0  0  0  0  0  0  0  0  0
    4.0761  -48.3501   12.4037 O   0  0  0  0  0  0  0  0  0  0  0  0
    2.1467  -52.8349    6.7601 C   0  0  2  0  0  0  0  0  0  0  0  0
    1.3928  -51.8561    6.0205 O   0  0  0  0  0  0  0  0  0  0  0  0
   -2.7797  -50.6141    5.1087 C   0  0  2  0  0  0  0  0  0  0  0  0
   -3.6003  -49.4290    5.2023 O   0  0  0  0  0  0  0  0  0  0  0  0
    7.1116  -46.5006   15.0165 C   0  0  2  0  0  0  0  0  0  0  0  0
    6.6553  -47.8175   14.5193 O   0  0  0  0  0  0  0  0  0  0  0  0
    3.1023  -49.5312   14.7207 C   0  0  2  0  0  0  0  0  0  0  0  0
    4.1697  -50.1112   13.9332 O   0  0  0  0  0  0  0  0  0  0  0  0
    2.4665  -47.0864   11.1726 C   0  0  0  0  0  0  0  0  0  0  0  0
    1.3873  -47.6745   11.9145 O   0  0  0  0  0  0  0  0  0  0  0  0
    1.8018  -52.6997    8.2312 C   0  0  1  0  0  0  0  0  0  0  0  0
    2.0968  -51.5418    9.0402 O   0  0  0  0  0  0  0  0  0  0  0  0
   -2.3251  -51.1504    6.4634 C   0  0  2  0  0  0  0  0  0  0  0  0
   -1.3229  -52.2025    6.3969 O   0  0  0  0  0  0  0  0  0  0  0  0
    7.7815  -45.7849   13.8869 C   0  0  0  0  0  0  0  0  0  0  0  0
    6.8389  -45.6108   12.8637 O   0  0  0  0  0  0  0  0  0  0  0  0
    1.7423  -49.5320   13.9314 C   0  0  1  0  0  0  0  0  0  0  0  0
    1.3571  -50.9249   13.6655 O   0  0  0  0  0  0  0  0  0  0  0  0
    0.3157  -53.0870    8.5567 C   0  0  0  0  0  0  0  0  0  0  0  0
    0.0035  -53.0815   10.0065 N   0  0  0  0  0  0  0  0  0  0  0  0
   -3.3197  -51.6253    7.5203 C   0  0  0  0  0  0  0  0  0  0  0  0
   -4.3993  -50.6533    7.6754 O   0  0  0  0  0  0  0  0  0  0  0  0
  1  2  1  1  0  0  0
  1  8  1  0  0  0  0
  1 36  1  0  0  0  0
  3  4  1  6  0  0  0
  3 10  1  0  0  0  0
  3 47  1  0  0  0  0
  5 11  1  0  0  0  0
  5 30  1  0  0  0  0
  5 38  1  1  0  0  0
  6 21  1  1  0  0  0
  6 42  1  0  0  0  0
  7 15  1  0  0  0  0
  7 44  1  0  0  0  0
  7 32  1  1  0  0  0
  8  9  1  1  0  0  0
  8 17  1  0  0  0  0
 11 12  1  6  0  0  0
 11 20  1  0  0  0  0
 13  6  1  0  0  0  0
 13 14  1  6  0  0  0
 15 16  1  6  0  0  0
 15 24  1  0  0  0  0
 17 26  1  0  0  0  0
 18 10  1  0  0  0  0
 18 19  1  6  0  0  0
 20 21  1  6  0  0  0
 20 29  1  0  0  0  0
 22 13  1  0  0  0  0
 22 23  1  1  0  0  0
 24 25  1  6  0  0  0
 24 33  1  0  0  0  0
 26 27  1  1  0  0  0
 26 35  1  0  0  0  0
 28  2  1  1  0  0  0
 28 18  1  0  0  0  0
 29 30  1  0  0  0  0
 29 39  1  1  0  0  0
 31 22  1  0  0  0  0
 31 32  1  6  0  0  0
 31 41  1  0  0  0  0
 33 34  1  1  0  0  0
 33 43  1  0  0  0  0
 35 36  1  0  0  0  0
 35 45  1  6  0  0  0
 37 28  1  0  0  0  0
 37 38  1  6  0  0  0
 39 40  1  0  0  0  0
 41 42  1  0  0  0  0
 41 49  1  6  0  0  0
 43 44  1  0  0  0  0
 43 51  1  6  0  0  0
 45 46  1  0  0  0  0
 47 37  1  0  0  0  0
 47 48  1  1  0  0  0
 49 50  1  0  0  0  0
 51 52  1  0  0  0  0
M  END
>  <CHROM.1>
-158.11890507,-87.78316003,161.38608680,-174.15680784,59.59439066,177.75612226
47.87768108,161.36698898,-179.85408556,-69.57337581,174.55377302,-46.85235261
2.53765944,-49.66341459,10.85703489,-1.01839202,0.00139986,-1.94217755

>  <Name>
2fd0_lig

>  <RI>
3.4301e+07

>  <Rbt.Current_Directory>
/home/itssahil/PROJECTS/Mol_Feturizer/New_Systems/rnas/2fd0

>  <Rbt.Executable>
rbdock ($Id: //depot/dev/client3/rdock/2013.1/src/exe/rbdock.cxx#4 $)

>  <Rbt.Library>
libRbt.so (2013.1, Build901 2013/11/27)

>  <Rbt.Parameter_File>
/export/apps/rDock/src/rDock_2013.1_src/data/scripts/dock_solv.prm

>  <Rbt.Receptor>
prm/pocket_docking_7.prm

>  <SCORE>
-16.1965

>  <SCORE.INTER>
-12.5671

>  <SCORE.INTER.CONST>
1

>  <SCORE.INTER.POLAR>
-1.56743

>  <SCORE.INTER.ROT>
12

>  <SCORE.INTER.SOLV>
15.3537

>  <SCORE.INTER.VDW>
-19.8712

>  <SCORE.INTER.norm>
-0.241675

>  <SCORE.INTRA>
-3.62944

>  <SCORE.INTRA.DIHEDRAL>
-12.1109

>  <SCORE.INTRA.DIHEDRAL.0>
23.9727

>  <SCORE.INTRA.POLAR>
0

>  <SCORE.INTRA.POLAR.0>
0

>  <SCORE.INTRA.REPUL>
0.00975314

>  <SCORE.INTRA.REPUL.0>
0

>  <SCORE.INTRA.SOLV>
-1.11042

>  <SCORE.INTRA.SOLV.lig_0>
-115.028

>  <SCORE.INTRA.VDW>
2.93247

>  <SCORE.INTRA.VDW.0>
-6.82393

>  <SCORE.INTRA.norm>
-0.069797

>  <SCORE.RESTR>
0

>  <SCORE.RESTR.CAVITY>
0

>  <SCORE.RESTR.norm>
0

>  <SCORE.SYSTEM>
0

>  <SCORE.SYSTEM.CONST>
0

>  <SCORE.SYSTEM.DIHEDRAL>
0

>  <SCORE.SYSTEM.SOLV>
0

>  <SCORE.SYSTEM.norm>
0

>  <SCORE.heavy>
52

>  <SCORE.norm>
-0.311472

>  <RMSD>
4.239

$$$$
2fd0_lig
 OpenBabel11021811433D
libRbt.so/2013.1/901 2013/11/27
 52 56  0  0  0  0  0  0  0  0999 V2000
    6.1971  -48.1802   15.1354 C   0  0  2  0  0  0  0  0  0  0  0  0
    6.7979  -48.2024   13.8333 O   0  0  0  0  0  0  0  0  0  0  0  0
    7.9602  -44.1342   12.8377 C   0  0  2  0  0  0  0  0  0  0  0  0
    8.7386  -42.9824   12.3534 N   0  0  0  0  0  0  0  0  0  0  0  0
    5.4264  -47.3760   10.3583 C   0  0  1  0  0  0  0  0  0  0  0  0
    0.8592  -47.4139   10.3920 C   0  0  1  0  0  0  0  0  0  0  0  0
   -3.0940  -49.4891    7.8001 C   0  0  1  0  0  0  0  0  0  0  0  0
    5.3054  -49.4649   15.2965 C   0  0  2  0  0  0  0  0  0  0  0  0
    6.0713  -50.6862   15.0903 N   0  0  0  0  0  0  0  0  0  0  0  0
    8.7752  -44.9205   13.9560 C   0  0  0  0  0  0  0  0  0  0  0  0
    4.3714  -47.8953   11.3178 C   0  0  2  0  0  0  0  0  0  0  0  0
    4.2099  -49.3391   11.2312 O   0  0  0  0  0  0  0  0  0  0  0  0
    0.0553  -48.6004   11.1029 C   0  0  2  0  0  0  0  0  0  0  0  0
    0.2766  -49.8846   10.3837 N   0  0  0  0  0  0  0  0  0  0  0  0
   -2.4037  -50.8554    7.5894 C   0  0  1  0  0  0  0  0  0  0  0  0
   -2.7997  -51.7537    8.6554 O   0  0  0  0  0  0  0  0  0  0  0  0
    4.0654  -49.3958   14.3301 C   0  0  0  0  0  0  0  0  0  0  0  0
    7.9211  -46.1676   14.4896 C   0  0  2  0  0  0  0  0  0  0  0  0
    8.6537  -46.9137   15.5233 N   0  0  0  0  0  0  0  0  0  0  0  0
    3.1500  -47.0644   10.9622 C   0  0  2  0  0  0  0  0  0  0  0  0
    2.1899  -47.8279   10.2840 O   0  0  0  0  0  0  0  0  0  0  0  0
   -1.4854  -48.1302   11.2295 C   0  0  1  0  0  0  0  0  0  0  0  0
   -1.5124  -46.8890   11.9573 O   0  0  0  0  0  0  0  0  0  0  0  0
   -2.6447  -51.5774    6.2360 C   0  0  1  0  0  0  0  0  0  0  0  0
   -3.7550  -52.4682    6.4025 O   0  0  0  0  0  0  0  0  0  0  0  0
    3.2884  -48.0688   14.6133 C   0  0  2  0  0  0  0  0  0  0  0  0
    2.1452  -47.9766   13.7691 O   0  0  0  0  0  0  0  0  0  0  0  0
    7.5827  -47.1019   13.2946 C   0  0  2  0  0  0  0  0  0  0  0  0
    3.5746  -45.9623    9.9625 C   0  0  2  0  0  0  0  0  0  0  0  0
    4.9887  -46.0945    9.9412 O   0  0  0  0  0  0  0  0  0  0  0  0
   -2.1442  -47.8293    9.7839 C   0  0  2  0  0  0  0  0  0  0  0  0
   -2.1114  -49.0970    9.1014 O   0  0  0  0  0  0  0  0  0  0  0  0
   -2.9169  -50.6650    5.0178 C   0  0  2  0  0  0  0  0  0  0  0  0
   -2.1829  -51.2490    3.9193 O   0  0  0  0  0  0  0  0  0  0  0  0
    4.2294  -46.8552   14.3657 C   0  0  2  0  0  0  0  0  0  0  0  0
    5.3926  -46.9804   15.2716 O   0  0  0  0  0  0  0  0  0  0  0  0
    6.8328  -46.3634   12.1442 C   0  0  2  0  0  0  0  0  0  0  0  0
    6.6158  -47.3210   11.0803 O   0  0  0  0  0  0  0  0  0  0  0  0
    3.2328  -44.5382   10.3861 C   0  0  0  0  0  0  0  0  0  0  0  0
    3.9398  -43.6551    9.5021 O   0  0  0  0  0  0  0  0  0  0  0  0
   -1.1867  -46.8809    9.0873 C   0  0  1  0  0  0  0  0  0  0  0  0
    0.2441  -47.0577    9.0262 O   0  0  0  0  0  0  0  0  0  0  0  0
   -2.5233  -49.2207    5.3157 C   0  0  2  0  0  0  0  0  0  0  0  0
   -3.0783  -48.6797    6.5465 O   0  0  0  0  0  0  0  0  0  0  0  0
    3.5545  -45.5521   14.6547 C   0  0  0  0  0  0  0  0  0  0  0  0
    4.4431  -44.5200   14.3218 O   0  0  0  0  0  0  0  0  0  0  0  0
    7.6812  -45.1365   11.6466 C   0  0  1  0  0  0  0  0  0  0  0  0
    6.9218  -44.4363   10.6014 O   0  0  0  0  0  0  0  0  0  0  0  0
   -1.6381  -46.5039    7.6318 C   0  0  0  0  0  0  0  0  0  0  0  0
   -2.9147  -45.7508    7.5814 N   0  0  0  0  0  0  0  0  0  0  0  0
   -2.6973  -48.1064    4.2863 C   0  0  0  0  0  0  0  0  0  0  0  0
   -4.1086  -47.9470    3.9434 O   0  0  0  0  0  0  0  0  0  0  0  0
  1  2  1  6  0  0  0
  1  8  1  0  0  0  0
  1 36  1  0  0  0  0
  3  4  1  6  0  0  0
  3 10  1  0  0  0  0
  3 47  1  0  0  0  0
  5 11  1  0  0  0  0
  5 30  1  0  0  0  0
  5 38  1  1  0  0  0
  6 21  1  6  0  0  0
  6 42  1  0  0  0  0
  7 15  1  0  0  0  0
  7 44  1  0  0  0  0
  7 32  1  1  0  0  0
  8  9  1  6  0  0  0
  8 17  1  0  0  0  0
 11 12  1  6  0  0  0
 11 20  1  0  0  0  0
 13  6  1  0  0  0  0
 13 14  1  6  0  0  0
 15 16  1  1  0  0  0
 15 24  1  0  0  0  0
 17 26  1  0  0  0  0
 18 10  1  0  0  0  0
 18 19  1  1  0  0  0
 20 21  1  6  0  0  0
 20 29  1  0  0  0  0
 22 13  1  0  0  0  0
 22 23  1  1  0  0  0
 24 25  1  1  0  0  0
 24 33  1  0  0  0  0
 26 27  1  6  0  0  0
 26 35  1  0  0  0  0
 28  2  1  1  0  0  0
 28 18  1  0  0  0  0
 29 30  1  0  0  0  0
 29 39  1  1  0  0  0
 31 22  1  0  0  0  0
 31 32  1  6  0  0  0
 31 41  1  0  0  0  0
 33 34  1  6  0  0  0
 33 43  1  0  0  0  0
 35 36  1  0  0  0  0
 35 45  1  1  0  0  0
 37 28  1  0  0  0  0
 37 38  1  6  0  0  0
 39 40  1  0  0  0  0
 41 42  1  0  0  0  0
 41 49  1  6  0  0  0
 43 44  1  0  0  0  0
 43 51  1  6  0  0  0
 45 46  1  0  0  0  0
 47 37  1  0  0  0  0
 47 48  1  6  0  0  0
 49 50  1  0  0  0  0
 51 52  1  0  0  0  0
M  END
>  <CHROM.1>
173.76337269,-69.53545116,-118.01966975,175.45346639,153.63913014,14.45804624
167.95325663,158.97792515,-176.19947197,139.61338314,64.05630887,61.79330483
2.27767160,-47.64199784,10.64319256,0.24757960,0.63733826,2.31875432

>  <Name>
2fd0_lig

>  <RI>
2.00683e+07

>  <Rbt.Current_Directory>
/home/itssahil/PROJECTS/Mol_Feturizer/New_Systems/rnas/2fd0

>  <Rbt.Executable>
rbdock ($Id: //depot/dev/client3/rdock/2013.1/src/exe/rbdock.cxx#4 $)

>  <Rbt.Library>
libRbt.so (2013.1, Build901 2013/11/27)

>  <Rbt.Parameter_File>
/export/apps/rDock/src/rDock_2013.1_src/data/scripts/dock_solv.prm

>  <Rbt.Receptor>
prm/pocket_docking_4.prm

>  <SCORE>
-10.8738

>  <SCORE.INTER>
-11.8755

>  <SCORE.INTER.CONST>
1

>  <SCORE.INTER.POLAR>
-2.71491

>  <SCORE.INTER.ROT>
12

>  <SCORE.INTER.SOLV>
16.7979

>  <SCORE.INTER.VDW>
-16.0666

>  <SCORE.INTER.norm>
-0.228375

>  <SCORE.INTRA>
1.0017

>  <SCORE.INTRA.DIHEDRAL>
2.58242

>  <SCORE.INTRA.DIHEDRAL.0>
23.9727

>  <SCORE.INTRA.POLAR>
0

>  <SCORE.INTRA.POLAR.0>
0

>  <SCORE.INTRA.REPUL>
0

>  <SCORE.INTRA.REPUL.0>
0

>  <SCORE.INTRA.SOLV>
1.40406

>  <SCORE.INTRA.SOLV.lig_0>
-115.028

>  <SCORE.INTRA.VDW>
-0.991538

>  <SCORE.INTRA.VDW.0>
-6.82393

>  <SCORE.INTRA.norm>
0.0192635

>  <SCORE.RESTR>
0

>  <SCORE.RESTR.CAVITY>
0

>  <SCORE.RESTR.norm>
0

>  <SCORE.SYSTEM>
0

>  <SCORE.SYSTEM.CONST>
0

>  <SCORE.SYSTEM.DIHEDRAL>
0

>  <SCORE.SYSTEM.SOLV>
0

>  <SCORE.SYSTEM.norm>
0

>  <SCORE.heavy>
52

>  <SCORE.norm>
-0.209112

>  <RMSD>
4.251

$$$$
2fd0_lig
 OpenBabel11021811433D
libRbt.so/2013.1/901 2013/11/27
 52 56  0  0  0  0  0  0  0  0999 V2000
    5.0086  -45.5874   12.3193 C   0  0  2  0  0  0  0  0  0  0  0  0
    5.2906  -46.9013   12.8204 O   0  0  0  0  0  0  0  0  0  0  0  0
    4.1919  -49.7740   15.8917 C   0  0  2  0  0  0  0  0  0  0  0  0
    3.6621  -50.3544   17.1365 N   0  0  0  0  0  0  0  0  0  0  0  0
    1.7822  -48.3788   12.0170 C   0  0  1  0  0  0  0  0  0  0  0  0
    0.7943  -49.4223    7.8278 C   0  0  1  0  0  0  0  0  0  0  0  0
   -3.4705  -51.2550    5.4140 C   0  0  1  0  0  0  0  0  0  0  0  0
    5.5359  -45.4921   10.8414 C   0  0  2  0  0  0  0  0  0  0  0  0
    4.9507  -46.5178    9.9894 N   0  0  0  0  0  0  0  0  0  0  0  0
    5.2912  -48.6712   16.2208 C   0  0  0  0  0  0  0  0  0  0  0  0
    1.8818  -47.4785   10.7991 C   0  0  2  0  0  0  0  0  0  0  0  0
    0.7756  -46.5362   10.7180 O   0  0  0  0  0  0  0  0  0  0  0  0
   -0.2010  -48.8185    6.7303 C   0  0  2  0  0  0  0  0  0  0  0  0
   -1.5199  -48.4992    7.3416 N   0  0  0  0  0  0  0  0  0  0  0  0
   -4.4011  -50.5897    6.4528 C   0  0  1  0  0  0  0  0  0  0  0  0
   -4.1257  -49.1676    6.4911 O   0  0  0  0  0  0  0  0  0  0  0  0
    7.1082  -45.5540   10.8158 C   0  0  0  0  0  0  0  0  0  0  0  0
    5.8745  -48.0486   14.8638 C   0  0  2  0  0  0  0  0  0  0  0  0
    6.8918  -47.0236   15.1403 N   0  0  0  0  0  0  0  0  0  0  0  0
    2.0004  -48.4691    9.6531 C   0  0  2  0  0  0  0  0  0  0  0  0
    0.8221  -48.5207    8.8956 O   0  0  0  0  0  0  0  0  0  0  0  0
   -0.2405  -49.8566    5.4927 C   0  0  1  0  0  0  0  0  0  0  0  0
    1.1073  -50.0375    5.0217 O   0  0  0  0  0  0  0  0  0  0  0  0
   -5.9311  -50.7797    6.2677 C   0  0  1  0  0  0  0  0  0  0  0  0
   -6.4258  -49.6669    5.5120 O   0  0  0  0  0  0  0  0  0  0  0  0
    7.6649  -44.4232   11.7411 C   0  0  2  0  0  0  0  0  0  0  0  0
    9.0890  -44.4338   11.7310 O   0  0  0  0  0  0  0  0  0  0  0  0
    4.7069  -47.4349   14.0418 C   0  0  2  0  0  0  0  0  0  0  0  0
    2.1689  -49.8901   10.2419 C   0  0  2  0  0  0  0  0  0  0  0  0
    2.3192  -49.6318   11.6305 O   0  0  0  0  0  0  0  0  0  0  0  0
   -0.7679  -51.3159    5.9473 C   0  0  2  0  0  0  0  0  0  0  0  0
   -2.1185  -51.0892    6.3923 O   0  0  0  0  0  0  0  0  0  0  0  0
   -6.3748  -52.0886    5.5746 C   0  0  2  0  0  0  0  0  0  0  0  0
   -7.5382  -52.5416    6.3011 O   0  0  0  0  0  0  0  0  0  0  0  0
    7.1435  -44.6374   13.1909 C   0  0  2  0  0  0  0  0  0  0  0  0
    5.6646  -44.6031   13.1596 O   0  0  0  0  0  0  0  0  0  0  0  0
    3.5739  -48.4632   13.7421 C   0  0  2  0  0  0  0  0  0  0  0  0
    2.5332  -47.7656   13.0166 O   0  0  0  0  0  0  0  0  0  0  0  0
    3.4004  -50.6484    9.7595 C   0  0  0  0  0  0  0  0  0  0  0  0
    3.1006  -52.0484    9.8650 O   0  0  0  0  0  0  0  0  0  0  0  0
    0.0776  -51.7013    7.1465 C   0  0  1  0  0  0  0  0  0  0  0  0
    0.3602  -50.8336    8.2642 O   0  0  0  0  0  0  0  0  0  0  0  0
   -5.2379  -53.1066    5.5465 C   0  0  2  0  0  0  0  0  0  0  0  0
   -3.9803  -52.6009    5.0193 O   0  0  0  0  0  0  0  0  0  0  0  0
    7.6129  -43.5647   14.1216 C   0  0  0  0  0  0  0  0  0  0  0  0
    9.0025  -43.6885   14.2607 O   0  0  0  0  0  0  0  0  0  0  0  0
    3.0270  -49.0713   15.0851 C   0  0  1  0  0  0  0  0  0  0  0  0
    1.9999  -50.0712   14.7614 O   0  0  0  0  0  0  0  0  0  0  0  0
   -0.3218  -53.0875    7.7657 C   0  0  0  0  0  0  0  0  0  0  0  0
    0.1680  -54.2502    6.9862 N   0  0  0  0  0  0  0  0  0  0  0  0
   -5.4020  -54.4847    4.9094 C   0  0  0  0  0  0  0  0  0  0  0  0
   -6.6305  -55.1196    5.3809 O   0  0  0  0  0  0  0  0  0  0  0  0
  1  2  1  1  0  0  0
  1  8  1  0  0  0  0
  1 36  1  0  0  0  0
  3  4  1  1  0  0  0
  3 10  1  0  0  0  0
  3 47  1  0  0  0  0
  5 11  1  0  0  0  0
  5 30  1  0  0  0  0
  5 38  1  1  0  0  0
  6 21  1  1  0  0  0
  6 42  1  0  0  0  0
  7 15  1  0  0  0  0
  7 44  1  0  0  0  0
  7 32  1  1  0  0  0
  8  9  1  6  0  0  0
  8 17  1  0  0  0  0
 11 12  1  6  0  0  0
 11 20  1  0  0  0  0
 13  6  1  0  0  0  0
 13 14  1  1  0  0  0
 15 16  1  6  0  0  0
 15 24  1  0  0  0  0
 17 26  1  0  0  0  0
 18 10  1  0  0  0  0
 18 19  1  1  0  0  0
 20 21  1  6  0  0  0
 20 29  1  0  0  0  0
 22 13  1  0  0  0  0
 22 23  1  1  0  0  0
 24 25  1  6  0  0  0
 24 33  1  0  0  0  0
 26 27  1  1  0  0  0
 26 35  1  0  0  0  0
 28  2  1  6  0  0  0
 28 18  1  0  0  0  0
 29 30  1  0  0  0  0
 29 39  1  6  0  0  0
 31 22  1  0  0  0  0
 31 32  1  1  0  0  0
 31 41  1  0  0  0  0
 33 34  1  1  0  0  0
 33 43  1  0  0  0  0
 35 36  1  0  0  0  0
 35 45  1  1  0  0  0
 37 28  1  0  0  0  0
 37 38  1  1  0  0  0
 39 40  1  0  0  0  0
 41 42  1  0  0  0  0
 41 49  1  1  0  0  0
 43 44  1  0  0  0  0
 43 51  1  6  0  0  0
 45 46  1  0  0  0  0
 47 37  1  0  0  0  0
 47 48  1  6  0  0  0
 49 50  1  0  0  0  0
 51 52  1  0  0  0  0
M  END
>  <CHROM.1>
-166.87254306,-127.27624279,-151.21293600,-168.97425477,-178.49332133,-132.08837432
-153.74390082,93.41630605,-67.02383807,144.91851800,76.93035861,-48.53527157
1.35018223,-49.12327479,9.90471381,-0.28579942,-0.70123565,-1.06448897

>  <Name>
2fd0_lig

>  <RI>
2.89522e+07

>  <Rbt.Current_Directory>
/home/itssahil/PROJECTS/Mol_Feturizer/New_Systems/rnas/2fd0

>  <Rbt.Executable>
rbdock ($Id: //depot/dev/client3/rdock/2013.1/src/exe/rbdock.cxx#4 $)

>  <Rbt.Library>
libRbt.so (2013.1, Build901 2013/11/27)

>  <Rbt.Parameter_File>
/export/apps/rDock/src/rDock_2013.1_src/data/scripts/dock_solv.prm

>  <Rbt.Receptor>
prm/pocket_docking_2.prm

>  <SCORE>
10.8987

>  <SCORE.INTER>
0.802887

>  <SCORE.INTER.CONST>
1

>  <SCORE.INTER.POLAR>
-0.39685

>  <SCORE.INTER.ROT>
12

>  <SCORE.INTER.SOLV>
16.5126

>  <SCORE.INTER.VDW>
-15.2461

>  <SCORE.INTER.norm>
0.0154401

>  <SCORE.INTRA>
4.89114

>  <SCORE.INTRA.DIHEDRAL>
7.52438

>  <SCORE.INTRA.DIHEDRAL.0>
23.9727

>  <SCORE.INTRA.POLAR>
0

>  <SCORE.INTRA.POLAR.0>
0

>  <SCORE.INTRA.REPUL>
0

>  <SCORE.INTRA.REPUL.0>
0

>  <SCORE.INTRA.SOLV>
0.917092

>  <SCORE.INTRA.SOLV.lig_0>
-115.028

>  <SCORE.INTRA.VDW>
0.670401

>  <SCORE.INTRA.VDW.0>
-6.82393

>  <SCORE.INTRA.norm>
0.0940604

>  <SCORE.RESTR>
5.20471

>  <SCORE.RESTR.CAVITY>
5.20471

>  <SCORE.RESTR.norm>
0.10009

>  <SCORE.SYSTEM>
0

>  <SCORE.SYSTEM.CONST>
0

>  <SCORE.SYSTEM.DIHEDRAL>
0

>  <SCORE.SYSTEM.SOLV>
0

>  <SCORE.SYSTEM.norm>
0

>  <SCORE.heavy>
52

>  <SCORE.norm>
0.209591

>  <RMSD>
4.284

$$$$
2fd0_lig
 OpenBabel11021811433D
libRbt.so/2013.1/901 2013/11/27
 52 56  0  0  0  0  0  0  0  0999 V2000
    6.3291  -46.7957   13.6628 C   0  0  2  0  0  0  0  0  0  0  0  0
    5.8372  -47.2780   14.9207 O   0  0  0  0  0  0  0  0  0  0  0  0
    8.3942  -50.6918   15.7577 C   0  0  2  0  0  0  0  0  0  0  0  0
    9.0844  -51.7787   16.4714 N   0  0  0  0  0  0  0  0  0  0  0  0
    3.7714  -49.4820   14.1678 C   0  0  1  0  0  0  0  0  0  0  0  0
    2.3639  -50.9396   10.2991 C   0  0  1  0  0  0  0  0  0  0  0  0
   -1.1558  -52.3188    6.5613 C   0  0  1  0  0  0  0  0  0  0  0  0
    6.1875  -45.2302   13.6376 C   0  0  2  0  0  0  0  0  0  0  0  0
    6.8860  -44.6043   14.7516 N   0  0  0  0  0  0  0  0  0  0  0  0
    8.7313  -49.2888   16.4293 C   0  0  0  0  0  0  0  0  0  0  0  0
    3.7974  -50.5617   13.1014 C   0  0  2  0  0  0  0  0  0  0  0  0
    4.7630  -50.2760   12.0507 O   0  0  0  0  0  0  0  0  0  0  0  0
    1.9190  -50.1328    8.9913 C   0  0  2  0  0  0  0  0  0  0  0  0
    0.5355  -49.6067    9.1483 N   0  0  0  0  0  0  0  0  0  0  0  0
   -0.4820  -51.2837    5.6328 C   0  0  1  0  0  0  0  0  0  0  0  0
    0.7928  -51.8089    5.1867 O   0  0  0  0  0  0  0  0  0  0  0  0
    4.6690  -44.8180   13.6087 C   0  0  0  0  0  0  0  0  0  0  0  0
    7.9876  -48.1059   15.6438 C   0  0  2  0  0  0  0  0  0  0  0  0
    8.2808  -46.7973   16.2467 N   0  0  0  0  0  0  0  0  0  0  0  0
    2.3437  -50.6457   12.6673 C   0  0  2  0  0  0  0  0  0  0  0  0
    2.1563  -50.0939   11.3925 O   0  0  0  0  0  0  0  0  0  0  0  0
    2.1540  -51.1051    7.7223 C   0  0  1  0  0  0  0  0  0  0  0  0
    3.5365  -51.5047    7.7192 O   0  0  0  0  0  0  0  0  0  0  0  0
   -1.2768  -50.8204    4.3820 C   0  0  1  0  0  0  0  0  0  0  0  0
   -0.8940  -51.6552    3.2815 O   0  0  0  0  0  0  0  0  0  0  0  0
    3.9879  -45.5165   12.3868 C   0  0  2  0  0  0  0  0  0  0  0  0
    2.6127  -45.1535   12.3144 O   0  0  0  0  0  0  0  0  0  0  0  0
    6.4560  -48.3697   15.6572 C   0  0  2  0  0  0  0  0  0  0  0  0
    1.4914  -49.7722   13.6187 C   0  0  2  0  0  0  0  0  0  0  0  0
    2.4301  -49.3985   14.6170 O   0  0  0  0  0  0  0  0  0  0  0  0
    1.2835  -52.4630    7.8345 C   0  0  2  0  0  0  0  0  0  0  0  0
   -0.0855  -52.0167    7.8166 O   0  0  0  0  0  0  0  0  0  0  0  0
   -2.8176  -50.8408    4.5095 C   0  0  2  0  0  0  0  0  0  0  0  0
   -3.2799  -49.6328    3.8664 O   0  0  0  0  0  0  0  0  0  0  0  0
    4.1219  -47.0594   12.5320 C   0  0  2  0  0  0  0  0  0  0  0  0
    5.5620  -47.3948   12.5867 O   0  0  0  0  0  0  0  0  0  0  0  0
    6.0775  -49.7597   15.0610 C   0  0  2  0  0  0  0  0  0  0  0  0
    4.6411  -49.9041   15.1701 O   0  0  0  0  0  0  0  0  0  0  0  0
    0.3331  -50.4953   14.2969 C   0  0  0  0  0  0  0  0  0  0  0  0
   -0.5776  -49.4875   14.7618 O   0  0  0  0  0  0  0  0  0  0  0  0
    1.5882  -53.0319    9.2074 C   0  0  1  0  0  0  0  0  0  0  0  0
    1.5935  -52.2661   10.4304 O   0  0  0  0  0  0  0  0  0  0  0  0
   -3.2452  -50.9568    5.9701 C   0  0  2  0  0  0  0  0  0  0  0  0
   -2.6153  -52.0426    6.7048 O   0  0  0  0  0  0  0  0  0  0  0  0
    3.5196  -47.7877   11.3727 C   0  0  0  0  0  0  0  0  0  0  0  0
    4.2579  -47.4635   10.2257 O   0  0  0  0  0  0  0  0  0  0  0  0
    6.8288  -50.9030   15.8364 C   0  0  1  0  0  0  0  0  0  0  0  0
    6.4890  -52.1905   15.2150 O   0  0  0  0  0  0  0  0  0  0  0  0
    0.7900  -54.3461    9.5239 C   0  0  0  0  0  0  0  0  0  0  0  0
   -0.6821  -54.1675    9.5030 N   0  0  0  0  0  0  0  0  0  0  0  0
   -4.7151  -51.0091    6.3807 C   0  0  0  0  0  0  0  0  0  0  0  0
   -5.3796  -52.1458    5.7475 O   0  0  0  0  0  0  0  0  0  0  0  0
  1  2  1  1  0  0  0
  1  8  1  0  0  0  0
  1 36  1  0  0  0  0
  3  4  1  1  0  0  0
  3 10  1  0  0  0  0
  3 47  1  0  0  0  0
  5 11  1  0  0  0  0
  5 30  1  0  0  0  0
  5 38  1  1  0  0  0
  6 21  1  1  0  0  0
  6 42  1  0  0  0  0
  7 15  1  0  0  0  0
  7 44  1  0  0  0  0
  7 32  1  1  0  0  0
  8  9  1  1  0  0  0
  8 17  1  0  0  0  0
 11 12  1  6  0  0  0
 11 20  1  0  0  0  0
 13  6  1  0  0  0  0
 13 14  1  1  0  0  0
 15 16  1  6  0  0  0
 15 24  1  0  0  0  0
 17 26  1  0  0  0  0
 18 10  1  0  0  0  0
 18 19  1  1  0  0  0
 20 21  1  6  0  0  0
 20 29  1  0  0  0  0
 22 13  1  0  0  0  0
 22 23  1  1  0  0  0
 24 25  1  6  0  0  0
 24 33  1  0  0  0  0
 26 27  1  1  0  0  0
 26 35  1  0  0  0  0
 28  2  1  6  0  0  0
 28 18  1  0  0  0  0
 29 30  1  0  0  0  0
 29 39  1  1  0  0  0
 31 22  1  0  0  0  0
 31 32  1  1  0  0  0
 31 41  1  0  0  0  0
 33 34  1  1  0  0  0
 33 43  1  0  0  0  0
 35 36  1  0  0  0  0
 35 45  1  6  0  0  0
 37 28  1  0  0  0  0
 37 38  1  1  0  0  0
 39 40  1  0  0  0  0
 41 42  1  0  0  0  0
 41 49  1  1  0  0  0
 43 44  1  0  0  0  0
 43 51  1  6  0  0  0
 45 46  1  0  0  0  0
 47 37  1  0  0  0  0
 47 48  1  6  0  0  0
 49 50  1  0  0  0  0
 51 52  1  0  0  0  0
M  END
>  <CHROM.1>
-141.38481499,79.44850844,173.29442057,-74.00209549,86.46521473,45.46241846
-161.36727453,112.15949304,64.68650487,89.68797889,-60.43181654,58.76935473
2.58980909,-49.88038087,11.04662996,0.17703041,-0.84977275,-0.11401942

>  <Name>
2fd0_lig

>  <RI>
1.29864e+07

>  <Rbt.Current_Directory>
/home/itssahil/PROJECTS/Mol_Feturizer/New_Systems/rnas/2fd0

>  <Rbt.Executable>
rbdock ($Id: //depot/dev/client3/rdock/2013.1/src/exe/rbdock.cxx#4 $)

>  <Rbt.Library>
libRbt.so (2013.1, Build901 2013/11/27)

>  <Rbt.Parameter_File>
/export/apps/rDock/src/rDock_2013.1_src/data/scripts/dock_solv.prm

>  <Rbt.Receptor>
prm/pocket_docking_3.prm

>  <SCORE>
4.26026

>  <SCORE.INTER>
0.471168

>  <SCORE.INTER.CONST>
1

>  <SCORE.INTER.POLAR>
0

>  <SCORE.INTER.ROT>
12

>  <SCORE.INTER.SOLV>
14.0201

>  <SCORE.INTER.VDW>
-15.9593

>  <SCORE.INTER.norm>
0.00906092

>  <SCORE.INTRA>
3.06194

>  <SCORE.INTRA.DIHEDRAL>
0.899069

>  <SCORE.INTRA.DIHEDRAL.0>
23.9727

>  <SCORE.INTRA.POLAR>
0

>  <SCORE.INTRA.POLAR.0>
0

>  <SCORE.INTRA.REPUL>
0

>  <SCORE.INTRA.REPUL.0>
0

>  <SCORE.INTRA.SOLV>
2.84717

>  <SCORE.INTRA.SOLV.lig_0>
-115.028

>  <SCORE.INTRA.VDW>
1.18882

>  <SCORE.INTRA.VDW.0>
-6.82393

>  <SCORE.INTRA.norm>
0.0588835

>  <SCORE.RESTR>
0.727152

>  <SCORE.RESTR.CAVITY>
0.727152

>  <SCORE.RESTR.norm>
0.0139837

>  <SCORE.SYSTEM>
0

>  <SCORE.SYSTEM.CONST>
0

>  <SCORE.SYSTEM.DIHEDRAL>
0

>  <SCORE.SYSTEM.SOLV>
0

>  <SCORE.SYSTEM.norm>
0

>  <SCORE.heavy>
52

>  <SCORE.norm>
0.0819281

>  <RMSD>
4.311

$$$$
2fd0_lig
 OpenBabel11021811433D
libRbt.so/2013.1/901 2013/11/27
 52 56  0  0  0  0  0  0  0  0999 V2000
    4.0008  -47.1980   16.1776 C   0  0  2  0  0  0  0  0  0  0  0  0
    4.2719  -47.0763   14.7745 O   0  0  0  0  0  0  0  0  0  0  0  0
    6.8244  -43.5646   14.5614 C   0  0  2  0  0  0  0  0  0  0  0  0
    7.6585  -42.4739   14.0308 N   0  0  0  0  0  0  0  0  0  0  0  0
    2.8756  -44.4173   12.6412 C   0  0  1  0  0  0  0  0  0  0  0  0
    2.2738  -47.0506    9.4201 C   0  0  1  0  0  0  0  0  0  0  0  0
   -0.4782  -49.8053    6.1919 C   0  0  1  0  0  0  0  0  0  0  0  0
    3.4261  -48.6351   16.4529 C   0  0  2  0  0  0  0  0  0  0  0  0
    4.3346  -49.6788   15.9992 N   0  0  0  0  0  0  0  0  0  0  0  0
    7.4094  -44.9752   14.1133 C   0  0  0  0  0  0  0  0  0  0  0  0
    2.5852  -45.8190   12.1369 C   0  0  2  0  0  0  0  0  0  0  0  0
    3.7784  -46.4814   11.6311 O   0  0  0  0  0  0  0  0  0  0  0  0
    2.7352  -46.9660    7.8906 C   0  0  2  0  0  0  0  0  0  0  0  0
    1.6907  -46.2984    7.0668 N   0  0  0  0  0  0  0  0  0  0  0  0
    0.2459  -50.5749    5.0645 C   0  0  1  0  0  0  0  0  0  0  0  0
    1.1162  -51.5710    5.6564 O   0  0  0  0  0  0  0  0  0  0  0  0
    2.0028  -48.7902   15.7996 C   0  0  0  0  0  0  0  0  0  0  0  0
    6.5059  -46.1615   14.7014 C   0  0  2  0  0  0  0  0  0  0  0  0
    7.0240  -47.4774   14.2992 N   0  0  0  0  0  0  0  0  0  0  0  0
    1.4693  -45.5938   11.1306 C   0  0  2  0  0  0  0  0  0  0  0  0
    1.9246  -45.7560    9.8148 O   0  0  0  0  0  0  0  0  0  0  0  0
    3.1387  -48.4600    7.4258 C   0  0  1  0  0  0  0  0  0  0  0  0
    4.1602  -48.9418    8.3177 O   0  0  0  0  0  0  0  0  0  0  0  0
   -0.6362  -51.2781    3.9976 C   0  0  1  0  0  0  0  0  0  0  0  0
   -0.8442  -52.6320    4.4195 O   0  0  0  0  0  0  0  0  0  0  0  0
    1.0821  -47.6467   16.3375 C   0  0  2  0  0  0  0  0  0  0  0  0
   -0.2243  -47.7627   15.7826 O   0  0  0  0  0  0  0  0  0  0  0  0
    5.0453  -45.9859   14.1999 C   0  0  2  0  0  0  0  0  0  0  0  0
    1.0086  -44.1195   11.2235 C   0  0  2  0  0  0  0  0  0  0  0  0
    1.7223  -43.6449   12.3561 O   0  0  0  0  0  0  0  0  0  0  0  0
    1.8961  -49.4867    7.5532 C   0  0  2  0  0  0  0  0  0  0  0  0
    0.9109  -48.9767    6.6352 O   0  0  0  0  0  0  0  0  0  0  0  0
   -2.0104  -50.6280    3.7158 C   0  0  2  0  0  0  0  0  0  0  0  0
   -2.1888  -50.6941    2.2839 O   0  0  0  0  0  0  0  0  0  0  0  0
    1.6968  -46.2678   15.9623 C   0  0  2  0  0  0  0  0  0  0  0  0
    3.0430  -46.1814   16.5705 O   0  0  0  0  0  0  0  0  0  0  0  0
    4.4450  -44.5939   14.5644 C   0  0  2  0  0  0  0  0  0  0  0  0
    3.1093  -44.5364   14.0088 O   0  0  0  0  0  0  0  0  0  0  0  0
   -0.4815  -43.9223   11.4789 C   0  0  0  0  0  0  0  0  0  0  0  0
   -1.1828  -44.6267   10.4430 O   0  0  0  0  0  0  0  0  0  0  0  0
    1.3712  -49.3203    8.9668 C   0  0  1  0  0  0  0  0  0  0  0  0
    1.1176  -48.0507    9.6038 O   0  0  0  0  0  0  0  0  0  0  0  0
   -2.0700  -49.2085    4.2736 C   0  0  2  0  0  0  0  0  0  0  0  0
   -1.6756  -49.0849    5.6681 O   0  0  0  0  0  0  0  0  0  0  0  0
    0.8793  -45.1278   16.4811 C   0  0  0  0  0  0  0  0  0  0  0  0
    1.5752  -43.9396   16.2172 O   0  0  0  0  0  0  0  0  0  0  0  0
    5.3541  -43.4464   13.9907 C   0  0  1  0  0  0  0  0  0  0  0  0
    4.7868  -42.1532   14.3973 O   0  0  0  0  0  0  0  0  0  0  0  0
    0.1171  -50.2144    9.2707 C   0  0  0  0  0  0  0  0  0  0  0  0
    0.4500  -51.5033    9.9243 N   0  0  0  0  0  0  0  0  0  0  0  0
   -3.3193  -48.3401    4.1430 C   0  0  0  0  0  0  0  0  0  0  0  0
   -4.5108  -49.1070    4.4988 O   0  0  0  0  0  0  0  0  0  0  0  0
  1  2  1  6  0  0  0
  1  8  1  0  0  0  0
  1 36  1  0  0  0  0
  3  4  1  6  0  0  0
  3 10  1  0  0  0  0
  3 47  1  0  0  0  0
  5 11  1  0  0  0  0
  5 30  1  0  0  0  0
  5 38  1  1  0  0  0
  6 21  1  6  0  0  0
  6 42  1  0  0  0  0
  7 15  1  0  0  0  0
  7 44  1  0  0  0  0
  7 32  1  6  0  0  0
  8  9  1  6  0  0  0
  8 17  1  0  0  0  0
 11 12  1  6  0  0  0
 11 20  1  0  0  0  0
 13  6  1  0  0  0  0
 13 14  1  6  0  0  0
 15 16  1  1  0  0  0
 15 24  1  0  0  0  0
 17 26  1  0  0  0  0
 18 10  1  0  0  0  0
 18 19  1  6  0  0  0
 20 21  1  6  0  0  0
 20 29  1  0  0  0  0
 22 13  1  0  0  0  0
 22 23  1  1  0  0  0
 24 25  1  1  0  0  0
 24 33  1  0  0  0  0
 26 27  1  6  0  0  0
 26 35  1  0  0  0  0
 28  2  1  1  0  0  0
 28 18  1  0  0  0  0
 29 30  1  0  0  0  0
 29 39  1  1  0  0  0
 31 22  1  0  0  0  0
 31 32  1  6  0  0  0
 31 41  1  0  0  0  0
 33 34  1  6  0  0  0
 33 43  1  0  0  0  0
 35 36  1  0  0  0  0
 35 45  1  1  0  0  0
 37 28  1  0  0  0  0
 37 38  1  6  0  0  0
 39 40  1  0  0  0  0
 41 42  1  0  0  0  0
 41 49  1  6  0  0  0
 43 44  1  0  0  0  0
 43 51  1  1  0  0  0
 45 46  1  0  0  0  0
 47 37  1  0  0  0  0
 47 48  1  1  0  0  0
 49 50  1  0  0  0  0
 51 52  1  0  0  0  0
M  END
>  <CHROM.1>
-167.72954015,98.35432206,179.25466300,-85.81311696,68.81808081,67.51612736
-55.55880667,169.70545863,174.03591742,-71.94673968,95.42402735,46.08469475
1.90187574,-47.23833249,10.81987108,-0.13314508,1.12941932,2.85232099

>  <Name>
2fd0_lig

>  <RI>
0

>  <Rbt.Current_Directory>
/home/itssahil/PROJECTS/Mol_Feturizer/New_Systems/rnas/2fd0

>  <Rbt.Executable>
rbdock ($Id: //depot/dev/client3/rdock/2013.1/src/exe/rbdock.cxx#4 $)

>  <Rbt.Library>
libRbt.so (2013.1, Build901 2013/11/27)

>  <Rbt.Parameter_File>
/export/apps/rDock/src/rDock_2013.1_src/data/scripts/dock_solv.prm

>  <Rbt.Receptor>
prm/pocket_docking_6.prm

>  <SCORE>
-17.5274

>  <SCORE.INTER>
-12.4859

>  <SCORE.INTER.CONST>
1

>  <SCORE.INTER.POLAR>
-0.893548

>  <SCORE.INTER.ROT>
12

>  <SCORE.INTER.SOLV>
12.7677

>  <SCORE.INTER.VDW>
-21.2013

>  <SCORE.INTER.norm>
-0.240113

>  <SCORE.INTRA>
-5.04149

>  <SCORE.INTRA.DIHEDRAL>
-9.03252

>  <SCORE.INTRA.DIHEDRAL.0>
23.9727

>  <SCORE.INTRA.POLAR>
0

>  <SCORE.INTRA.POLAR.0>
0

>  <SCORE.INTRA.REPUL>
0

>  <SCORE.INTRA.REPUL.0>
0

>  <SCORE.INTRA.SOLV>
-2.91499

>  <SCORE.INTRA.SOLV.lig_0>
-115.028

>  <SCORE.INTRA.VDW>
0.932263

>  <SCORE.INTRA.VDW.0>
-6.82393

>  <SCORE.INTRA.norm>
-0.0969518

>  <SCORE.RESTR>
0

>  <SCORE.RESTR.CAVITY>
0

>  <SCORE.RESTR.norm>
0

>  <SCORE.SYSTEM>
0

>  <SCORE.SYSTEM.CONST>
0

>  <SCORE.SYSTEM.DIHEDRAL>
0

>  <SCORE.SYSTEM.SOLV>
0

>  <SCORE.SYSTEM.norm>
0

>  <SCORE.heavy>
52

>  <SCORE.norm>
-0.337065

>  <RMSD>
4.339

$$$$
2fd0_lig
 OpenBabel11021811433D
libRbt.so/2013.1/901 2013/11/27
 52 56  0  0  0  0  0  0  0  0999 V2000
    5.4017  -48.0341   16.7995 C   0  0  2  0  0  0  0  0  0  0  0  0
    5.8862  -48.3372   15.4840 O   0  0  0  0  0  0  0  0  0  0  0  0
    7.2738  -44.4789   14.0416 C   0  0  2  0  0  0  0  0  0  0  0  0
    7.9147  -43.4458   13.2115 N   0  0  0  0  0  0  0  0  0  0  0  0
    4.7755  -47.7867   12.1991 C   0  0  1  0  0  0  0  0  0  0  0  0
    3.2444  -51.1986   10.2430 C   0  0  1  0  0  0  0  0  0  0  0  0
    0.8855  -54.3538    6.7320 C   0  0  1  0  0  0  0  0  0  0  0  0
    4.9434  -49.3730   17.4843 C   0  0  2  0  0  0  0  0  0  0  0  0
    6.0188  -50.3538   17.5317 N   0  0  0  0  0  0  0  0  0  0  0  0
    8.3438  -45.5673   14.4924 C   0  0  0  0  0  0  0  0  0  0  0  0
    3.6622  -48.8035   12.0258 C   0  0  2  0  0  0  0  0  0  0  0  0
    3.9737  -50.0760   12.6597 O   0  0  0  0  0  0  0  0  0  0  0  0
    4.0332  -52.4041    9.5472 C   0  0  2  0  0  0  0  0  0  0  0  0
    4.2635  -52.1137    8.1057 N   0  0  0  0  0  0  0  0  0  0  0  0
    1.6671  -53.7718    5.5327 C   0  0  1  0  0  0  0  0  0  0  0  0
    2.9483  -54.4418    5.4344 O   0  0  0  0  0  0  0  0  0  0  0  0
    3.6717  -49.9513   16.7599 C   0  0  0  0  0  0  0  0  0  0  0  0
    7.6460  -46.6850   15.4052 C   0  0  2  0  0  0  0  0  0  0  0  0
    8.6138  -47.7056   15.8335 N   0  0  0  0  0  0  0  0  0  0  0  0
    3.4654  -48.8386   10.5196 C   0  0  2  0  0  0  0  0  0  0  0  0
    3.9570  -50.0286    9.9655 O   0  0  0  0  0  0  0  0  0  0  0  0
    3.2139  -53.7609    9.8616 C   0  0  1  0  0  0  0  0  0  0  0  0
    3.0967  -53.8878   11.2903 O   0  0  0  0  0  0  0  0  0  0  0  0
    0.9851  -53.8287    4.1390 C   0  0  1  0  0  0  0  0  0  0  0  0
    1.4123  -55.0315    3.4871 O   0  0  0  0  0  0  0  0  0  0  0  0
    2.5600  -48.8518   16.7548 C   0  0  2  0  0  0  0  0  0  0  0  0
    1.3826  -49.3435   16.1224 O   0  0  0  0  0  0  0  0  0  0  0  0
    6.4897  -47.3471   14.6051 C   0  0  2  0  0  0  0  0  0  0  0  0
    4.3136  -47.7118    9.8828 C   0  0  2  0  0  0  0  0  0  0  0  0
    4.7852  -47.0021   11.0192 O   0  0  0  0  0  0  0  0  0  0  0  0
    1.7063  -53.7027    9.2804 C   0  0  2  0  0  0  0  0  0  0  0  0
    1.8731  -53.5937    7.8542 O   0  0  0  0  0  0  0  0  0  0  0  0
   -0.5604  -53.7831    4.1359 C   0  0  2  0  0  0  0  0  0  0  0  0
   -0.9246  -52.9197    3.0367 O   0  0  0  0  0  0  0  0  0  0  0  0
    3.0800  -47.5937   16.0021 C   0  0  2  0  0  0  0  0  0  0  0  0
    4.2908  -47.1062   16.6990 O   0  0  0  0  0  0  0  0  0  0  0  0
    5.4423  -46.3131   14.0904 C   0  0  2  0  0  0  0  0  0  0  0  0
    4.4492  -47.0412   13.3291 O   0  0  0  0  0  0  0  0  0  0  0  0
    3.5396  -46.7405    8.9986 C   0  0  0  0  0  0  0  0  0  0  0  0
    4.5085  -45.9495    8.2938 O   0  0  0  0  0  0  0  0  0  0  0  0
    1.1180  -52.4038    9.7985 C   0  0  1  0  0  0  0  0  0  0  0  0
    1.7859  -51.1255    9.7551 O   0  0  0  0  0  0  0  0  0  0  0  0
   -1.0976  -53.3132    5.4851 C   0  0  2  0  0  0  0  0  0  0  0  0
   -0.5680  -54.0299    6.6346 O   0  0  0  0  0  0  0  0  0  0  0  0
    2.0731  -46.4878   15.9927 C   0  0  0  0  0  0  0  0  0  0  0  0
    0.9921  -46.8920   15.1967 O   0  0  0  0  0  0  0  0  0  0  0  0
    6.1503  -45.2192   13.2103 C   0  0  1  0  0  0  0  0  0  0  0  0
    5.1434  -44.2360   12.7873 O   0  0  0  0  0  0  0  0  0  0  0  0
   -0.3463  -52.1436    9.2960 C   0  0  0  0  0  0  0  0  0  0  0  0
   -0.8782  -50.8127    9.6771 N   0  0  0  0  0  0  0  0  0  0  0  0
   -2.5944  -53.1867    5.7599 C   0  0  0  0  0  0  0  0  0  0  0  0
   -3.2198  -54.5068    5.7857 O   0  0  0  0  0  0  0  0  0  0  0  0
  1  2  1  6  0  0  0
  1  8  1  0  0  0  0
  1 36  1  0  0  0  0
  3  4  1  6  0  0  0
  3 10  1  0  0  0  0
  3 47  1  0  0  0  0
  5 11  1  0  0  0  0
  5 30  1  0  0  0  0
  5 38  1  1  0  0  0
  6 21  1  6  0  0  0
  6 42  1  0  0  0  0
  7 15  1  0  0  0  0
  7 44  1  0  0  0  0
  7 32  1  1  0  0  0
  8  9  1  6  0  0  0
  8 17  1  0  0  0  0
 11 12  1  6  0  0  0
 11 20  1  0  0  0  0
 13  6  1  0  0  0  0
 13 14  1  6  0  0  0
 15 16  1  6  0  0  0
 15 24  1  0  0  0  0
 17 26  1  0  0  0  0
 18 10  1  0  0  0  0
 18 19  1  6  0  0  0
 20 21  1  6  0  0  0
 20 29  1  0  0  0  0
 22 13  1  0  0  0  0
 22 23  1  1  0  0  0
 24 25  1  1  0  0  0
 24 33  1  0  0  0  0
 26 27  1  6  0  0  0
 26 35  1  0  0  0  0
 28  2  1  1  0  0  0
 28 18  1  0  0  0  0
 29 30  1  0  0  0  0
 29 39  1  6  0  0  0
 31 22  1  0  0  0  0
 31 32  1  6  0  0  0
 31 41  1  0  0  0  0
 33 34  1  6  0  0  0
 33 43  1  0  0  0  0
 35 36  1  0  0  0  0
 35 45  1  1  0  0  0
 37 28  1  0  0  0  0
 37 38  1  6  0  0  0
 39 40  1  0  0  0  0
 41 42  1  0  0  0  0
 41 49  1  6  0  0  0
 43 44  1  0  0  0  0
 43 51  1  6  0  0  0
 45 46  1  0  0  0  0
 47 37  1  0  0  0  0
 47 48  1  1  0  0  0
 49 50  1  0  0  0  0
 51 52  1  0  0  0  0
M  END
>  <CHROM.1>
-174.97604293,157.74029250,-178.00514326,179.83432234,70.46321710,54.08543818
-168.62924225,142.11798734,-67.82762503,-59.76313941,-173.86554678,68.14079290
3.16644432,-49.89474845,11.07681382,0.85140420,0.88442864,1.53218403

>  <Name>
2fd0_lig

>  <RI>
0

>  <Rbt.Current_Directory>
/home/itssahil/PROJECTS/Mol_Feturizer/New_Systems/rnas/2fd0

>  <Rbt.Executable>
rbdock ($Id: //depot/dev/client3/rdock/2013.1/src/exe/rbdock.cxx#4 $)

>  <Rbt.Library>
libRbt.so (2013.1, Build901 2013/11/27)

>  <Rbt.Parameter_File>
/export/apps/rDock/src/rDock_2013.1_src/data/scripts/dock_solv.prm

>  <Rbt.Receptor>
prm/pocket_docking_5.prm

>  <SCORE>
-28.8729

>  <SCORE.INTER>
-21.1316

>  <SCORE.INTER.CONST>
1

>  <SCORE.INTER.POLAR>
-1.88504

>  <SCORE.INTER.ROT>
12

>  <SCORE.INTER.SOLV>
17.2103

>  <SCORE.INTER.VDW>
-25.141

>  <SCORE.INTER.norm>
-0.406377

>  <SCORE.INTRA>
-7.74126

>  <SCORE.INTRA.DIHEDRAL>
-13.5498

>  <SCORE.INTRA.DIHEDRAL.0>
23.9727

>  <SCORE.INTRA.POLAR>
0

>  <SCORE.INTRA.POLAR.0>
0

>  <SCORE.INTRA.REPUL>
0

>  <SCORE.INTRA.REPUL.0>
0

>  <SCORE.INTRA.SOLV>
-3.46985

>  <SCORE.INTRA.SOLV.lig_0>
-115.028

>  <SCORE.INTRA.VDW>
0.768577

>  <SCORE.INTRA.VDW.0>
-6.82393

>  <SCORE.INTRA.norm>
-0.14887

>  <SCORE.RESTR>
0

>  <SCORE.RESTR.CAVITY>
0

>  <SCORE.RESTR.norm>
0

>  <SCORE.SYSTEM>
0

>  <SCORE.SYSTEM.CONST>
0

>  <SCORE.SYSTEM.DIHEDRAL>
0

>  <SCORE.SYSTEM.SOLV>
0

>  <SCORE.SYSTEM.norm>
0

>  <SCORE.heavy>
52

>  <SCORE.norm>
-0.555247

>  <RMSD>
4.340

$$$$
2fd0_lig
 OpenBabel11021811433D
libRbt.so/2013.1/901 2013/11/27
 52 56  0  0  0  0  0  0  0  0999 V2000
    6.0003  -45.3465   14.1806 C   0  0  2  0  0  0  0  0  0  0  0  0
    6.2471  -46.7372   13.9314 O   0  0  0  0  0  0  0  0  0  0  0  0
    7.8651  -50.1559   16.0732 C   0  0  2  0  0  0  0  0  0  0  0  0
    8.1280  -51.1447   17.1316 N   0  0  0  0  0  0  0  0  0  0  0  0
    4.1673  -49.5720   12.9431 C   0  0  1  0  0  0  0  0  0  0  0  0
    1.8413  -49.3788    9.2444 C   0  0  1  0  0  0  0  0  0  0  0  0
   -2.4012  -49.4866    6.1526 C   0  0  1  0  0  0  0  0  0  0  0  0
    4.4604  -45.0749   14.0172 C   0  0  2  0  0  0  0  0  0  0  0  0
    3.6644  -45.9177   14.8986 N   0  0  0  0  0  0  0  0  0  0  0  0
    8.1965  -48.6888   16.5935 C   0  0  0  0  0  0  0  0  0  0  0  0
    2.7420  -49.0633   12.8275 C   0  0  2  0  0  0  0  0  0  0  0  0
    1.7675  -50.0458   13.2782 O   0  0  0  0  0  0  0  0  0  0  0  0
    1.0364  -48.0306    8.9379 C   0  0  2  0  0  0  0  0  0  0  0  0
   -0.2968  -48.0573    9.5990 N   0  0  0  0  0  0  0  0  0  0  0  0
   -3.4004  -48.9167    7.1844 C   0  0  1  0  0  0  0  0  0  0  0  0
   -3.3631  -47.4692    7.1280 O   0  0  0  0  0  0  0  0  0  0  0  0
    4.0299  -45.2501   12.5137 C   0  0  0  0  0  0  0  0  0  0  0  0
    7.9201  -47.6151   15.4358 C   0  0  2  0  0  0  0  0  0  0  0  0
    8.2163  -46.2492   15.8922 N   0  0  0  0  0  0  0  0  0  0  0  0
    2.6464  -48.6485   11.3690 C   0  0  2  0  0  0  0  0  0  0  0  0
    1.8551  -49.5410   10.6326 O   0  0  0  0  0  0  0  0  0  0  0  0
    1.0141  -47.8370    7.3339 C   0  0  1  0  0  0  0  0  0  0  0  0
    2.3761  -47.8218    6.8695 O   0  0  0  0  0  0  0  0  0  0  0  0
   -4.8822  -49.3658    7.0686 C   0  0  1  0  0  0  0  0  0  0  0  0
   -5.5748  -48.4000    6.2675 O   0  0  0  0  0  0  0  0  0  0  0  0
    4.9164  -44.3124   11.6308 C   0  0  2  0  0  0  0  0  0  0  0  0
    4.5446  -44.4281   10.2609 O   0  0  0  0  0  0  0  0  0  0  0  0
    6.4352  -47.7191   14.9886 C   0  0  2  0  0  0  0  0  0  0  0  0
    4.0556  -48.7356   10.7357 C   0  0  2  0  0  0  0  0  0  0  0  0
    4.8818  -49.0033   11.8596 O   0  0  0  0  0  0  0  0  0  0  0  0
    0.2882  -49.0742    6.5878 C   0  0  2  0  0  0  0  0  0  0  0  0
   -1.0690  -49.0391    7.0678 O   0  0  0  0  0  0  0  0  0  0  0  0
   -5.1220  -50.7717    6.4715 C   0  0  2  0  0  0  0  0  0  0  0  0
   -6.1740  -51.3609    7.2668 O   0  0  0  0  0  0  0  0  0  0  0  0
    6.4130  -44.6976   11.8081 C   0  0  2  0  0  0  0  0  0  0  0  0
    6.7620  -44.5483   13.2383 O   0  0  0  0  0  0  0  0  0  0  0  0
    6.0441  -49.1548   14.5231 C   0  0  2  0  0  0  0  0  0  0  0  0
    4.6383  -49.1329   14.1777 O   0  0  0  0  0  0  0  0  0  0  0  0
    4.5477  -47.4533   10.0739 C   0  0  0  0  0  0  0  0  0  0  0  0
    3.5757  -47.0927    9.0806 O   0  0  0  0  0  0  0  0  0  0  0  0
    0.9580  -50.3252    7.1241 C   0  0  1  0  0  0  0  0  0  0  0  0
    1.2148  -50.5844    8.5201 O   0  0  0  0  0  0  0  0  0  0  0  0
   -3.8335  -51.5898    6.4610 C   0  0  2  0  0  0  0  0  0  0  0  0
   -2.6918  -50.9204    5.8578 O   0  0  0  0  0  0  0  0  0  0  0  0
    7.3196  -43.8115   11.0144 C   0  0  0  0  0  0  0  0  0  0  0  0
    7.1451  -42.4958   11.4663 O   0  0  0  0  0  0  0  0  0  0  0  0
    6.3369  -50.1925   15.6677 C   0  0  1  0  0  0  0  0  0  0  0  0
    6.0056  -51.5370   15.1756 O   0  0  0  0  0  0  0  0  0  0  0  0
    0.3495  -51.6507    6.5433 C   0  0  0  0  0  0  0  0  0  0  0  0
    0.6648  -51.8723    5.1112 N   0  0  0  0  0  0  0  0  0  0  0  0
   -3.7846  -53.0144    5.9133 C   0  0  0  0  0  0  0  0  0  0  0  0
   -4.1849  -53.0329    4.5084 O   0  0  0  0  0  0  0  0  0  0  0  0
  1  2  1  6  0  0  0
  1  8  1  0  0  0  0
  1 36  1  0  0  0  0
  3  4  1  1  0  0  0
  3 10  1  0  0  0  0
  3 47  1  0  0  0  0
  5 11  1  0  0  0  0
  5 30  1  0  0  0  0
  5 38  1  1  0  0  0
  6 21  1  1  0  0  0
  6 42  1  0  0  0  0
  7 15  1  0  0  0  0
  7 44  1  0  0  0  0
  7 32  1  1  0  0  0
  8  9  1  1  0  0  0
  8 17  1  0  0  0  0
 11 12  1  6  0  0  0
 11 20  1  0  0  0  0
 13  6  1  0  0  0  0
 13 14  1  6  0  0  0
 15 16  1  6  0  0  0
 15 24  1  0  0  0  0
 17 26  1  0  0  0  0
 18 10  1  0  0  0  0
 18 19  1  1  0  0  0
 20 21  1  6  0  0  0
 20 29  1  0  0  0  0
 22 13  1  0  0  0  0
 22 23  1  6  0  0  0
 24 25  1  6  0  0  0
 24 33  1  0  0  0  0
 26 27  1  6  0  0  0
 26 35  1  0  0  0  0
 28  2  1  6  0  0  0
 28 18  1  0  0  0  0
 29 30  1  0  0  0  0
 29 39  1  1  0  0  0
 31 22  1  0  0  0  0
 31 32  1  1  0  0  0
 31 41  1  0  0  0  0
 33 34  1  1  0  0  0
 33 43  1  0  0  0  0
 35 36  1  0  0  0  0
 35 45  1  6  0  0  0
 37 28  1  0  0  0  0
 37 38  1  1  0  0  0
 39 40  1  0  0  0  0
 41 42  1  0  0  0  0
 41 49  1  1  0  0  0
 43 44  1  0  0  0  0
 43 51  1  6  0  0  0
 45 46  1  0  0  0  0
 47 37  1  0  0  0  0
 47 48  1  6  0  0  0
 49 50  1  0  0  0  0
 51 52  1  0  0  0  0
M  END
>  <CHROM.1>
-100.45992037,-165.57586355,-70.47923943,-169.17143184,-171.23793217,-82.19119926
-56.97289318,146.95752462,60.65770071,126.47499336,70.40709798,59.62265697
2.35299843,-48.48908259,10.54455974,-0.04767448,-0.72453692,-0.45828688

>  <Name>
2fd0_lig

>  <RI>
1.29864e+07

>  <Rbt.Current_Directory>
/home/itssahil/PROJECTS/Mol_Feturizer/New_Systems/rnas/2fd0

>  <Rbt.Executable>
rbdock ($Id: //depot/dev/client3/rdock/2013.1/src/exe/rbdock.cxx#4 $)

>  <Rbt.Library>
libRbt.so (2013.1, Build901 2013/11/27)

>  <Rbt.Parameter_File>
/export/apps/rDock/src/rDock_2013.1_src/data/scripts/dock_solv.prm

>  <Rbt.Receptor>
prm/pocket_docking_3.prm

>  <SCORE>
-3.9666

>  <SCORE.INTER>
-5.605

>  <SCORE.INTER.CONST>
1

>  <SCORE.INTER.POLAR>
-0.863022

>  <SCORE.INTER.ROT>
12

>  <SCORE.INTER.SOLV>
11.2929

>  <SCORE.INTER.VDW>
-16.2242

>  <SCORE.INTER.norm>
-0.107789

>  <SCORE.INTRA>
1.48245

>  <SCORE.INTRA.DIHEDRAL>
-1.04216

>  <SCORE.INTRA.DIHEDRAL.0>
23.9727

>  <SCORE.INTRA.POLAR>
0

>  <SCORE.INTRA.POLAR.0>
0

>  <SCORE.INTRA.REPUL>
0.0669316

>  <SCORE.INTRA.REPUL.0>
0

>  <SCORE.INTRA.SOLV>
1.3874

>  <SCORE.INTRA.SOLV.lig_0>
-115.028

>  <SCORE.INTRA.VDW>
0.975174

>  <SCORE.INTRA.VDW.0>
-6.82393

>  <SCORE.INTRA.norm>
0.0285087

>  <SCORE.RESTR>
0.155947

>  <SCORE.RESTR.CAVITY>
0.155947

>  <SCORE.RESTR.norm>
0.00299898

>  <SCORE.SYSTEM>
0

>  <SCORE.SYSTEM.CONST>
0

>  <SCORE.SYSTEM.DIHEDRAL>
0

>  <SCORE.SYSTEM.SOLV>
0

>  <SCORE.SYSTEM.norm>
0

>  <SCORE.heavy>
52

>  <SCORE.norm>
-0.0762808

>  <RMSD>
4.393

$$$$
2fd0_lig
 OpenBabel11021811433D
libRbt.so/2013.1/901 2013/11/27
 52 56  0  0  0  0  0  0  0  0999 V2000
    7.5790  -45.7319   15.0951 C   0  0  2  0  0  0  0  0  0  0  0  0
    6.2764  -45.2696   14.7124 O   0  0  0  0  0  0  0  0  0  0  0  0
    4.4297  -41.6996   13.0580 C   0  0  2  0  0  0  0  0  0  0  0  0
    4.1894  -40.5071   12.2290 N   0  0  0  0  0  0  0  0  0  0  0  0
    3.8063  -45.9456   11.4263 C   0  0  1  0  0  0  0  0  0  0  0  0
    3.2305  -48.9787    8.4018 C   0  0  1  0  0  0  0  0  0  0  0  0
    0.9784  -52.7901    6.0395 C   0  0  1  0  0  0  0  0  0  0  0  0
    8.2216  -46.4838   13.8731 C   0  0  2  0  0  0  0  0  0  0  0  0
    8.2893  -45.6373   12.6900 N   0  0  0  0  0  0  0  0  0  0  0  0
    5.8187  -41.5688   13.8239 C   0  0  0  0  0  0  0  0  0  0  0  0
    4.3741  -47.0855   10.6007 C   0  0  2  0  0  0  0  0  0  0  0  0
    4.8110  -46.6479    9.2832 O   0  0  0  0  0  0  0  0  0  0  0  0
    2.1508  -49.2225    7.2468 C   0  0  2  0  0  0  0  0  0  0  0  0
    0.8942  -49.7807    7.8166 N   0  0  0  0  0  0  0  0  0  0  0  0
    1.9074  -53.9041    5.5070 C   0  0  1  0  0  0  0  0  0  0  0  0
    2.0468  -54.9282    6.5227 O   0  0  0  0  0  0  0  0  0  0  0  0
    7.4413  -47.8184   13.5793 C   0  0  0  0  0  0  0  0  0  0  0  0
    6.0730  -42.8632   14.7345 C   0  0  2  0  0  0  0  0  0  0  0  0
    7.3530  -42.7687   15.4519 N   0  0  0  0  0  0  0  0  0  0  0  0
    3.2555  -48.1134   10.6258 C   0  0  2  0  0  0  0  0  0  0  0  0
    2.6110  -48.2007    9.3840 O   0  0  0  0  0  0  0  0  0  0  0  0
    2.8589  -50.1236    6.1077 C   0  0  1  0  0  0  0  0  0  0  0  0
    4.0407  -49.4318    5.6653 O   0  0  0  0  0  0  0  0  0  0  0  0
    1.5047  -54.5962    4.1766 C   0  0  1  0  0  0  0  0  0  0  0  0
    0.7383  -55.7632    4.5005 O   0  0  0  0  0  0  0  0  0  0  0  0
    7.4169  -48.6773   14.8855 C   0  0  2  0  0  0  0  0  0  0  0  0
    6.7335  -49.9055   14.6558 O   0  0  0  0  0  0  0  0  0  0  0  0
    6.0569  -44.1303   13.8345 C   0  0  2  0  0  0  0  0  0  0  0  0
    2.1671  -47.6371   11.6171 C   0  0  2  0  0  0  0  0  0  0  0  0
    2.7761  -46.5053   12.2220 O   0  0  0  0  0  0  0  0  0  0  0  0
    3.3519  -51.5500    6.6881 C   0  0  2  0  0  0  0  0  0  0  0  0
    2.1404  -52.2101    7.1006 O   0  0  0  0  0  0  0  0  0  0  0  0
    0.6993  -53.7333    3.1780 C   0  0  2  0  0  0  0  0  0  0  0  0
    1.2374  -54.0396    1.8730 O   0  0  0  0  0  0  0  0  0  0  0  0
    6.7070  -47.8793   16.0164 C   0  0  2  0  0  0  0  0  0  0  0  0
    7.4561  -46.6219   16.2344 O   0  0  0  0  0  0  0  0  0  0  0  0
    4.7368  -44.2735   13.0172 C   0  0  2  0  0  0  0  0  0  0  0  0
    4.8615  -45.4566   12.1921 O   0  0  0  0  0  0  0  0  0  0  0  0
    1.8111  -48.6335   12.7147 C   0  0  0  0  0  0  0  0  0  0  0  0
    1.2192  -49.7731   12.0726 O   0  0  0  0  0  0  0  0  0  0  0  0
    4.1711  -51.2278    7.9237 C   0  0  1  0  0  0  0  0  0  0  0  0
    3.7659  -50.3098    8.9606 O   0  0  0  0  0  0  0  0  0  0  0  0
    0.7830  -52.2531    3.5408 C   0  0  2  0  0  0  0  0  0  0  0  0
    0.4575  -51.9458    4.9247 O   0  0  0  0  0  0  0  0  0  0  0  0
    6.6822  -48.6343   17.3073 C   0  0  0  0  0  0  0  0  0  0  0  0
    8.0051  -48.7880   17.7455 O   0  0  0  0  0  0  0  0  0  0  0  0
    4.5002  -42.9878   12.1433 C   0  0  1  0  0  0  0  0  0  0  0  0
    3.2246  -43.1365   11.4291 O   0  0  0  0  0  0  0  0  0  0  0  0
    4.7057  -52.5056    8.6624 C   0  0  0  0  0  0  0  0  0  0  0  0
    5.6062  -53.3404    7.8308 N   0  0  0  0  0  0  0  0  0  0  0  0
    0.0685  -51.1786    2.7241 C   0  0  0  0  0  0  0  0  0  0  0  0
   -1.3595  -51.4740    2.6344 O   0  0  0  0  0  0  0  0  0  0  0  0
  1  2  1  6  0  0  0
  1  8  1  0  0  0  0
  1 36  1  0  0  0  0
  3  4  1  6  0  0  0
  3 10  1  0  0  0  0
  3 47  1  0  0  0  0
  5 11  1  0  0  0  0
  5 30  1  0  0  0  0
  5 38  1  1  0  0  0
  6 21  1  1  0  0  0
  6 42  1  0  0  0  0
  7 15  1  0  0  0  0
  7 44  1  0  0  0  0
  7 32  1  1  0  0  0
  8  9  1  6  0  0  0
  8 17  1  0  0  0  0
 11 12  1  6  0  0  0
 11 20  1  0  0  0  0
 13  6  1  0  0  0  0
 13 14  1  1  0  0  0
 15 16  1  1  0  0  0
 15 24  1  0  0  0  0
 17 26  1  0  0  0  0
 18 10  1  0  0  0  0
 18 19  1  6  0  0  0
 20 21  1  6  0  0  0
 20 29  1  0  0  0  0
 22 13  1  0  0  0  0
 22 23  1  1  0  0  0
 24 25  1  1  0  0  0
 24 33  1  0  0  0  0
 26 27  1  6  0  0  0
 26 35  1  0  0  0  0
 28  2  1  1  0  0  0
 28 18  1  0  0  0  0
 29 30  1  0  0  0  0
 29 39  1  1  0  0  0
 31 22  1  0  0  0  0
 31 32  1  1  0  0  0
 31 41  1  0  0  0  0
 33 34  1  6  0  0  0
 33 43  1  0  0  0  0
 35 36  1  0  0  0  0
 35 45  1  1  0  0  0
 37 28  1  0  0  0  0
 37 38  1  6  0  0  0
 39 40  1  0  0  0  0
 41 42  1  0  0  0  0
 41 49  1  1  0  0  0
 43 44  1  0  0  0  0
 43 51  1  6  0  0  0
 45 46  1  0  0  0  0
 47 37  1  0  0  0  0
 47 48  1  1  0  0  0
 49 50  1  0  0  0  0
 51 52  1  0  0  0  0
M  END
>  <CHROM.1>
-74.77517398,173.86533139,165.90078004,68.55243626,81.17362161,-85.74158489
-65.04561031,70.03967210,64.74474394,173.91704636,61.13398404,55.67392564
3.91273789,-48.60197838,10.10557237,-0.84570732,0.98704338,-2.88240462

>  <Name>
2fd0_lig

>  <RI>
0

>  <Rbt.Current_Directory>
/home/itssahil/PROJECTS/Mol_Feturizer/New_Systems/rnas/2fd0

>  <Rbt.Executable>
rbdock ($Id: //depot/dev/client3/rdock/2013.1/src/exe/rbdock.cxx#4 $)

>  <Rbt.Library>
libRbt.so (2013.1, Build901 2013/11/27)

>  <Rbt.Parameter_File>
/export/apps/rDock/src/rDock_2013.1_src/data/scripts/dock_solv.prm

>  <Rbt.Receptor>
prm/pocket_docking_8.prm

>  <SCORE>
-20.6581

>  <SCORE.INTER>
-14.2373

>  <SCORE.INTER.CONST>
1

>  <SCORE.INTER.POLAR>
-1.71187

>  <SCORE.INTER.ROT>
12

>  <SCORE.INTER.SOLV>
20.3005

>  <SCORE.INTER.VDW>
-22.1521

>  <SCORE.INTER.norm>
-0.273795

>  <SCORE.INTRA>
-6.42079

>  <SCORE.INTRA.DIHEDRAL>
-14.1426

>  <SCORE.INTRA.DIHEDRAL.0>
23.9727

>  <SCORE.INTRA.POLAR>
0

>  <SCORE.INTRA.POLAR.0>
0

>  <SCORE.INTRA.REPUL>
0

>  <SCORE.INTRA.REPUL.0>
0

>  <SCORE.INTRA.SOLV>
-0.537339

>  <SCORE.INTRA.SOLV.lig_0>
-115.028

>  <SCORE.INTRA.VDW>
0.919194

>  <SCORE.INTRA.VDW.0>
-6.82393

>  <SCORE.INTRA.norm>
-0.123477

>  <SCORE.RESTR>
0

>  <SCORE.RESTR.CAVITY>
0

>  <SCORE.RESTR.norm>
0

>  <SCORE.SYSTEM>
0

>  <SCORE.SYSTEM.CONST>
0

>  <SCORE.SYSTEM.DIHEDRAL>
0

>  <SCORE.SYSTEM.SOLV>
0

>  <SCORE.SYSTEM.norm>
0

>  <SCORE.heavy>
52

>  <SCORE.norm>
-0.397271

>  <RMSD>
4.402

$$$$
2fd0_lig
 OpenBabel11021811433D
libRbt.so/2013.1/901 2013/11/27
 52 56  0  0  0  0  0  0  0  0999 V2000
    3.3608  -48.7514   14.0366 C   0  0  2  0  0  0  0  0  0  0  0  0
    3.3427  -48.3391   12.6631 O   0  0  0  0  0  0  0  0  0  0  0  0
    4.4108  -44.4927   10.9437 C   0  0  2  0  0  0  0  0  0  0  0  0
    5.2037  -43.3554   10.4486 N   0  0  0  0  0  0  0  0  0  0  0  0
    3.5828  -48.6452    8.7698 C   0  0  1  0  0  0  0  0  0  0  0  0
   -0.2698  -50.3569    7.7989 C   0  0  1  0  0  0  0  0  0  0  0  0
   -4.6870  -50.2235    5.5468 C   0  0  1  0  0  0  0  0  0  0  0  0
    3.2201  -50.3163   14.0908 C   0  0  2  0  0  0  0  0  0  0  0  0
    4.2663  -50.9818   13.3270 N   0  0  0  0  0  0  0  0  0  0  0  0
    4.7499  -44.7784   12.4722 C   0  0  0  0  0  0  0  0  0  0  0  0
    2.2084  -49.1002    9.2254 C   0  0  2  0  0  0  0  0  0  0  0  0
    2.1582  -50.5321    9.4812 O   0  0  0  0  0  0  0  0  0  0  0  0
   -0.5075  -51.5735    6.7876 C   0  0  2  0  0  0  0  0  0  0  0  0
   -0.6245  -51.0750    5.3900 N   0  0  0  0  0  0  0  0  0  0  0  0
   -5.6896  -51.3605    5.8464 C   0  0  1  0  0  0  0  0  0  0  0  0
   -5.8318  -51.4984    7.2819 O   0  0  0  0  0  0  0  0  0  0  0  0
    1.7889  -50.7547   13.6054 C   0  0  0  0  0  0  0  0  0  0  0  0
    3.8774  -46.0099   13.0121 C   0  0  2  0  0  0  0  0  0  0  0  0
    4.1739  -46.2968   14.4233 N   0  0  0  0  0  0  0  0  0  0  0  0
    1.2976  -48.5868    8.1229 C   0  0  2  0  0  0  0  0  0  0  0  0
    0.8254  -49.6332    7.3186 O   0  0  0  0  0  0  0  0  0  0  0  0
   -1.7742  -52.4144    7.3348 C   0  0  1  0  0  0  0  0  0  0  0  0
   -1.4854  -52.8246    8.6837 O   0  0  0  0  0  0  0  0  0  0  0  0
   -7.1100  -51.2426    5.2303 C   0  0  1  0  0  0  0  0  0  0  0  0
   -7.9580  -50.6063    6.1947 O   0  0  0  0  0  0  0  0  0  0  0  0
    0.7210  -50.0114   14.4725 C   0  0  2  0  0  0  0  0  0  0  0  0
   -0.5915  -50.3959   14.0756 O   0  0  0  0  0  0  0  0  0  0  0  0
    4.1692  -47.2624   12.1392 C   0  0  2  0  0  0  0  0  0  0  0  0
    2.1258  -47.6864    7.1753 C   0  0  2  0  0  0  0  0  0  0  0  0
    3.3679  -47.5833    7.8566 O   0  0  0  0  0  0  0  0  0  0  0  0
   -3.1123  -51.5096    7.4064 C   0  0  2  0  0  0  0  0  0  0  0  0
   -3.3707  -51.1386    6.0392 O   0  0  0  0  0  0  0  0  0  0  0  0
   -7.2095  -50.4710    3.8941 C   0  0  2  0  0  0  0  0  0  0  0  0
   -8.1366  -51.2197    3.0777 O   0  0  0  0  0  0  0  0  0  0  0  0
    0.8967  -48.4749   14.3046 C   0  0  2  0  0  0  0  0  0  0  0  0
    2.2638  -48.1158   14.7423 O   0  0  0  0  0  0  0  0  0  0  0  0
    3.9072  -47.0154   10.6222 C   0  0  2  0  0  0  0  0  0  0  0  0
    4.2553  -48.2306    9.9165 O   0  0  0  0  0  0  0  0  0  0  0  0
    1.5728  -46.2802    6.9718 C   0  0  0  0  0  0  0  0  0  0  0  0
    0.1603  -46.4115    6.7509 O   0  0  0  0  0  0  0  0  0  0  0  0
   -2.7230  -50.2639    8.1797 C   0  0  1  0  0  0  0  0  0  0  0  0
   -1.5320  -49.4861    7.9370 O   0  0  0  0  0  0  0  0  0  0  0  0
   -5.8337  -50.3006    3.2557 C   0  0  2  0  0  0  0  0  0  0  0  0
   -4.8169  -49.7495    4.1377 O   0  0  0  0  0  0  0  0  0  0  0  0
   -0.0754  -47.7032   15.1393 C   0  0  0  0  0  0  0  0  0  0  0  0
    0.2745  -47.8779   16.4857 O   0  0  0  0  0  0  0  0  0  0  0  0
    4.7613  -45.7952   10.1179 C   0  0  1  0  0  0  0  0  0  0  0  0
    4.4499  -45.5605    8.7011 O   0  0  0  0  0  0  0  0  0  0  0  0
   -3.8950  -49.2284    8.3160 C   0  0  0  0  0  0  0  0  0  0  0  0
   -3.5252  -48.0079    9.0731 N   0  0  0  0  0  0  0  0  0  0  0  0
   -5.6422  -49.5644    1.9316 C   0  0  0  0  0  0  0  0  0  0  0  0
   -4.2283  -49.5371    1.5650 O   0  0  0  0  0  0  0  0  0  0  0  0
  1  2  1  6  0  0  0
  1  8  1  0  0  0  0
  1 36  1  0  0  0  0
  3  4  1  6  0  0  0
  3 10  1  0  0  0  0
  3 47  1  0  0  0  0
  5 11  1  0  0  0  0
  5 30  1  0  0  0  0
  5 38  1  1  0  0  0
  6 21  1  6  0  0  0
  6 42  1  0  0  0  0
  7 15  1  0  0  0  0
  7 44  1  0  0  0  0
  7 32  1  6  0  0  0
  8  9  1  6  0  0  0
  8 17  1  0  0  0  0
 11 12  1  6  0  0  0
 11 20  1  0  0  0  0
 13  6  1  0  0  0  0
 13 14  1  6  0  0  0
 15 16  1  1  0  0  0
 15 24  1  0  0  0  0
 17 26  1  0  0  0  0
 18 10  1  0  0  0  0
 18 19  1  1  0  0  0
 20 21  1  6  0  0  0
 20 29  1  0  0  0  0
 22 13  1  0  0  0  0
 22 23  1  1  0  0  0
 24 25  1  1  0  0  0
 24 33  1  0  0  0  0
 26 27  1  6  0  0  0
 26 35  1  0  0  0  0
 28  2  1  1  0  0  0
 28 18  1  0  0  0  0
 29 30  1  0  0  0  0
 29 39  1  1  0  0  0
 31 22  1  0  0  0  0
 31 32  1  6  0  0  0
 31 41  1  0  0  0  0
 33 34  1  6  0  0  0
 33 43  1  0  0  0  0
 35 36  1  0  0  0  0
 35 45  1  1  0  0  0
 37 28  1  0  0  0  0
 37 38  1  6  0  0  0
 39 40  1  0  0  0  0
 41 42  1  0  0  0  0
 41 49  1  6  0  0  0
 43 44  1  0  0  0  0
 43 51  1  6  0  0  0
 45 46  1  0  0  0  0
 47 37  1  0  0  0  0
 47 48  1  6  0  0  0
 49 50  1  0  0  0  0
 51 52  1  0  0  0  0
M  END
>  <CHROM.1>
-142.12331106,-71.15681363,-174.05996450,-69.79363116,81.64387214,-54.70720632
-45.21700282,178.14202140,69.06216260,146.81204158,179.87827862,179.31495236
-0.21929793,-49.02340030,9.05553738,0.59311766,0.52556140,1.82363722

>  <Name>
2fd0_lig

>  <RI>
2.00683e+07

>  <Rbt.Current_Directory>
/home/itssahil/PROJECTS/Mol_Feturizer/New_Systems/rnas/2fd0

>  <Rbt.Executable>
rbdock ($Id: //depot/dev/client3/rdock/2013.1/src/exe/rbdock.cxx#4 $)

>  <Rbt.Library>
libRbt.so (2013.1, Build901 2013/11/27)

>  <Rbt.Parameter_File>
/export/apps/rDock/src/rDock_2013.1_src/data/scripts/dock_solv.prm

>  <Rbt.Receptor>
prm/pocket_docking_4.prm

>  <SCORE>
-4.74779

>  <SCORE.INTER>
-4.26013

>  <SCORE.INTER.CONST>
1

>  <SCORE.INTER.POLAR>
-1.66941

>  <SCORE.INTER.ROT>
12

>  <SCORE.INTER.SOLV>
15.1826

>  <SCORE.INTER.VDW>
-13.9362

>  <SCORE.INTER.norm>
-0.0819256

>  <SCORE.INTRA>
-0.487655

>  <SCORE.INTRA.DIHEDRAL>
-8.58051

>  <SCORE.INTRA.DIHEDRAL.0>
23.9727

>  <SCORE.INTRA.POLAR>
0

>  <SCORE.INTRA.POLAR.0>
0

>  <SCORE.INTRA.REPUL>
0

>  <SCORE.INTRA.REPUL.0>
0

>  <SCORE.INTRA.SOLV>
-1.4568

>  <SCORE.INTRA.SOLV.lig_0>
-115.028

>  <SCORE.INTRA.VDW>
4.531

>  <SCORE.INTRA.VDW.0>
-6.82393

>  <SCORE.INTRA.norm>
-0.00937798

>  <SCORE.RESTR>
0

>  <SCORE.RESTR.CAVITY>
0

>  <SCORE.RESTR.norm>
0

>  <SCORE.SYSTEM>
0

>  <SCORE.SYSTEM.CONST>
0

>  <SCORE.SYSTEM.DIHEDRAL>
0

>  <SCORE.SYSTEM.SOLV>
0

>  <SCORE.SYSTEM.norm>
0

>  <SCORE.heavy>
52

>  <SCORE.norm>
-0.0913036

>  <RMSD>
4.422

$$$$
2fd0_lig
 OpenBabel11021811433D
libRbt.so/2013.1/901 2013/11/27
 52 56  0  0  0  0  0  0  0  0999 V2000
    5.4973  -47.9986   16.8523 C   0  0  2  0  0  0  0  0  0  0  0  0
    5.9726  -48.2519   15.5231 O   0  0  0  0  0  0  0  0  0  0  0  0
    6.9236  -44.2737   14.0525 C   0  0  2  0  0  0  0  0  0  0  0  0
    7.4304  -43.1815   13.2057 N   0  0  0  0  0  0  0  0  0  0  0  0
    4.6958  -47.8009   12.2771 C   0  0  1  0  0  0  0  0  0  0  0  0
    3.1866  -51.0927   10.1289 C   0  0  1  0  0  0  0  0  0  0  0  0
    0.7836  -53.4874    6.4398 C   0  0  1  0  0  0  0  0  0  0  0  0
    5.1416  -49.3735   17.5265 C   0  0  2  0  0  0  0  0  0  0  0  0
    6.2792  -50.2826   17.5379 N   0  0  0  0  0  0  0  0  0  0  0  0
    8.1104  -45.2527   14.4600 C   0  0  0  0  0  0  0  0  0  0  0  0
    3.5702  -48.7849   12.0154 C   0  0  2  0  0  0  0  0  0  0  0  0
    3.8315  -50.0907   12.6024 O   0  0  0  0  0  0  0  0  0  0  0  0
    4.0158  -52.2937    9.4735 C   0  0  2  0  0  0  0  0  0  0  0  0
    4.3444  -51.9875    8.0545 N   0  0  0  0  0  0  0  0  0  0  0  0
    1.7768  -53.9409    5.3463 C   0  0  1  0  0  0  0  0  0  0  0  0
    2.1318  -55.3269    5.5764 O   0  0  0  0  0  0  0  0  0  0  0  0
    3.8951  -50.0239   16.8196 C   0  0  0  0  0  0  0  0  0  0  0  0
    7.5582  -46.4349   15.3910 C   0  0  2  0  0  0  0  0  0  0  0  0
    8.6358  -47.3563   15.7800 N   0  0  0  0  0  0  0  0  0  0  0  0
    3.4319  -48.7485   10.5027 C   0  0  2  0  0  0  0  0  0  0  0  0
    3.9212  -49.9230    9.9145 O   0  0  0  0  0  0  0  0  0  0  0  0
    3.1717  -53.6502    9.7153 C   0  0  1  0  0  0  0  0  0  0  0  0
    2.9575  -53.7934   11.1312 O   0  0  0  0  0  0  0  0  0  0  0  0
    1.3267  -53.7976    3.8672 C   0  0  1  0  0  0  0  0  0  0  0  0
    0.7344  -55.0388    3.4638 O   0  0  0  0  0  0  0  0  0  0  0  0
    2.7145  -48.9993   16.8531 C   0  0  2  0  0  0  0  0  0  0  0  0
    1.5583  -49.5583   16.2375 O   0  0  0  0  0  0  0  0  0  0  0  0
    6.4447  -47.2059   14.6285 C   0  0  2  0  0  0  0  0  0  0  0  0
    4.3264  -47.6130    9.9505 C   0  0  2  0  0  0  0  0  0  0  0  0
    4.7671  -46.9650   11.1352 O   0  0  0  0  0  0  0  0  0  0  0  0
    1.7071  -53.5777    9.0342 C   0  0  2  0  0  0  0  0  0  0  0  0
    1.9706  -53.4528    7.6240 O   0  0  0  0  0  0  0  0  0  0  0  0
    0.3335  -52.6513    3.5668 C   0  0  2  0  0  0  0  0  0  0  0  0
    0.7717  -52.0702    2.3191 O   0  0  0  0  0  0  0  0  0  0  0  0
    3.1356  -47.7001   16.1085 C   0  0  2  0  0  0  0  0  0  0  0  0
    4.3266  -47.1439   16.7879 O   0  0  0  0  0  0  0  0  0  0  0  0
    5.2835  -46.2789   14.1561 C   0  0  2  0  0  0  0  0  0  0  0  0
    4.3402  -47.0996   13.4263 O   0  0  0  0  0  0  0  0  0  0  0  0
    3.6069  -46.5869    9.0823 C   0  0  0  0  0  0  0  0  0  0  0  0
    3.2053  -47.2607    7.8799 O   0  0  0  0  0  0  0  0  0  0  0  0
    1.0904  -52.2823    9.5270 C   0  0  1  0  0  0  0  0  0  0  0  0
    1.7649  -51.0068    9.5443 O   0  0  0  0  0  0  0  0  0  0  0  0
    0.2828  -51.6534    4.7205 C   0  0  2  0  0  0  0  0  0  0  0  0
    0.0623  -52.2469    6.0300 O   0  0  0  0  0  0  0  0  0  0  0  0
    2.0590  -46.6622   16.1357 C   0  0  0  0  0  0  0  0  0  0  0  0
    1.0222  -47.0904   15.2947 O   0  0  0  0  0  0  0  0  0  0  0  0
    5.8494  -45.1193   13.2572 C   0  0  1  0  0  0  0  0  0  0  0  0
    4.7367  -44.2390   12.8748 O   0  0  0  0  0  0  0  0  0  0  0  0
   -0.3355  -52.0091    8.9298 C   0  0  0  0  0  0  0  0  0  0  0  0
   -1.3661  -52.9727    9.3864 N   0  0  0  0  0  0  0  0  0  0  0  0
   -0.6268  -50.4272    4.6898 C   0  0  0  0  0  0  0  0  0  0  0  0
   -2.0274  -50.8352    4.6094 O   0  0  0  0  0  0  0  0  0  0  0  0
  1  2  1  6  0  0  0
  1  8  1  0  0  0  0
  1 36  1  0  0  0  0
  3  4  1  6  0  0  0
  3 10  1  0  0  0  0
  3 47  1  0  0  0  0
  5 11  1  0  0  0  0
  5 30  1  0  0  0  0
  5 38  1  1  0  0  0
  6 21  1  6  0  0  0
  6 42  1  0  0  0  0
  7 15  1  0  0  0  0
  7 44  1  0  0  0  0
  7 32  1  1  0  0  0
  8  9  1  6  0  0  0
  8 17  1  0  0  0  0
 11 12  1  6  0  0  0
 11 20  1  0  0  0  0
 13  6  1  0  0  0  0
 13 14  1  6  0  0  0
 15 16  1  1  0  0  0
 15 24  1  0  0  0  0
 17 26  1  0  0  0  0
 18 10  1  0  0  0  0
 18 19  1  6  0  0  0
 20 21  1  6  0  0  0
 20 29  1  0  0  0  0
 22 13  1  0  0  0  0
 22 23  1  1  0  0  0
 24 25  1  1  0  0  0
 24 33  1  0  0  0  0
 26 27  1  6  0  0  0
 26 35  1  0  0  0  0
 28  2  1  1  0  0  0
 28 18  1  0  0  0  0
 29 30  1  0  0  0  0
 29 39  1  6  0  0  0
 31 22  1  0  0  0  0
 31 32  1  6  0  0  0
 31 41  1  0  0  0  0
 33 34  1  6  0  0  0
 33 43  1  0  0  0  0
 35 36  1  0  0  0  0
 35 45  1  1  0  0  0
 37 28  1  0  0  0  0
 37 38  1  6  0  0  0
 39 40  1  0  0  0  0
 41 42  1  0  0  0  0
 41 49  1  6  0  0  0
 43 44  1  0  0  0  0
 43 51  1  6  0  0  0
 45 46  1  0  0  0  0
 47 37  1  0  0  0  0
 47 48  1  1  0  0  0
 49 50  1  0  0  0  0
 51 52  1  0  0  0  0
M  END
>  <CHROM.1>
-177.37874251,166.32439585,-175.02226503,-156.15136116,69.47515828,54.61243197
-67.48250415,173.81804508,-71.15952430,-60.18365027,66.88789901,61.74186769
3.23155298,-49.68741977,10.94341044,0.65025875,1.08302806,1.88422113

>  <Name>
2fd0_lig

>  <RI>
0

>  <Rbt.Current_Directory>
/home/itssahil/PROJECTS/Mol_Feturizer/New_Systems/rnas/2fd0

>  <Rbt.Executable>
rbdock ($Id: //depot/dev/client3/rdock/2013.1/src/exe/rbdock.cxx#4 $)

>  <Rbt.Library>
libRbt.so (2013.1, Build901 2013/11/27)

>  <Rbt.Parameter_File>
/export/apps/rDock/src/rDock_2013.1_src/data/scripts/dock_solv.prm

>  <Rbt.Receptor>
prm/pocket_docking_5.prm

>  <SCORE>
-25.626

>  <SCORE.INTER>
-16.8783

>  <SCORE.INTER.CONST>
1

>  <SCORE.INTER.POLAR>
-0.895246

>  <SCORE.INTER.ROT>
12

>  <SCORE.INTER.SOLV>
15.4996

>  <SCORE.INTER.VDW>
-25.0346

>  <SCORE.INTER.norm>
-0.324583

>  <SCORE.INTRA>
-8.74771

>  <SCORE.INTRA.DIHEDRAL>
-17.2885

>  <SCORE.INTRA.DIHEDRAL.0>
23.9727

>  <SCORE.INTRA.POLAR>
0

>  <SCORE.INTRA.POLAR.0>
0

>  <SCORE.INTRA.REPUL>
0

>  <SCORE.INTRA.REPUL.0>
0

>  <SCORE.INTRA.SOLV>
-2.76368

>  <SCORE.INTRA.SOLV.lig_0>
-115.028

>  <SCORE.INTRA.VDW>
1.27839

>  <SCORE.INTRA.VDW.0>
-6.82393

>  <SCORE.INTRA.norm>
-0.168225

>  <SCORE.RESTR>
0

>  <SCORE.RESTR.CAVITY>
0

>  <SCORE.RESTR.norm>
0

>  <SCORE.SYSTEM>
0

>  <SCORE.SYSTEM.CONST>
0

>  <SCORE.SYSTEM.DIHEDRAL>
0

>  <SCORE.SYSTEM.SOLV>
0

>  <SCORE.SYSTEM.norm>
0

>  <SCORE.heavy>
52

>  <SCORE.norm>
-0.492808

>  <RMSD>
4.438

$$$$
2fd0_lig
 OpenBabel11021811433D
libRbt.so/2013.1/901 2013/11/27
 52 56  0  0  0  0  0  0  0  0999 V2000
    6.7242  -44.4304   12.5088 C   0  0  2  0  0  0  0  0  0  0  0  0
    6.7483  -45.8626   12.4384 O   0  0  0  0  0  0  0  0  0  0  0  0
    6.9147  -49.2991   15.0946 C   0  0  2  0  0  0  0  0  0  0  0  0
    6.6854  -50.1874   16.2459 N   0  0  0  0  0  0  0  0  0  0  0  0
    3.8306  -48.6150   11.6749 C   0  0  1  0  0  0  0  0  0  0  0  0
    1.2054  -50.0694    8.6664 C   0  0  1  0  0  0  0  0  0  0  0  0
   -2.9920  -51.3014    5.6765 C   0  0  1  0  0  0  0  0  0  0  0  0
    6.4583  -43.8633   11.0669 C   0  0  2  0  0  0  0  0  0  0  0  0
    5.2227  -44.3838   10.4986 N   0  0  0  0  0  0  0  0  0  0  0  0
    7.5330  -47.9151   15.5796 C   0  0  0  0  0  0  0  0  0  0  0  0
    2.4619  -48.0039   11.4367 C   0  0  2  0  0  0  0  0  0  0  0  0
    1.4733  -48.4746   12.3955 O   0  0  0  0  0  0  0  0  0  0  0  0
    0.4133  -49.2004    7.5815 C   0  0  2  0  0  0  0  0  0  0  0  0
   -0.9227  -48.8047    8.1046 N   0  0  0  0  0  0  0  0  0  0  0  0
   -3.9379  -50.5037    6.6022 C   0  0  1  0  0  0  0  0  0  0  0  0
   -3.5728  -49.1021    6.5554 O   0  0  0  0  0  0  0  0  0  0  0  0
    7.6878  -44.1539   10.1286 C   0  0  0  0  0  0  0  0  0  0  0  0
    7.7920  -46.9538   14.3233 C   0  0  2  0  0  0  0  0  0  0  0  0
    8.3615  -45.6655   14.7448 N   0  0  0  0  0  0  0  0  0  0  0  0
    2.1900  -48.3368    9.9794 C   0  0  2  0  0  0  0  0  0  0  0  0
    1.2123  -49.3335    9.8547 O   0  0  0  0  0  0  0  0  0  0  0  0
    0.3990  -50.0458    6.2045 C   0  0  1  0  0  0  0  0  0  0  0  0
    1.7630  -50.3284    5.8428 O   0  0  0  0  0  0  0  0  0  0  0  0
   -5.4631  -50.6140    6.3328 C   0  0  1  0  0  0  0  0  0  0  0  0
   -5.8378  -49.5339    5.4682 O   0  0  0  0  0  0  0  0  0  0  0  0
    8.9721  -43.5610   10.7949 C   0  0  2  0  0  0  0  0  0  0  0  0
   10.1076  -43.7877    9.9659 O   0  0  0  0  0  0  0  0  0  0  0  0
    6.4509  -46.7253   13.5717 C   0  0  2  0  0  0  0  0  0  0  0  0
    3.4723  -48.9445    9.3625 C   0  0  2  0  0  0  0  0  0  0  0  0
    4.4273  -48.7644   10.3984 O   0  0  0  0  0  0  0  0  0  0  0  0
   -0.3345  -51.4756    6.3830 C   0  0  2  0  0  0  0  0  0  0  0  0
   -1.6932  -51.1440    6.7257 O   0  0  0  0  0  0  0  0  0  0  0  0
   -5.9490  -51.9425    5.7087 C   0  0  2  0  0  0  0  0  0  0  0  0
   -7.1810  -52.2674    6.3893 O   0  0  0  0  0  0  0  0  0  0  0  0
    9.1886  -44.2268   12.1840 C   0  0  2  0  0  0  0  0  0  0  0  0
    7.9969  -43.9541   13.0176 O   0  0  0  0  0  0  0  0  0  0  0  0
    5.7745  -48.0572   13.1252 C   0  0  2  0  0  0  0  0  0  0  0  0
    4.5231  -47.7160   12.4820 O   0  0  0  0  0  0  0  0  0  0  0  0
    3.9845  -48.2404    8.1109 C   0  0  0  0  0  0  0  0  0  0  0  0
    2.9790  -48.3979    7.0983 O   0  0  0  0  0  0  0  0  0  0  0  0
    0.3225  -52.1250    7.5863 C   0  0  1  0  0  0  0  0  0  0  0  0
    0.5714  -51.4613    8.8432 O   0  0  0  0  0  0  0  0  0  0  0  0
   -4.8815  -53.0269    5.8278 C   0  0  2  0  0  0  0  0  0  0  0  0
   -3.5641  -52.6400    5.3479 O   0  0  0  0  0  0  0  0  0  0  0  0
   10.3856  -43.6754   12.8914 C   0  0  0  0  0  0  0  0  0  0  0  0
   11.5230  -44.0042   12.1405 O   0  0  0  0  0  0  0  0  0  0  0  0
    5.5433  -48.9897   14.3700 C   0  0  1  0  0  0  0  0  0  0  0  0
    4.9537  -50.2528   13.9047 O   0  0  0  0  0  0  0  0  0  0  0  0
   -0.2951  -53.5217    7.9501 C   0  0  0  0  0  0  0  0  0  0  0  0
    0.4033  -54.2090    9.0634 N   0  0  0  0  0  0  0  0  0  0  0  0
   -5.0968  -54.4369    5.2826 C   0  0  0  0  0  0  0  0  0  0  0  0
   -5.4658  -54.3848    3.8700 O   0  0  0  0  0  0  0  0  0  0  0  0
  1  2  1  6  0  0  0
  1  8  1  0  0  0  0
  1 36  1  0  0  0  0
  3  4  1  1  0  0  0
  3 10  1  0  0  0  0
  3 47  1  0  0  0  0
  5 11  1  0  0  0  0
  5 30  1  0  0  0  0
  5 38  1  1  0  0  0
  6 21  1  1  0  0  0
  6 42  1  0  0  0  0
  7 15  1  0  0  0  0
  7 44  1  0  0  0  0
  7 32  1  1  0  0  0
  8  9  1  6  0  0  0
  8 17  1  0  0  0  0
 11 12  1  1  0  0  0
 11 20  1  0  0  0  0
 13  6  1  0  0  0  0
 13 14  1  1  0  0  0
 15 16  1  6  0  0  0
 15 24  1  0  0  0  0
 17 26  1  0  0  0  0
 18 10  1  0  0  0  0
 18 19  1  1  0  0  0
 20 21  1  1  0  0  0
 20 29  1  0  0  0  0
 22 13  1  0  0  0  0
 22 23  1  1  0  0  0
 24 25  1  6  0  0  0
 24 33  1  0  0  0  0
 26 27  1  6  0  0  0
 26 35  1  0  0  0  0
 28  2  1  6  0  0  0
 28 18  1  0  0  0  0
 29 30  1  0  0  0  0
 29 39  1  6  0  0  0
 31 22  1  0  0  0  0
 31 32  1  1  0  0  0
 31 41  1  0  0  0  0
 33 34  1  1  0  0  0
 33 43  1  0  0  0  0
 35 36  1  0  0  0  0
 35 45  1  1  0  0  0
 37 28  1  0  0  0  0
 37 38  1  1  0  0  0
 39 40  1  0  0  0  0
 41 42  1  0  0  0  0
 41 49  1  1  0  0  0
 43 44  1  0  0  0  0
 43 51  1  6  0  0  0
 45 46  1  0  0  0  0
 47 37  1  0  0  0  0
 47 48  1  6  0  0  0
 49 50  1  0  0  0  0
 51 52  1  0  0  0  0
M  END
>  <CHROM.1>
-155.21792289,168.40143296,-82.35753943,-168.46085502,-157.39543619,-88.52381647
-63.93648531,106.28485373,-64.35600159,163.44607924,175.83792454,54.51823196
2.45641985,-48.79790807,9.72091540,-0.05323041,-0.66454587,-0.83344419

>  <Name>
2fd0_lig

>  <RI>
2.89522e+07

>  <Rbt.Current_Directory>
/home/itssahil/PROJECTS/Mol_Feturizer/New_Systems/rnas/2fd0

>  <Rbt.Executable>
rbdock ($Id: //depot/dev/client3/rdock/2013.1/src/exe/rbdock.cxx#4 $)

>  <Rbt.Library>
libRbt.so (2013.1, Build901 2013/11/27)

>  <Rbt.Parameter_File>
/export/apps/rDock/src/rDock_2013.1_src/data/scripts/dock_solv.prm

>  <Rbt.Receptor>
prm/pocket_docking_2.prm

>  <SCORE>
-3.19903

>  <SCORE.INTER>
-10.2099

>  <SCORE.INTER.CONST>
1

>  <SCORE.INTER.POLAR>
-1.37881

>  <SCORE.INTER.ROT>
12

>  <SCORE.INTER.SOLV>
12.3397

>  <SCORE.INTER.VDW>
-17.9238

>  <SCORE.INTER.norm>
-0.196344

>  <SCORE.INTRA>
3.81261

>  <SCORE.INTRA.DIHEDRAL>
-3.13942

>  <SCORE.INTRA.DIHEDRAL.0>
23.9727

>  <SCORE.INTRA.POLAR>
0

>  <SCORE.INTRA.POLAR.0>
0

>  <SCORE.INTRA.REPUL>
0

>  <SCORE.INTRA.REPUL.0>
0

>  <SCORE.INTRA.SOLV>
0.655639

>  <SCORE.INTRA.SOLV.lig_0>
-115.028

>  <SCORE.INTRA.VDW>
5.05451

>  <SCORE.INTRA.VDW.0>
-6.82393

>  <SCORE.INTRA.norm>
0.0733195

>  <SCORE.RESTR>
3.19825

>  <SCORE.RESTR.CAVITY>
3.19825

>  <SCORE.RESTR.norm>
0.0615048

>  <SCORE.SYSTEM>
0

>  <SCORE.SYSTEM.CONST>
0

>  <SCORE.SYSTEM.DIHEDRAL>
0

>  <SCORE.SYSTEM.SOLV>
0

>  <SCORE.SYSTEM.norm>
0

>  <SCORE.heavy>
52

>  <SCORE.norm>
-0.0615198

>  <RMSD>
4.440

$$$$
2fd0_lig
 OpenBabel11021811433D
libRbt.so/2013.1/901 2013/11/27
 52 56  0  0  0  0  0  0  0  0999 V2000
    3.9829  -49.6566   14.6866 C   0  0  2  0  0  0  0  0  0  0  0  0
    4.0527  -48.2414   14.4645 O   0  0  0  0  0  0  0  0  0  0  0  0
    4.2311  -45.2023   11.3622 C   0  0  2  0  0  0  0  0  0  0  0  0
    4.2028  -44.5487   10.0435 N   0  0  0  0  0  0  0  0  0  0  0  0
    0.8807  -47.9188   12.3677 C   0  0  1  0  0  0  0  0  0  0  0  0
   -0.4342  -51.6294   10.2758 C   0  0  1  0  0  0  0  0  0  0  0  0
    0.0266  -55.2520    6.5031 C   0  0  1  0  0  0  0  0  0  0  0  0
    3.3428  -49.9100   16.1000 C   0  0  2  0  0  0  0  0  0  0  0  0
    2.0294  -49.2924   16.2193 N   0  0  0  0  0  0  0  0  0  0  0  0
    5.3334  -46.3501   11.3859 C   0  0  0  0  0  0  0  0  0  0  0  0
    1.6860  -49.1729   12.0806 C   0  0  2  0  0  0  0  0  0  0  0  0
    2.6009  -48.9969   10.9625 O   0  0  0  0  0  0  0  0  0  0  0  0
    0.2955  -53.0197   10.5822 C   0  0  2  0  0  0  0  0  0  0  0  0
    1.5935  -53.0984    9.8582 N   0  0  0  0  0  0  0  0  0  0  0  0
    1.4943  -54.8513    6.2328 C   0  0  1  0  0  0  0  0  0  0  0  0
    2.3587  -55.5912    7.1302 O   0  0  0  0  0  0  0  0  0  0  0  0
    4.3132  -49.4177   17.2368 C   0  0  0  0  0  0  0  0  0  0  0  0
    5.3701  -47.0529   12.8261 C   0  0  2  0  0  0  0  0  0  0  0  0
    6.3800  -48.1205   12.8740 N   0  0  0  0  0  0  0  0  0  0  0  0
    0.6122  -50.2332   11.9040 C   0  0  2  0  0  0  0  0  0  0  0  0
    0.4829  -50.6138   10.5612 O   0  0  0  0  0  0  0  0  0  0  0  0
   -0.7581  -54.1996   10.2525 C   0  0  1  0  0  0  0  0  0  0  0  0
   -1.9393  -53.9738   11.0429 O   0  0  0  0  0  0  0  0  0  0  0  0
    2.0309  -55.0334    4.7872 C   0  0  1  0  0  0  0  0  0  0  0  0
    2.6513  -56.3229    4.7058 O   0  0  0  0  0  0  0  0  0  0  0  0
    5.6947  -50.1262   17.0519 C   0  0  2  0  0  0  0  0  0  0  0  0
    6.5984  -49.7202   18.0750 O   0  0  0  0  0  0  0  0  0  0  0  0
    3.9639  -47.6324   13.1460 C   0  0  2  0  0  0  0  0  0  0  0  0
   -0.7563  -49.6212   12.2875 C   0  0  2  0  0  0  0  0  0  0  0  0
   -0.3894  -48.3560   12.8188 O   0  0  0  0  0  0  0  0  0  0  0  0
   -1.2283  -54.1724    8.7058 C   0  0  2  0  0  0  0  0  0  0  0  0
   -0.0228  -54.4186    7.9576 O   0  0  0  0  0  0  0  0  0  0  0  0
    0.9864  -54.9112    3.6538 C   0  0  2  0  0  0  0  0  0  0  0  0
    1.6350  -54.1625    2.6025 O   0  0  0  0  0  0  0  0  0  0  0  0
    6.2783  -49.7657   15.6557 C   0  0  2  0  0  0  0  0  0  0  0  0
    5.3193  -50.2181   14.6236 O   0  0  0  0  0  0  0  0  0  0  0  0
    2.8378  -46.5561   13.0789 C   0  0  2  0  0  0  0  0  0  0  0  0
    1.5814  -47.2227   13.3493 O   0  0  0  0  0  0  0  0  0  0  0  0
   -1.5292  -50.3842   13.3575 C   0  0  0  0  0  0  0  0  0  0  0  0
   -0.6409  -50.5629   14.4712 O   0  0  0  0  0  0  0  0  0  0  0  0
   -1.6793  -52.7485    8.4403 C   0  0  1  0  0  0  0  0  0  0  0  0
   -0.9414  -51.5691    8.8233 O   0  0  0  0  0  0  0  0  0  0  0  0
   -0.2993  -54.2635    4.1607 C   0  0  2  0  0  0  0  0  0  0  0  0
   -0.8543  -54.8691    5.3610 O   0  0  0  0  0  0  0  0  0  0  0  0
    7.5873  -50.4431   15.4015 C   0  0  0  0  0  0  0  0  0  0  0  0
    7.3781  -51.8281   15.4618 O   0  0  0  0  0  0  0  0  0  0  0  0
    2.8296  -45.8702   11.6639 C   0  0  1  0  0  0  0  0  0  0  0  0
    1.7929  -44.8289   11.6553 O   0  0  0  0  0  0  0  0  0  0  0  0
   -2.1357  -52.5100    6.9573 C   0  0  0  0  0  0  0  0  0  0  0  0
   -2.4894  -51.1001    6.6633 N   0  0  0  0  0  0  0  0  0  0  0  0
   -1.5020  -54.0316    3.2488 C   0  0  0  0  0  0  0  0  0  0  0  0
   -2.6379  -53.5351    4.0220 O   0  0  0  0  0  0  0  0  0  0  0  0
  1  2  1  1  0  0  0
  1  8  1  0  0  0  0
  1 36  1  0  0  0  0
  3  4  1  6  0  0  0
  3 10  1  0  0  0  0
  3 47  1  0  0  0  0
  5 11  1  0  0  0  0
  5 30  1  0  0  0  0
  5 38  1  1  0  0  0
  6 21  1  6  0  0  0
  6 42  1  0  0  0  0
  7 15  1  0  0  0  0
  7 44  1  0  0  0  0
  7 32  1  1  0  0  0
  8  9  1  6  0  0  0
  8 17  1  0  0  0  0
 11 12  1  6  0  0  0
 11 20  1  0  0  0  0
 13  6  1  0  0  0  0
 13 14  1  6  0  0  0
 15 16  1  1  0  0  0
 15 24  1  0  0  0  0
 17 26  1  0  0  0  0
 18 10  1  0  0  0  0
 18 19  1  6  0  0  0
 20 21  1  6  0  0  0
 20 29  1  0  0  0  0
 22 13  1  0  0  0  0
 22 23  1  1  0  0  0
 24 25  1  1  0  0  0
 24 33  1  0  0  0  0
 26 27  1  1  0  0  0
 26 35  1  0  0  0  0
 28  2  1  1  0  0  0
 28 18  1  0  0  0  0
 29 30  1  0  0  0  0
 29 39  1  1  0  0  0
 31 22  1  0  0  0  0
 31 32  1  6  0  0  0
 31 41  1  0  0  0  0
 33 34  1  6  0  0  0
 33 43  1  0  0  0  0
 35 36  1  0  0  0  0
 35 45  1  6  0  0  0
 37 28  1  0  0  0  0
 37 38  1  6  0  0  0
 39 40  1  0  0  0  0
 41 42  1  0  0  0  0
 41 49  1  6  0  0  0
 43 44  1  0  0  0  0
 43 51  1  6  0  0  0
 45 46  1  0  0  0  0
 47 37  1  0  0  0  0
 47 48  1  1  0  0  0
 49 50  1  0  0  0  0
 51 52  1  0  0  0  0
M  END
>  <CHROM.1>
-149.52817367,70.94163343,-81.73964255,169.42821452,177.22833920,-110.92571197
52.38598511,146.96991367,60.05517116,-81.98545114,-176.00684063,173.81948111
1.80226245,-50.85684150,10.73743546,-1.02362339,0.69020318,-2.51752212

>  <Name>
2fd0_lig

>  <RI>
3.4301e+07

>  <Rbt.Current_Directory>
/home/itssahil/PROJECTS/Mol_Feturizer/New_Systems/rnas/2fd0

>  <Rbt.Executable>
rbdock ($Id: //depot/dev/client3/rdock/2013.1/src/exe/rbdock.cxx#4 $)

>  <Rbt.Library>
libRbt.so (2013.1, Build901 2013/11/27)

>  <Rbt.Parameter_File>
/export/apps/rDock/src/rDock_2013.1_src/data/scripts/dock_solv.prm

>  <Rbt.Receptor>
prm/pocket_docking_7.prm

>  <SCORE>
-14.5104

>  <SCORE.INTER>
-15.3394

>  <SCORE.INTER.CONST>
1

>  <SCORE.INTER.POLAR>
-1.73084

>  <SCORE.INTER.ROT>
12

>  <SCORE.INTER.SOLV>
15.8186

>  <SCORE.INTER.VDW>
-21.3296

>  <SCORE.INTER.norm>
-0.294988

>  <SCORE.INTRA>
0.82901

>  <SCORE.INTRA.DIHEDRAL>
-2.21814

>  <SCORE.INTRA.DIHEDRAL.0>
23.9727

>  <SCORE.INTRA.POLAR>
0

>  <SCORE.INTRA.POLAR.0>
0

>  <SCORE.INTRA.REPUL>
0.00488793

>  <SCORE.INTRA.REPUL.0>
0

>  <SCORE.INTRA.SOLV>
1.69779

>  <SCORE.INTRA.SOLV.lig_0>
-115.028

>  <SCORE.INTRA.VDW>
1.06474

>  <SCORE.INTRA.VDW.0>
-6.82393

>  <SCORE.INTRA.norm>
0.0159425

>  <SCORE.RESTR>
0

>  <SCORE.RESTR.CAVITY>
0

>  <SCORE.RESTR.norm>
0

>  <SCORE.SYSTEM>
0

>  <SCORE.SYSTEM.CONST>
0

>  <SCORE.SYSTEM.DIHEDRAL>
0

>  <SCORE.SYSTEM.SOLV>
0

>  <SCORE.SYSTEM.norm>
0

>  <SCORE.heavy>
52

>  <SCORE.norm>
-0.279045

>  <RMSD>
4.443

$$$$
2fd0_lig
 OpenBabel11021811433D
libRbt.so/2013.1/901 2013/11/27
 52 56  0  0  0  0  0  0  0  0999 V2000
    4.8397  -47.3072   15.9092 C   0  0  2  0  0  0  0  0  0  0  0  0
    5.1129  -47.9104   14.6370 O   0  0  0  0  0  0  0  0  0  0  0  0
    4.8889  -44.5443   11.8961 C   0  0  2  0  0  0  0  0  0  0  0  0
    4.9661  -43.7337   10.6698 N   0  0  0  0  0  0  0  0  0  0  0  0
    2.7629  -48.4020   11.6086 C   0  0  1  0  0  0  0  0  0  0  0  0
    4.2321  -51.8063    8.9359 C   0  0  1  0  0  0  0  0  0  0  0  0
    0.9524  -54.6449    5.9261 C   0  0  1  0  0  0  0  0  0  0  0  0
    4.8887  -48.4252   17.0134 C   0  0  2  0  0  0  0  0  0  0  0  0
    6.1677  -49.1215   17.0240 N   0  0  0  0  0  0  0  0  0  0  0  0
    6.3103  -45.1778   12.2298 C   0  0  0  0  0  0  0  0  0  0  0  0
    4.0900  -49.1098   11.4056 C   0  0  2  0  0  0  0  0  0  0  0  0
    5.0193  -48.3218   10.6096 O   0  0  0  0  0  0  0  0  0  0  0  0
    4.2350  -51.6709    7.3418 C   0  0  2  0  0  0  0  0  0  0  0  0
    2.9902  -51.0034    6.8726 N   0  0  0  0  0  0  0  0  0  0  0  0
    1.7264  -54.8234    4.6007 C   0  0  1  0  0  0  0  0  0  0  0  0
    2.8491  -55.7116    4.8256 O   0  0  0  0  0  0  0  0  0  0  0  0
    3.6910  -49.4293   16.8297 C   0  0  0  0  0  0  0  0  0  0  0  0
    6.2263  -46.0508   13.5714 C   0  0  2  0  0  0  0  0  0  0  0  0
    7.5278  -46.6503   13.9011 N   0  0  0  0  0  0  0  0  0  0  0  0
    3.6751  -50.4478   10.8173 C   0  0  2  0  0  0  0  0  0  0  0  0
    3.9945  -50.5304    9.4549 O   0  0  0  0  0  0  0  0  0  0  0  0
    4.5070  -53.1430    6.7338 C   0  0  1  0  0  0  0  0  0  0  0  0
    5.7470  -53.6271    7.2807 O   0  0  0  0  0  0  0  0  0  0  0  0
    0.9330  -55.3503    3.3743 C   0  0  1  0  0  0  0  0  0  0  0  0
    1.0753  -56.7760    3.3358 O   0  0  0  0  0  0  0  0  0  0  0  0
    2.3555  -48.6161   16.8374 C   0  0  2  0  0  0  0  0  0  0  0  0
    1.2429  -49.4930   16.6916 O   0  0  0  0  0  0  0  0  0  0  0  0
    5.1562  -47.1631   13.3892 C   0  0  2  0  0  0  0  0  0  0  0  0
    2.1332  -50.5606   10.8819 C   0  0  2  0  0  0  0  0  0  0  0  0
    1.7724  -49.4148   11.6398 O   0  0  0  0  0  0  0  0  0  0  0  0
    3.3658  -54.1986    7.1784 C   0  0  2  0  0  0  0  0  0  0  0  0
    2.1527  -53.6848    6.5970 O   0  0  0  0  0  0  0  0  0  0  0  0
   -0.5723  -54.9992    3.3366 C   0  0  2  0  0  0  0  0  0  0  0  0
   -0.8600  -54.6559    1.9633 O   0  0  0  0  0  0  0  0  0  0  0  0
    2.3721  -47.5830   15.6746 C   0  0  2  0  0  0  0  0  0  0  0  0
    3.5302  -46.6835   15.8725 O   0  0  0  0  0  0  0  0  0  0  0  0
    3.7558  -46.5963   13.0037 C   0  0  2  0  0  0  0  0  0  0  0  0
    2.8653  -47.7229   12.8199 O   0  0  0  0  0  0  0  0  0  0  0  0
    1.6046  -51.7967   11.6010 C   0  0  0  0  0  0  0  0  0  0  0  0
    1.9159  -51.6386   12.9936 O   0  0  0  0  0  0  0  0  0  0  0  0
    3.2657  -54.0814    8.6876 C   0  0  1  0  0  0  0  0  0  0  0  0
    3.1894  -52.8350    9.4106 O   0  0  0  0  0  0  0  0  0  0  0  0
   -0.9002  -53.8844    4.3262 C   0  0  2  0  0  0  0  0  0  0  0  0
   -0.4192  -54.1107    5.6800 O   0  0  0  0  0  0  0  0  0  0  0  0
    1.1332  -46.7455   15.6486 C   0  0  0  0  0  0  0  0  0  0  0  0
    1.1782  -45.9396   14.5023 O   0  0  0  0  0  0  0  0  0  0  0  0
    3.8644  -45.7322   11.6944 C   0  0  1  0  0  0  0  0  0  0  0  0
    2.5393  -45.1735   11.3920 O   0  0  0  0  0  0  0  0  0  0  0  0
    2.1623  -55.0095    9.3086 C   0  0  0  0  0  0  0  0  0  0  0  0
    2.1069  -54.9584   10.7898 N   0  0  0  0  0  0  0  0  0  0  0  0
   -2.3199  -53.3498    4.5008 C   0  0  0  0  0  0  0  0  0  0  0  0
   -3.1813  -54.3760    5.0833 O   0  0  0  0  0  0  0  0  0  0  0  0
  1  2  1  6  0  0  0
  1  8  1  0  0  0  0
  1 36  1  0  0  0  0
  3  4  1  6  0  0  0
  3 10  1  0  0  0  0
  3 47  1  0  0  0  0
  5 11  1  0  0  0  0
  5 30  1  0  0  0  0
  5 38  1  1  0  0  0
  6 21  1  1  0  0  0
  6 42  1  0  0  0  0
  7 15  1  0  0  0  0
  7 44  1  0  0  0  0
  7 32  1  1  0  0  0
  8  9  1  6  0  0  0
  8 17  1  0  0  0  0
 11 12  1  6  0  0  0
 11 20  1  0  0  0  0
 13  6  1  0  0  0  0
 13 14  1  6  0  0  0
 15 16  1  1  0  0  0
 15 24  1  0  0  0  0
 17 26  1  0  0  0  0
 18 10  1  0  0  0  0
 18 19  1  6  0  0  0
 20 21  1  6  0  0  0
 20 29  1  0  0  0  0
 22 13  1  0  0  0  0
 22 23  1  1  0  0  0
 24 25  1  1  0  0  0
 24 33  1  0  0  0  0
 26 27  1  6  0  0  0
 26 35  1  0  0  0  0
 28  2  1  1  0  0  0
 28 18  1  0  0  0  0
 29 30  1  0  0  0  0
 29 39  1  1  0  0  0
 31 22  1  0  0  0  0
 31 32  1  6  0  0  0
 31 41  1  0  0  0  0
 33 34  1  6  0  0  0
 33 43  1  0  0  0  0
 35 36  1  0  0  0  0
 35 45  1  1  0  0  0
 37 28  1  0  0  0  0
 37 38  1  6  0  0  0
 39 40  1  0  0  0  0
 41 42  1  0  0  0  0
 41 49  1  6  0  0  0
 43 44  1  0  0  0  0
 43 51  1  1  0  0  0
 45 46  1  0  0  0  0
 47 37  1  0  0  0  0
 47 48  1  1  0  0  0
 49 50  1  0  0  0  0
 51 52  1  0  0  0  0
M  END
>  <CHROM.1>
-179.60309069,67.72265713,167.19837256,-79.87349738,152.42715394,57.30302157
69.16311999,141.60018146,-174.42756996,-85.92913559,176.80406920,66.89599332
2.82084187,-50.50478430,10.32655086,1.13682921,0.90892867,1.25077073

>  <Name>
2fd0_lig

>  <RI>
3.4301e+07

>  <Rbt.Current_Directory>
/home/itssahil/PROJECTS/Mol_Feturizer/New_Systems/rnas/2fd0

>  <Rbt.Executable>
rbdock ($Id: //depot/dev/client3/rdock/2013.1/src/exe/rbdock.cxx#4 $)

>  <Rbt.Library>
libRbt.so (2013.1, Build901 2013/11/27)

>  <Rbt.Parameter_File>
/export/apps/rDock/src/rDock_2013.1_src/data/scripts/dock_solv.prm

>  <Rbt.Receptor>
prm/pocket_docking_7.prm

>  <SCORE>
-19.6824

>  <SCORE.INTER>
-16.4918

>  <SCORE.INTER.CONST>
1

>  <SCORE.INTER.POLAR>
-1.76757

>  <SCORE.INTER.ROT>
12

>  <SCORE.INTER.SOLV>
18.8114

>  <SCORE.INTER.VDW>
-22.9731

>  <SCORE.INTER.norm>
-0.31715

>  <SCORE.INTRA>
-3.19058

>  <SCORE.INTRA.DIHEDRAL>
-7.95751

>  <SCORE.INTRA.DIHEDRAL.0>
23.9727

>  <SCORE.INTRA.POLAR>
0

>  <SCORE.INTRA.POLAR.0>
0

>  <SCORE.INTRA.REPUL>
0

>  <SCORE.INTRA.REPUL.0>
0

>  <SCORE.INTRA.SOLV>
-1.19291

>  <SCORE.INTRA.SOLV.lig_0>
-115.028

>  <SCORE.INTRA.VDW>
1.38463

>  <SCORE.INTRA.VDW.0>
-6.82393

>  <SCORE.INTRA.norm>
-0.0613573

>  <SCORE.RESTR>
0

>  <SCORE.RESTR.CAVITY>
0

>  <SCORE.RESTR.norm>
0

>  <SCORE.SYSTEM>
0

>  <SCORE.SYSTEM.CONST>
0

>  <SCORE.SYSTEM.DIHEDRAL>
0

>  <SCORE.SYSTEM.SOLV>
0

>  <SCORE.SYSTEM.norm>
0

>  <SCORE.heavy>
52

>  <SCORE.norm>
-0.378508

>  <RMSD>
4.458

$$$$
2fd0_lig
 OpenBabel11021811433D
libRbt.so/2013.1/901 2013/11/27
 52 56  0  0  0  0  0  0  0  0999 V2000
    6.7586  -45.6034   12.3120 C   0  0  2  0  0  0  0  0  0  0  0  0
    6.1234  -45.7019   13.5941 O   0  0  0  0  0  0  0  0  0  0  0  0
    7.4529  -49.5779   15.0436 C   0  0  2  0  0  0  0  0  0  0  0  0
    7.6790  -50.7397   15.9189 N   0  0  0  0  0  0  0  0  0  0  0  0
    3.7075  -47.3017   12.5510 C   0  0  1  0  0  0  0  0  0  0  0  0
    2.6338  -48.5825    8.6245 C   0  0  1  0  0  0  0  0  0  0  0  0
   -0.9750  -50.9158    6.0573 C   0  0  1  0  0  0  0  0  0  0  0  0
    7.4671  -44.2037   12.2113 C   0  0  2  0  0  0  0  0  0  0  0  0
    8.4238  -44.0009   13.2903 N   0  0  0  0  0  0  0  0  0  0  0  0
    8.0359  -48.2584   15.7158 C   0  0  0  0  0  0  0  0  0  0  0  0
    3.4850  -48.4305   11.5610 C   0  0  2  0  0  0  0  0  0  0  0  0
    4.6180  -48.6100   10.6655 O   0  0  0  0  0  0  0  0  0  0  0  0
    2.3181  -47.9319    7.1974 C   0  0  2  0  0  0  0  0  0  0  0  0
    0.9409  -47.3681    7.1743 N   0  0  0  0  0  0  0  0  0  0  0  0
   -1.8760  -49.8237    5.4383 C   0  0  1  0  0  0  0  0  0  0  0  0
   -1.5026  -49.6338    4.0511 O   0  0  0  0  0  0  0  0  0  0  0  0
    6.3975  -43.0501   12.1692 C   0  0  0  0  0  0  0  0  0  0  0  0
    7.7985  -46.9967   14.7561 C   0  0  2  0  0  0  0  0  0  0  0  0
    8.3264  -45.7624   15.3559 N   0  0  0  0  0  0  0  0  0  0  0  0
    2.1683  -48.0518   10.9041 C   0  0  2  0  0  0  0  0  0  0  0  0
    2.3603  -47.6080    9.5885 O   0  0  0  0  0  0  0  0  0  0  0  0
    2.6299  -49.0537    6.0770 C   0  0  1  0  0  0  0  0  0  0  0  0
    3.9970  -49.4735    6.2374 O   0  0  0  0  0  0  0  0  0  0  0  0
   -3.4118  -50.0446    5.4983 C   0  0  1  0  0  0  0  0  0  0  0  0
   -3.8135  -50.6854    4.2808 O   0  0  0  0  0  0  0  0  0  0  0  0
    5.4140  -43.3277   10.9858 C   0  0  2  0  0  0  0  0  0  0  0  0
    4.4385  -42.2935   10.9020 O   0  0  0  0  0  0  0  0  0  0  0  0
    6.2767  -46.8475   14.4780 C   0  0  2  0  0  0  0  0  0  0  0  0
    1.5681  -46.8416   11.6589 C   0  0  2  0  0  0  0  0  0  0  0  0
    2.4384  -46.7120   12.7739 O   0  0  0  0  0  0  0  0  0  0  0  0
    1.7176  -50.3737    6.2761 C   0  0  2  0  0  0  0  0  0  0  0  0
    0.3669  -49.9104    6.0905 O   0  0  0  0  0  0  0  0  0  0  0  0
   -3.9329  -50.8757    6.6935 C   0  0  2  0  0  0  0  0  0  0  0  0
   -5.1384  -50.2135    7.1350 O   0  0  0  0  0  0  0  0  0  0  0  0
    4.7145  -44.6996   11.2053 C   0  0  2  0  0  0  0  0  0  0  0  0
    5.7591  -45.7456   11.2699 O   0  0  0  0  0  0  0  0  0  0  0  0
    5.6446  -48.1371   13.8709 C   0  0  2  0  0  0  0  0  0  0  0  0
    4.2284  -47.8896   13.7008 O   0  0  0  0  0  0  0  0  0  0  0  0
    0.1493  -47.0427   12.1793 C   0  0  0  0  0  0  0  0  0  0  0  0
    0.1831  -48.1692   13.0688 O   0  0  0  0  0  0  0  0  0  0  0  0
    1.8945  -50.7781    7.7275 C   0  0  1  0  0  0  0  0  0  0  0  0
    1.8205  -49.8708    8.8471 O   0  0  0  0  0  0  0  0  0  0  0  0
   -2.8696  -50.9973    7.7817 C   0  0  2  0  0  0  0  0  0  0  0  0
   -1.5702  -51.4547    7.3153 O   0  0  0  0  0  0  0  0  0  0  0  0
    3.7838  -45.0419   10.0856 C   0  0  0  0  0  0  0  0  0  0  0  0
    4.5571  -45.4188    8.9786 O   0  0  0  0  0  0  0  0  0  0  0  0
    5.9019  -49.3636   14.8208 C   0  0  1  0  0  0  0  0  0  0  0  0
    5.3390  -50.5671   14.1930 O   0  0  0  0  0  0  0  0  0  0  0  0
    1.0388  -52.0313    8.1296 C   0  0  0  0  0  0  0  0  0  0  0  0
    1.5387  -53.3028    7.5526 N   0  0  0  0  0  0  0  0  0  0  0  0
   -3.1178  -51.7767    9.0712 C   0  0  0  0  0  0  0  0  0  0  0  0
   -4.2376  -51.1962    9.8085 O   0  0  0  0  0  0  0  0  0  0  0  0
  1  2  1  1  0  0  0
  1  8  1  0  0  0  0
  1 36  1  0  0  0  0
  3  4  1  1  0  0  0
  3 10  1  0  0  0  0
  3 47  1  0  0  0  0
  5 11  1  0  0  0  0
  5 30  1  0  0  0  0
  5 38  1  1  0  0  0
  6 21  1  1  0  0  0
  6 42  1  0  0  0  0
  7 15  1  0  0  0  0
  7 44  1  0  0  0  0
  7 32  1  1  0  0  0
  8  9  1  1  0  0  0
  8 17  1  0  0  0  0
 11 12  1  6  0  0  0
 11 20  1  0  0  0  0
 13  6  1  0  0  0  0
 13 14  1  1  0  0  0
 15 16  1  6  0  0  0
 15 24  1  0  0  0  0
 17 26  1  0  0  0  0
 18 10  1  0  0  0  0
 18 19  1  1  0  0  0
 20 21  1  6  0  0  0
 20 29  1  0  0  0  0
 22 13  1  0  0  0  0
 22 23  1  1  0  0  0
 24 25  1  6  0  0  0
 24 33  1  0  0  0  0
 26 27  1  1  0  0  0
 26 35  1  0  0  0  0
 28  2  1  6  0  0  0
 28 18  1  0  0  0  0
 29 30  1  0  0  0  0
 29 39  1  1  0  0  0
 31 22  1  0  0  0  0
 31 32  1  1  0  0  0
 31 41  1  0  0  0  0
 33 34  1  1  0  0  0
 33 43  1  0  0  0  0
 35 36  1  0  0  0  0
 35 45  1  6  0  0  0
 37 28  1  0  0  0  0
 37 38  1  1  0  0  0
 39 40  1  0  0  0  0
 41 42  1  0  0  0  0
 41 49  1  1  0  0  0
 43 44  1  0  0  0  0
 43 51  1  1  0  0  0
 45 46  1  0  0  0  0
 47 37  1  0  0  0  0
 47 48  1  6  0  0  0
 49 50  1  0  0  0  0
 51 52  1  0  0  0  0
M  END
>  <CHROM.1>
-130.82432049,85.99730082,161.07520413,-164.58624256,75.25622652,57.87155840
59.07165911,174.33704499,74.27938357,87.36003566,71.82965565,-60.63237966
2.62991964,-48.24495509,10.21821824,-0.12045725,-0.76061123,-0.71472395

>  <Name>
2fd0_lig

>  <RI>
3.4301e+07

>  <Rbt.Current_Directory>
/home/itssahil/PROJECTS/Mol_Feturizer/New_Systems/rnas/2fd0

>  <Rbt.Executable>
rbdock ($Id: //depot/dev/client3/rdock/2013.1/src/exe/rbdock.cxx#4 $)

>  <Rbt.Library>
libRbt.so (2013.1, Build901 2013/11/27)

>  <Rbt.Parameter_File>
/export/apps/rDock/src/rDock_2013.1_src/data/scripts/dock_solv.prm

>  <Rbt.Receptor>
prm/pocket_docking_7.prm

>  <SCORE>
-14.6676

>  <SCORE.INTER>
-13.4944

>  <SCORE.INTER.CONST>
1

>  <SCORE.INTER.POLAR>
-2.31507

>  <SCORE.INTER.ROT>
12

>  <SCORE.INTER.SOLV>
13.3042

>  <SCORE.INTER.VDW>
-17.3141

>  <SCORE.INTER.norm>
-0.259508

>  <SCORE.INTRA>
-1.17324

>  <SCORE.INTRA.DIHEDRAL>
-4.76046

>  <SCORE.INTRA.DIHEDRAL.0>
23.9727

>  <SCORE.INTRA.POLAR>
0

>  <SCORE.INTRA.POLAR.0>
0

>  <SCORE.INTRA.REPUL>
0

>  <SCORE.INTRA.REPUL.0>
0

>  <SCORE.INTRA.SOLV>
2.2492

>  <SCORE.INTRA.SOLV.lig_0>
-115.028

>  <SCORE.INTRA.VDW>
0.0823901

>  <SCORE.INTRA.VDW.0>
-6.82393

>  <SCORE.INTRA.norm>
-0.0225623

>  <SCORE.RESTR>
0

>  <SCORE.RESTR.CAVITY>
0

>  <SCORE.RESTR.norm>
0

>  <SCORE.SYSTEM>
0

>  <SCORE.SYSTEM.CONST>
0

>  <SCORE.SYSTEM.DIHEDRAL>
0

>  <SCORE.SYSTEM.SOLV>
0

>  <SCORE.SYSTEM.norm>
0

>  <SCORE.heavy>
52

>  <SCORE.norm>
-0.28207

>  <RMSD>
4.470

$$$$
2fd0_lig
 OpenBabel11021811433D
libRbt.so/2013.1/901 2013/11/27
 52 56  0  0  0  0  0  0  0  0999 V2000
    6.0566  -46.6400   12.5779 C   0  0  2  0  0  0  0  0  0  0  0  0
    5.2520  -46.4158   13.7438 O   0  0  0  0  0  0  0  0  0  0  0  0
    4.5818  -49.5790   16.6486 C   0  0  2  0  0  0  0  0  0  0  0  0
    3.9256  -50.6309   17.4422 N   0  0  0  0  0  0  0  0  0  0  0  0
    4.0995  -48.8613   12.0612 C   0  0  1  0  0  0  0  0  0  0  0  0
    1.7778  -50.7897    8.9728 C   0  0  1  0  0  0  0  0  0  0  0  0
   -1.0701  -50.6480    4.7502 C   0  0  1  0  0  0  0  0  0  0  0  0
    7.1394  -45.5035   12.4916 C   0  0  2  0  0  0  0  0  0  0  0  0
    7.9591  -45.4428   13.6938 N   0  0  0  0  0  0  0  0  0  0  0  0
    3.8089  -48.1979   16.8158 C   0  0  0  0  0  0  0  0  0  0  0  0
    3.8219  -50.0916   11.2170 C   0  0  2  0  0  0  0  0  0  0  0  0
    4.4596  -50.0196    9.9107 O   0  0  0  0  0  0  0  0  0  0  0  0
    1.7847  -50.0284    7.5657 C   0  0  2  0  0  0  0  0  0  0  0  0
    0.6702  -49.0442    7.4996 N   0  0  0  0  0  0  0  0  0  0  0  0
   -2.1114  -49.6709    5.3407 C   0  0  1  0  0  0  0  0  0  0  0  0
   -1.4175  -48.5729    5.9831 O   0  0  0  0  0  0  0  0  0  0  0  0
    6.4564  -44.1176   12.1929 C   0  0  0  0  0  0  0  0  0  0  0  0
    4.5316  -47.0516   15.9596 C   0  0  2  0  0  0  0  0  0  0  0  0
    3.8347  -45.7641   16.0948 N   0  0  0  0  0  0  0  0  0  0  0  0
    2.3044  -50.1676   11.2158 C   0  0  2  0  0  0  0  0  0  0  0  0
    1.7737  -49.8091    9.9689 O   0  0  0  0  0  0  0  0  0  0  0  0
    1.7873  -51.1558    6.4082 C   0  0  1  0  0  0  0  0  0  0  0  0
    2.9301  -52.0050    6.6179 O   0  0  0  0  0  0  0  0  0  0  0  0
   -3.1636  -49.0730    4.3678 C   0  0  1  0  0  0  0  0  0  0  0  0
   -2.6594  -47.8201    3.8880 O   0  0  0  0  0  0  0  0  0  0  0  0
    5.6042  -44.2547   10.8892 C   0  0  2  0  0  0  0  0  0  0  0  0
    4.9822  -43.0131   10.5734 O   0  0  0  0  0  0  0  0  0  0  0  0
    4.5751  -47.4818   14.4667 C   0  0  2  0  0  0  0  0  0  0  0  0
    1.7549  -49.1167   12.2099 C   0  0  2  0  0  0  0  0  0  0  0  0
    2.9362  -48.6422   12.8400 O   0  0  0  0  0  0  0  0  0  0  0  0
    0.4845  -52.1096    6.4934 C   0  0  2  0  0  0  0  0  0  0  0  0
   -0.6271  -51.2240    6.2616 O   0  0  0  0  0  0  0  0  0  0  0  0
   -3.5458  -49.9530    3.1553 C   0  0  2  0  0  0  0  0  0  0  0  0
   -4.9760  -49.8154    3.0068 O   0  0  0  0  0  0  0  0  0  0  0  0
    4.5217  -45.3533   11.0917 C   0  0  2  0  0  0  0  0  0  0  0  0
    5.2085  -46.6270   11.4007 O   0  0  0  0  0  0  0  0  0  0  0  0
    5.2731  -48.8600   14.2556 C   0  0  2  0  0  0  0  0  0  0  0  0
    5.2107  -49.1680   12.8424 O   0  0  0  0  0  0  0  0  0  0  0  0
    0.8261  -49.6678   13.2860 C   0  0  0  0  0  0  0  0  0  0  0  0
    1.5680  -50.6565   14.0162 O   0  0  0  0  0  0  0  0  0  0  0  0
    0.4251  -52.5936    7.9300 C   0  0  1  0  0  0  0  0  0  0  0  0
    0.5772  -51.7466    9.0882 O   0  0  0  0  0  0  0  0  0  0  0  0
   -3.0890  -51.3950    3.3588 C   0  0  2  0  0  0  0  0  0  0  0  0
   -1.6910  -51.5443    3.7313 O   0  0  0  0  0  0  0  0  0  0  0  0
    3.6927  -45.5591    9.8639 C   0  0  0  0  0  0  0  0  0  0  0  0
    4.5007  -46.1651    8.8915 O   0  0  0  0  0  0  0  0  0  0  0  0
    4.5575  -49.9653   15.1151 C   0  0  1  0  0  0  0  0  0  0  0  0
    5.2726  -51.2359   14.9316 O   0  0  0  0  0  0  0  0  0  0  0  0
   -0.8159  -53.5090    8.2240 C   0  0  0  0  0  0  0  0  0  0  0  0
   -0.8381  -54.0561    9.6022 N   0  0  0  0  0  0  0  0  0  0  0  0
   -3.3301  -52.4757    2.3072 C   0  0  0  0  0  0  0  0  0  0  0  0
   -3.0950  -53.8004    2.8766 O   0  0  0  0  0  0  0  0  0  0  0  0
  1  2  1  1  0  0  0
  1  8  1  0  0  0  0
  1 36  1  0  0  0  0
  3  4  1  1  0  0  0
  3 10  1  0  0  0  0
  3 47  1  0  0  0  0
  5 11  1  0  0  0  0
  5 30  1  0  0  0  0
  5 38  1  1  0  0  0
  6 21  1  1  0  0  0
  6 42  1  0  0  0  0
  7 15  1  0  0  0  0
  7 44  1  0  0  0  0
  7 32  1  1  0  0  0
  8  9  1  1  0  0  0
  8 17  1  0  0  0  0
 11 12  1  6  0  0  0
 11 20  1  0  0  0  0
 13  6  1  0  0  0  0
 13 14  1  6  0  0  0
 15 16  1  6  0  0  0
 15 24  1  0  0  0  0
 17 26  1  0  0  0  0
 18 10  1  0  0  0  0
 18 19  1  6  0  0  0
 20 21  1  6  0  0  0
 20 29  1  0  0  0  0
 22 13  1  0  0  0  0
 22 23  1  1  0  0  0
 24 25  1  6  0  0  0
 24 33  1  0  0  0  0
 26 27  1  1  0  0  0
 26 35  1  0  0  0  0
 28  2  1  6  0  0  0
 28 18  1  0  0  0  0
 29 30  1  0  0  0  0
 29 39  1  1  0  0  0
 31 22  1  0  0  0  0
 31 32  1  1  0  0  0
 31 41  1  0  0  0  0
 33 34  1  1  0  0  0
 33 43  1  0  0  0  0
 35 36  1  0  0  0  0
 35 45  1  6  0  0  0
 37 28  1  0  0  0  0
 37 38  1  6  0  0  0
 39 40  1  0  0  0  0
 41 42  1  0  0  0  0
 41 49  1  1  0  0  0
 43 44  1  0  0  0  0
 43 51  1  6  0  0  0
 45 46  1  0  0  0  0
 47 37  1  0  0  0  0
 47 48  1  1  0  0  0
 49 50  1  0  0  0  0
 51 52  1  0  0  0  0
M  END
>  <CHROM.1>
-152.52192241,-135.02187578,-154.56603742,-171.93845502,80.75662415,148.46788342
58.77312040,77.19108170,69.92433575,-37.74660873,176.39805475,-166.28197554
2.06118358,-49.18408784,9.87686404,-0.32693464,-0.91829241,-0.78009978

>  <Name>
2fd0_lig

>  <RI>
1.29864e+07

>  <Rbt.Current_Directory>
/home/itssahil/PROJECTS/Mol_Feturizer/New_Systems/rnas/2fd0

>  <Rbt.Executable>
rbdock ($Id: //depot/dev/client3/rdock/2013.1/src/exe/rbdock.cxx#4 $)

>  <Rbt.Library>
libRbt.so (2013.1, Build901 2013/11/27)

>  <Rbt.Parameter_File>
/export/apps/rDock/src/rDock_2013.1_src/data/scripts/dock_solv.prm

>  <Rbt.Receptor>
prm/pocket_docking_3.prm

>  <SCORE>
-6.34015

>  <SCORE.INTER>
-10.4586

>  <SCORE.INTER.CONST>
1

>  <SCORE.INTER.POLAR>
-2.33555

>  <SCORE.INTER.ROT>
12

>  <SCORE.INTER.SOLV>
23.1668

>  <SCORE.INTER.VDW>
-18.5095

>  <SCORE.INTER.norm>
-0.201126

>  <SCORE.INTRA>
3.60311

>  <SCORE.INTRA.DIHEDRAL>
0.208596

>  <SCORE.INTRA.DIHEDRAL.0>
23.9727

>  <SCORE.INTRA.POLAR>
0

>  <SCORE.INTRA.POLAR.0>
0

>  <SCORE.INTRA.REPUL>
0.00170384

>  <SCORE.INTRA.REPUL.0>
0

>  <SCORE.INTRA.SOLV>
-1.98435

>  <SCORE.INTRA.SOLV.lig_0>
-115.028

>  <SCORE.INTRA.VDW>
4.48247

>  <SCORE.INTRA.VDW.0>
-6.82393

>  <SCORE.INTRA.norm>
0.0692906

>  <SCORE.RESTR>
0.515289

>  <SCORE.RESTR.CAVITY>
0.515289

>  <SCORE.RESTR.norm>
0.0099094

>  <SCORE.SYSTEM>
0

>  <SCORE.SYSTEM.CONST>
0

>  <SCORE.SYSTEM.DIHEDRAL>
0

>  <SCORE.SYSTEM.SOLV>
0

>  <SCORE.SYSTEM.norm>
0

>  <SCORE.heavy>
52

>  <SCORE.norm>
-0.121926

>  <RMSD>
4.504

$$$$
2fd0_lig
 OpenBabel11021811433D
libRbt.so/2013.1/901 2013/11/27
 52 56  0  0  0  0  0  0  0  0999 V2000
    7.8484  -46.8140   12.9537 C   0  0  2  0  0  0  0  0  0  0  0  0
    6.8037  -46.5232   13.8923 O   0  0  0  0  0  0  0  0  0  0  0  0
    6.2866  -50.2912   15.9966 C   0  0  2  0  0  0  0  0  0  0  0  0
    5.7748  -51.3166   16.9204 N   0  0  0  0  0  0  0  0  0  0  0  0
    4.0591  -49.0692   12.1401 C   0  0  1  0  0  0  0  0  0  0  0  0
    1.5344  -50.2322    8.9085 C   0  0  1  0  0  0  0  0  0  0  0  0
   -2.6389  -51.0622    6.1107 C   0  0  1  0  0  0  0  0  0  0  0  0
    9.1948  -46.2167   13.5033 C   0  0  2  0  0  0  0  0  0  0  0  0
    9.5167  -46.7323   14.8267 N   0  0  0  0  0  0  0  0  0  0  0  0
    6.7764  -49.0124   16.8076 C   0  0  0  0  0  0  0  0  0  0  0  0
    2.5869  -48.7037   12.0877 C   0  0  2  0  0  0  0  0  0  0  0  0
    1.7718  -49.5782   12.9176 O   0  0  0  0  0  0  0  0  0  0  0  0
    1.0201  -48.9906    8.0407 C   0  0  2  0  0  0  0  0  0  0  0  0
   -0.2956  -48.5109    8.5449 N   0  0  0  0  0  0  0  0  0  0  0  0
   -2.3208  -50.9985    4.5999 C   0  0  1  0  0  0  0  0  0  0  0  0
   -1.2417  -51.9197    4.3054 O   0  0  0  0  0  0  0  0  0  0  0  0
    9.1385  -44.6441   13.4988 C   0  0  0  0  0  0  0  0  0  0  0  0
    7.3435  -47.9017   15.8005 C   0  0  2  0  0  0  0  0  0  0  0  0
    7.8009  -46.7070   16.5253 N   0  0  0  0  0  0  0  0  0  0  0  0
    2.2846  -48.7238   10.5988 C   0  0  2  0  0  0  0  0  0  0  0  0
    1.5057  -49.8353   10.2485 O   0  0  0  0  0  0  0  0  0  0  0  0
    1.0482  -49.4424    6.4895 C   0  0  1  0  0  0  0  0  0  0  0  0
    2.3885  -49.8604    6.1731 O   0  0  0  0  0  0  0  0  0  0  0  0
   -3.4833  -51.2859    3.6115 C   0  0  1  0  0  0  0  0  0  0  0  0
   -3.4501  -52.6809    3.2845 O   0  0  0  0  0  0  0  0  0  0  0  0
    8.7990  -44.1634   12.0502 C   0  0  2  0  0  0  0  0  0  0  0  0
    8.7566  -42.7408   11.9996 O   0  0  0  0  0  0  0  0  0  0  0  0
    6.2303  -47.5181   14.7860 C   0  0  2  0  0  0  0  0  0  0  0  0
    3.6136  -48.8976    9.8256 C   0  0  2  0  0  0  0  0  0  0  0  0
    4.5855  -48.7855   10.8554 O   0  0  0  0  0  0  0  0  0  0  0  0
    0.0928  -50.7178    6.2162 C   0  0  2  0  0  0  0  0  0  0  0  0
   -1.2327  -50.2494    6.5282 O   0  0  0  0  0  0  0  0  0  0  0  0
   -4.9025  -50.9247    4.1075 C   0  0  2  0  0  0  0  0  0  0  0  0
   -5.5746  -50.3327    2.9742 O   0  0  0  0  0  0  0  0  0  0  0  0
    7.4244  -44.7502   11.6192 C   0  0  2  0  0  0  0  0  0  0  0  0
    7.5161  -46.2262   11.6695 O   0  0  0  0  0  0  0  0  0  0  0  0
    5.6752  -48.7481   14.0051 C   0  0  2  0  0  0  0  0  0  0  0  0
    4.6230  -48.2713   13.1323 O   0  0  0  0  0  0  0  0  0  0  0  0
    3.8983  -47.8257    8.7794 C   0  0  0  0  0  0  0  0  0  0  0  0
    3.6674  -46.5546    9.4057 O   0  0  0  0  0  0  0  0  0  0  0  0
    0.4928  -51.7570    7.2466 C   0  0  1  0  0  0  0  0  0  0  0  0
    0.6825  -51.4888    8.6517 O   0  0  0  0  0  0  0  0  0  0  0  0
   -4.8404  -50.0090    5.3270 C   0  0  2  0  0  0  0  0  0  0  0  0
   -3.9833  -50.4836    6.4020 O   0  0  0  0  0  0  0  0  0  0  0  0
    7.0569  -44.3555   10.2241 C   0  0  0  0  0  0  0  0  0  0  0  0
    5.8206  -44.9419    9.9187 O   0  0  0  0  0  0  0  0  0  0  0  0
    5.1381  -49.8299   15.0120 C   0  0  1  0  0  0  0  0  0  0  0  0
    4.6722  -50.9928   14.2439 O   0  0  0  0  0  0  0  0  0  0  0  0
   -0.3666  -53.0684    7.1691 C   0  0  0  0  0  0  0  0  0  0  0  0
    0.0428  -54.1063    8.1461 N   0  0  0  0  0  0  0  0  0  0  0  0
   -6.1017  -49.5071    6.0264 C   0  0  0  0  0  0  0  0  0  0  0  0
   -6.8680  -50.6304    6.5606 O   0  0  0  0  0  0  0  0  0  0  0  0
  1  2  1  1  0  0  0
  1  8  1  0  0  0  0
  1 36  1  0  0  0  0
  3  4  1  1  0  0  0
  3 10  1  0  0  0  0
  3 47  1  0  0  0  0
  5 11  1  0  0  0  0
  5 30  1  0  0  0  0
  5 38  1  1  0  0  0
  6 21  1  1  0  0  0
  6 42  1  0  0  0  0
  7 15  1  0  0  0  0
  7 44  1  0  0  0  0
  7 32  1  1  0  0  0
  8  9  1  1  0  0  0
  8 17  1  0  0  0  0
 11 12  1  1  0  0  0
 11 20  1  0  0  0  0
 13  6  1  0  0  0  0
 13 14  1  1  0  0  0
 15 16  1  1  0  0  0
 15 24  1  0  0  0  0
 17 26  1  0  0  0  0
 18 10  1  0  0  0  0
 18 19  1  1  0  0  0
 20 21  1  1  0  0  0
 20 29  1  0  0  0  0
 22 13  1  0  0  0  0
 22 23  1  1  0  0  0
 24 25  1  1  0  0  0
 24 33  1  0  0  0  0
 26 27  1  1  0  0  0
 26 35  1  0  0  0  0
 28  2  1  6  0  0  0
 28 18  1  0  0  0  0
 29 30  1  0  0  0  0
 29 39  1  6  0  0  0
 31 22  1  0  0  0  0
 31 32  1  1  0  0  0
 31 41  1  0  0  0  0
 33 34  1  6  0  0  0
 33 43  1  0  0  0  0
 35 36  1  0  0  0  0
 35 45  1  6  0  0  0
 37 28  1  0  0  0  0
 37 38  1  6  0  0  0
 39 40  1  0  0  0  0
 41 42  1  0  0  0  0
 41 49  1  1  0  0  0
 43 44  1  0  0  0  0
 43 51  1  1  0  0  0
 45 46  1  0  0  0  0
 47 37  1  0  0  0  0
 47 48  1  6  0  0  0
 49 50  1  0  0  0  0
 51 52  1  0  0  0  0
M  END
>  <CHROM.1>
-105.19748199,143.91078841,-59.38161329,-59.78134652,-158.74995683,67.74847905
47.95488912,166.41559842,179.18998002,169.47978416,178.30637807,61.89311546
2.57094199,-48.94205901,9.98496014,-0.29833595,-0.68274873,-0.90474871

>  <Name>
2fd0_lig

>  <RI>
2.89522e+07

>  <Rbt.Current_Directory>
/home/itssahil/PROJECTS/Mol_Feturizer/New_Systems/rnas/2fd0

>  <Rbt.Executable>
rbdock ($Id: //depot/dev/client3/rdock/2013.1/src/exe/rbdock.cxx#4 $)

>  <Rbt.Library>
libRbt.so (2013.1, Build901 2013/11/27)

>  <Rbt.Parameter_File>
/export/apps/rDock/src/rDock_2013.1_src/data/scripts/dock_solv.prm

>  <Rbt.Receptor>
prm/pocket_docking_2.prm

>  <SCORE>
10.8741

>  <SCORE.INTER>
2.09142

>  <SCORE.INTER.CONST>
1

>  <SCORE.INTER.POLAR>
-0.492181

>  <SCORE.INTER.ROT>
12

>  <SCORE.INTER.SOLV>
17.7569

>  <SCORE.INTER.VDW>
-14.4841

>  <SCORE.INTER.norm>
0.0402197

>  <SCORE.INTRA>
6.48329

>  <SCORE.INTRA.DIHEDRAL>
-7.22042

>  <SCORE.INTRA.DIHEDRAL.0>
23.9727

>  <SCORE.INTRA.POLAR>
0

>  <SCORE.INTRA.POLAR.0>
0

>  <SCORE.INTRA.REPUL>
0.163826

>  <SCORE.INTRA.REPUL.0>
0

>  <SCORE.INTRA.SOLV>
2.70864

>  <SCORE.INTRA.SOLV.lig_0>
-115.028

>  <SCORE.INTRA.VDW>
7.92005

>  <SCORE.INTRA.VDW.0>
-6.82393

>  <SCORE.INTRA.norm>
0.124679

>  <SCORE.RESTR>
2.29942

>  <SCORE.RESTR.CAVITY>
2.29942

>  <SCORE.RESTR.norm>
0.0442197

>  <SCORE.SYSTEM>
0

>  <SCORE.SYSTEM.CONST>
0

>  <SCORE.SYSTEM.DIHEDRAL>
0

>  <SCORE.SYSTEM.SOLV>
0

>  <SCORE.SYSTEM.norm>
0

>  <SCORE.heavy>
52

>  <SCORE.norm>
0.209118

>  <RMSD>
4.526

$$$$
2fd0_lig
 OpenBabel11021811433D
libRbt.so/2013.1/901 2013/11/27
 52 56  0  0  0  0  0  0  0  0999 V2000
    5.6915  -47.0897   15.0071 C   0  0  2  0  0  0  0  0  0  0  0  0
    6.3129  -47.2322   13.7223 O   0  0  0  0  0  0  0  0  0  0  0  0
    5.0008  -43.6826   11.5843 C   0  0  2  0  0  0  0  0  0  0  0  0
    4.7980  -42.6902   10.5160 N   0  0  0  0  0  0  0  0  0  0  0  0
    4.4488  -48.0410   10.6871 C   0  0  1  0  0  0  0  0  0  0  0  0
    3.7982  -51.8045    8.7640 C   0  0  1  0  0  0  0  0  0  0  0  0
    1.3398  -54.6664    5.4777 C   0  0  1  0  0  0  0  0  0  0  0  0
    6.6383  -47.7189   16.0929 C   0  0  2  0  0  0  0  0  0  0  0  0
    7.9614  -47.1107   16.0771 N   0  0  0  0  0  0  0  0  0  0  0  0
    6.5551  -43.8936   11.8541 C   0  0  0  0  0  0  0  0  0  0  0  0
    3.7430  -49.3842   10.6521 C   0  0  2  0  0  0  0  0  0  0  0  0
    4.5773  -50.4592   11.1680 O   0  0  0  0  0  0  0  0  0  0  0  0
    4.7472  -52.6718    7.8119 C   0  0  2  0  0  0  0  0  0  0  0  0
    4.6119  -52.2293    6.3972 N   0  0  0  0  0  0  0  0  0  0  0  0
    2.1192  -54.8079    4.1510 C   0  0  1  0  0  0  0  0  0  0  0  0
    2.8694  -56.0475    4.1740 O   0  0  0  0  0  0  0  0  0  0  0  0
    6.7225  -49.2794   15.9083 C   0  0  0  0  0  0  0  0  0  0  0  0
    6.7732  -44.9662   13.0251 C   0  0  2  0  0  0  0  0  0  0  0  0
    8.2028  -45.1818   13.2927 N   0  0  0  0  0  0  0  0  0  0  0  0
    3.3187  -49.5074    9.1983 C   0  0  2  0  0  0  0  0  0  0  0  0
    4.0898  -50.4598    8.5178 O   0  0  0  0  0  0  0  0  0  0  0  0
    4.4145  -54.2286    8.0890 C   0  0  1  0  0  0  0  0  0  0  0  0
    4.6081  -54.4810    9.4925 O   0  0  0  0  0  0  0  0  0  0  0  0
    1.3006  -54.7641    2.8323 C   0  0  1  0  0  0  0  0  0  0  0  0
    0.9738  -56.1120    2.4707 O   0  0  0  0  0  0  0  0  0  0  0  0
    5.2724  -49.8628   15.9450 C   0  0  2  0  0  0  0  0  0  0  0  0
    5.3064  -51.2791   15.7992 O   0  0  0  0  0  0  0  0  0  0  0  0
    6.0969  -46.3060   12.6211 C   0  0  2  0  0  0  0  0  0  0  0  0
    3.6046  -48.1652    8.4833 C   0  0  2  0  0  0  0  0  0  0  0  0
    3.9871  -47.3193    9.5584 O   0  0  0  0  0  0  0  0  0  0  0  0
    2.8694  -54.5808    7.7679 C   0  0  2  0  0  0  0  0  0  0  0  0
    2.7280  -54.3309    6.3567 O   0  0  0  0  0  0  0  0  0  0  0  0
   -0.0001  -53.9289    2.8668 C   0  0  2  0  0  0  0  0  0  0  0  0
   -0.0471  -53.2250    1.6064 O   0  0  0  0  0  0  0  0  0  0  0  0
    4.4316  -49.2320   14.7984 C   0  0  2  0  0  0  0  0  0  0  0  0
    4.4077  -47.7657   14.9961 O   0  0  0  0  0  0  0  0  0  0  0  0
    4.5823  -46.1419   12.2897 C   0  0  2  0  0  0  0  0  0  0  0  0
    4.0812  -47.4394   11.8879 O   0  0  0  0  0  0  0  0  0  0  0  0
    2.4050  -47.5371    7.7827 C   0  0  0  0  0  0  0  0  0  0  0  0
    2.8510  -46.2952    7.2170 O   0  0  0  0  0  0  0  0  0  0  0  0
    2.0497  -53.5530    8.5249 C   0  0  1  0  0  0  0  0  0  0  0  0
    2.3128  -52.1342    8.5281 O   0  0  0  0  0  0  0  0  0  0  0  0
   -0.0270  -53.0065    4.0826 C   0  0  2  0  0  0  0  0  0  0  0  0
    0.2417  -53.6637    5.3519 O   0  0  0  0  0  0  0  0  0  0  0  0
    3.0190  -49.7235   14.8007 C   0  0  0  0  0  0  0  0  0  0  0  0
    2.3946  -49.2549   13.6361 O   0  0  0  0  0  0  0  0  0  0  0  0
    4.3910  -45.0757   11.1499 C   0  0  1  0  0  0  0  0  0  0  0  0
    2.9521  -44.9102   10.9014 O   0  0  0  0  0  0  0  0  0  0  0  0
    0.5038  -53.7052    8.2980 C   0  0  0  0  0  0  0  0  0  0  0  0
   -0.0894  -54.8666    9.0042 N   0  0  0  0  0  0  0  0  0  0  0  0
   -1.2047  -52.0767    4.3662 C   0  0  0  0  0  0  0  0  0  0  0  0
   -1.3684  -51.1169    3.2770 O   0  0  0  0  0  0  0  0  0  0  0  0
  1  2  1  6  0  0  0
  1  8  1  0  0  0  0
  1 36  1  0  0  0  0
  3  4  1  6  0  0  0
  3 10  1  0  0  0  0
  3 47  1  0  0  0  0
  5 11  1  0  0  0  0
  5 30  1  0  0  0  0
  5 38  1  1  0  0  0
  6 21  1  6  0  0  0
  6 42  1  0  0  0  0
  7 15  1  0  0  0  0
  7 44  1  0  0  0  0
  7 32  1  1  0  0  0
  8  9  1  6  0  0  0
  8 17  1  0  0  0  0
 11 12  1  6  0  0  0
 11 20  1  0  0  0  0
 13  6  1  0  0  0  0
 13 14  1  6  0  0  0
 15 16  1  1  0  0  0
 15 24  1  0  0  0  0
 17 26  1  0  0  0  0
 18 10  1  0  0  0  0
 18 19  1  6  0  0  0
 20 21  1  6  0  0  0
 20 29  1  0  0  0  0
 22 13  1  0  0  0  0
 22 23  1  1  0  0  0
 24 25  1  1  0  0  0
 24 33  1  0  0  0  0
 26 27  1  6  0  0  0
 26 35  1  0  0  0  0
 28  2  1  1  0  0  0
 28 18  1  0  0  0  0
 29 30  1  0  0  0  0
 29 39  1  1  0  0  0
 31 22  1  0  0  0  0
 31 32  1  6  0  0  0
 31 41  1  0  0  0  0
 33 34  1  6  0  0  0
 33 43  1  0  0  0  0
 35 36  1  0  0  0  0
 35 45  1  1  0  0  0
 37 28  1  0  0  0  0
 37 38  1  6  0  0  0
 39 40  1  0  0  0  0
 41 42  1  0  0  0  0
 41 49  1  6  0  0  0
 43 44  1  0  0  0  0
 43 51  1  1  0  0  0
 45 46  1  0  0  0  0
 47 37  1  0  0  0  0
 47 48  1  1  0  0  0
 49 50  1  0  0  0  0
 51 52  1  0  0  0  0
M  END
>  <CHROM.1>
-150.93122684,178.83718210,176.71246748,-154.62971666,76.17762608,68.87659096
178.38923520,174.54010763,-171.83722991,-69.68530901,73.79601601,-61.53293450
3.49150121,-50.12655400,9.55428438,-0.43786675,1.16106821,2.93651850

>  <Name>
2fd0_lig

>  <RI>
3.4301e+07

>  <Rbt.Current_Directory>
/home/itssahil/PROJECTS/Mol_Feturizer/New_Systems/rnas/2fd0

>  <Rbt.Executable>
rbdock ($Id: //depot/dev/client3/rdock/2013.1/src/exe/rbdock.cxx#4 $)

>  <Rbt.Library>
libRbt.so (2013.1, Build901 2013/11/27)

>  <Rbt.Parameter_File>
/export/apps/rDock/src/rDock_2013.1_src/data/scripts/dock_solv.prm

>  <Rbt.Receptor>
prm/pocket_docking_7.prm

>  <SCORE>
-24.6532

>  <SCORE.INTER>
-18.2209

>  <SCORE.INTER.CONST>
1

>  <SCORE.INTER.POLAR>
-2.62614

>  <SCORE.INTER.ROT>
12

>  <SCORE.INTER.SOLV>
17.2605

>  <SCORE.INTER.VDW>
-20.747

>  <SCORE.INTER.norm>
-0.350402

>  <SCORE.INTRA>
-6.44959

>  <SCORE.INTRA.DIHEDRAL>
-13.2552

>  <SCORE.INTRA.DIHEDRAL.0>
23.9727

>  <SCORE.INTRA.POLAR>
0

>  <SCORE.INTRA.POLAR.0>
0

>  <SCORE.INTRA.REPUL>
0

>  <SCORE.INTRA.REPUL.0>
0

>  <SCORE.INTRA.SOLV>
-1.11962

>  <SCORE.INTRA.SOLV.lig_0>
-115.028

>  <SCORE.INTRA.VDW>
0.737813

>  <SCORE.INTRA.VDW.0>
-6.82393

>  <SCORE.INTRA.norm>
-0.124031

>  <SCORE.RESTR>
0.0173087

>  <SCORE.RESTR.CAVITY>
0.0173087

>  <SCORE.RESTR.norm>
0.000332859

>  <SCORE.SYSTEM>
0

>  <SCORE.SYSTEM.CONST>
0

>  <SCORE.SYSTEM.DIHEDRAL>
0

>  <SCORE.SYSTEM.SOLV>
0

>  <SCORE.SYSTEM.norm>
0

>  <SCORE.heavy>
52

>  <SCORE.norm>
-0.4741

>  <RMSD>
4.559

$$$$
2fd0_lig
 OpenBabel11021811433D
libRbt.so/2013.1/901 2013/11/27
 52 56  0  0  0  0  0  0  0  0999 V2000
    5.2331  -46.8544   15.3571 C   0  0  2  0  0  0  0  0  0  0  0  0
    4.6543  -46.7425   14.0497 O   0  0  0  0  0  0  0  0  0  0  0  0
    1.3084  -44.3629   12.6231 C   0  0  2  0  0  0  0  0  0  0  0  0
    0.4869  -43.2127   12.2120 N   0  0  0  0  0  0  0  0  0  0  0  0
    4.8153  -46.7090   10.2775 C   0  0  1  0  0  0  0  0  0  0  0  0
    3.5833  -50.6201    9.5307 C   0  0  1  0  0  0  0  0  0  0  0  0
   -0.2031  -53.6089    8.3569 C   0  0  1  0  0  0  0  0  0  0  0  0
    6.7205  -47.3403   15.2056 C   0  0  2  0  0  0  0  0  0  0  0  0
    7.4994  -46.4472   14.3591 N   0  0  0  0  0  0  0  0  0  0  0  0
    1.8063  -44.1777   14.1234 C   0  0  0  0  0  0  0  0  0  0  0  0
    3.9123  -47.8803   10.6186 C   0  0  2  0  0  0  0  0  0  0  0  0
    4.6210  -48.9343   11.3293 O   0  0  0  0  0  0  0  0  0  0  0  0
    4.0101  -51.8681    8.6252 C   0  0  2  0  0  0  0  0  0  0  0  0
    3.3726  -51.7810    7.2830 N   0  0  0  0  0  0  0  0  0  0  0  0
   -0.0296  -54.6906    7.2671 C   0  0  1  0  0  0  0  0  0  0  0  0
    0.4314  -55.9163    7.8876 O   0  0  0  0  0  0  0  0  0  0  0  0
    6.7617  -48.8192   14.6693 C   0  0  0  0  0  0  0  0  0  0  0  0
    2.6914  -45.4364   14.5726 C   0  0  2  0  0  0  0  0  0  0  0  0
    3.1667  -45.2888   15.9561 N   0  0  0  0  0  0  0  0  0  0  0  0
    3.3265  -48.2619    9.2696 C   0  0  2  0  0  0  0  0  0  0  0  0
    3.8684  -49.4651    8.7969 O   0  0  0  0  0  0  0  0  0  0  0  0
    3.6814  -53.2082    9.4662 C   0  0  1  0  0  0  0  0  0  0  0  0
    4.3841  -53.1293   10.7196 O   0  0  0  0  0  0  0  0  0  0  0  0
   -1.2666  -55.0290    6.3917 C   0  0  1  0  0  0  0  0  0  0  0  0
   -1.9479  -56.1342    6.9988 O   0  0  0  0  0  0  0  0  0  0  0  0
    5.9160  -49.7189   15.6285 C   0  0  2  0  0  0  0  0  0  0  0  0
    5.9430  -51.0726   15.1868 O   0  0  0  0  0  0  0  0  0  0  0  0
    3.8990  -45.5812   13.6049 C   0  0  2  0  0  0  0  0  0  0  0  0
    3.7393  -47.1928    8.2299 C   0  0  2  0  0  0  0  0  0  0  0  0
    4.3555  -46.2001    9.0375 O   0  0  0  0  0  0  0  0  0  0  0  0
    2.1095  -53.3225    9.8271 C   0  0  2  0  0  0  0  0  0  0  0  0
    1.4516  -53.4159    8.5496 O   0  0  0  0  0  0  0  0  0  0  0  0
   -2.2784  -53.8807    6.1717 C   0  0  2  0  0  0  0  0  0  0  0  0
   -2.6732  -53.9669    4.7849 O   0  0  0  0  0  0  0  0  0  0  0  0
    4.4492  -49.2021   15.6635 C   0  0  2  0  0  0  0  0  0  0  0  0
    4.4643  -47.8020   16.1421 O   0  0  0  0  0  0  0  0  0  0  0  0
    3.4651  -45.7081   12.1127 C   0  0  2  0  0  0  0  0  0  0  0  0
    4.6699  -45.7908   11.3142 O   0  0  0  0  0  0  0  0  0  0  0  0
    2.5842  -46.5461    7.4736 C   0  0  0  0  0  0  0  0  0  0  0  0
    1.9197  -47.5909    6.7469 O   0  0  0  0  0  0  0  0  0  0  0  0
    1.7389  -51.9971   10.4655 C   0  0  1  0  0  0  0  0  0  0  0  0
    2.1013  -50.7032    9.9396 O   0  0  0  0  0  0  0  0  0  0  0  0
   -1.6695  -52.5334    6.5505 C   0  0  2  0  0  0  0  0  0  0  0  0
   -1.0619  -52.4892    7.8712 O   0  0  0  0  0  0  0  0  0  0  0  0
    3.5934  -50.0013   16.5941 C   0  0  0  0  0  0  0  0  0  0  0  0
    4.1591  -49.9279   17.8748 O   0  0  0  0  0  0  0  0  0  0  0  0
    2.5868  -44.4713   11.6983 C   0  0  1  0  0  0  0  0  0  0  0  0
    2.1544  -44.6509   10.3054 O   0  0  0  0  0  0  0  0  0  0  0  0
    0.2198  -51.8979   10.8487 C   0  0  0  0  0  0  0  0  0  0  0  0
   -0.1373  -50.6369   11.5428 N   0  0  0  0  0  0  0  0  0  0  0  0
   -2.4574  -51.2301    6.4397 C   0  0  0  0  0  0  0  0  0  0  0  0
   -2.8240  -50.9744    5.0488 O   0  0  0  0  0  0  0  0  0  0  0  0
  1  2  1  6  0  0  0
  1  8  1  0  0  0  0
  1 36  1  0  0  0  0
  3  4  1  6  0  0  0
  3 10  1  0  0  0  0
  3 47  1  0  0  0  0
  5 11  1  0  0  0  0
  5 30  1  0  0  0  0
  5 38  1  1  0  0  0
  6 21  1  6  0  0  0
  6 42  1  0  0  0  0
  7 15  1  0  0  0  0
  7 44  1  0  0  0  0
  7 32  1  6  0  0  0
  8  9  1  6  0  0  0
  8 17  1  0  0  0  0
 11 12  1  6  0  0  0
 11 20  1  0  0  0  0
 13  6  1  0  0  0  0
 13 14  1  6  0  0  0
 15 16  1  1  0  0  0
 15 24  1  0  0  0  0
 17 26  1  0  0  0  0
 18 10  1  0  0  0  0
 18 19  1  1  0  0  0
 20 21  1  6  0  0  0
 20 29  1  0  0  0  0
 22 13  1  0  0  0  0
 22 23  1  1  0  0  0
 24 25  1  1  0  0  0
 24 33  1  0  0  0  0
 26 27  1  6  0  0  0
 26 35  1  0  0  0  0
 28  2  1  1  0  0  0
 28 18  1  0  0  0  0
 29 30  1  0  0  0  0
 29 39  1  1  0  0  0
 31 22  1  0  0  0  0
 31 32  1  6  0  0  0
 31 41  1  0  0  0  0
 33 34  1  6  0  0  0
 33 43  1  0  0  0  0
 35 36  1  0  0  0  0
 35 45  1  1  0  0  0
 37 28  1  0  0  0  0
 37 38  1  6  0  0  0
 39 40  1  0  0  0  0
 41 42  1  0  0  0  0
 41 49  1  6  0  0  0
 43 44  1  0  0  0  0
 43 51  1  1  0  0  0
 45 46  1  0  0  0  0
 47 37  1  0  0  0  0
 47 48  1  6  0  0  0
 49 50  1  0  0  0  0
 51 52  1  0  0  0  0
M  END
>  <CHROM.1>
-132.36311985,-26.71813682,167.11884098,-135.62574602,65.35541517,-59.57514251
-61.69515830,177.76458349,58.61563801,135.65610036,176.73532357,-62.58790164
2.46954588,-49.54395593,10.76956995,-0.58968770,0.98871920,3.07452309

>  <Name>
2fd0_lig

>  <RI>
0

>  <Rbt.Current_Directory>
/home/itssahil/PROJECTS/Mol_Feturizer/New_Systems/rnas/2fd0

>  <Rbt.Executable>
rbdock ($Id: //depot/dev/client3/rdock/2013.1/src/exe/rbdock.cxx#4 $)

>  <Rbt.Library>
libRbt.so (2013.1, Build901 2013/11/27)

>  <Rbt.Parameter_File>
/export/apps/rDock/src/rDock_2013.1_src/data/scripts/dock_solv.prm

>  <Rbt.Receptor>
prm/pocket_docking_5.prm

>  <SCORE>
-15.922

>  <SCORE.INTER>
-21.1881

>  <SCORE.INTER.CONST>
1

>  <SCORE.INTER.POLAR>
-2.80804

>  <SCORE.INTER.ROT>
12

>  <SCORE.INTER.SOLV>
19.3507

>  <SCORE.INTER.VDW>
-22.8155

>  <SCORE.INTER.norm>
-0.407463

>  <SCORE.INTRA>
4.66147

>  <SCORE.INTRA.DIHEDRAL>
1.46187

>  <SCORE.INTRA.DIHEDRAL.0>
23.9727

>  <SCORE.INTRA.POLAR>
0

>  <SCORE.INTRA.POLAR.0>
0

>  <SCORE.INTRA.REPUL>
0

>  <SCORE.INTRA.REPUL.0>
0

>  <SCORE.INTRA.SOLV>
-1.54061

>  <SCORE.INTRA.SOLV.lig_0>
-115.028

>  <SCORE.INTRA.VDW>
4.70084

>  <SCORE.INTRA.VDW.0>
-6.82393

>  <SCORE.INTRA.norm>
0.0896437

>  <SCORE.RESTR>
0.604655

>  <SCORE.RESTR.CAVITY>
0.604655

>  <SCORE.RESTR.norm>
0.011628

>  <SCORE.SYSTEM>
0

>  <SCORE.SYSTEM.CONST>
0

>  <SCORE.SYSTEM.DIHEDRAL>
0

>  <SCORE.SYSTEM.SOLV>
0

>  <SCORE.SYSTEM.norm>
0

>  <SCORE.heavy>
52

>  <SCORE.norm>
-0.306192

>  <RMSD>
4.580

$$$$
2fd0_lig
 OpenBabel11021811433D
libRbt.so/2013.1/901 2013/11/27
 52 56  0  0  0  0  0  0  0  0999 V2000
    4.6553  -45.2056   13.8700 C   0  0  2  0  0  0  0  0  0  0  0  0
    3.6662  -46.2088   13.6012 O   0  0  0  0  0  0  0  0  0  0  0  0
    4.5721  -49.3486   16.4672 C   0  0  2  0  0  0  0  0  0  0  0  0
    4.4310  -50.5207   17.3465 N   0  0  0  0  0  0  0  0  0  0  0  0
    2.9129  -48.9803   12.1373 C   0  0  1  0  0  0  0  0  0  0  0  0
   -0.4004  -50.7173    9.8980 C   0  0  1  0  0  0  0  0  0  0  0  0
   -2.6421  -53.1711    5.9409 C   0  0  1  0  0  0  0  0  0  0  0  0
    4.8227  -44.3122   12.5873 C   0  0  2  0  0  0  0  0  0  0  0  0
    3.5613  -43.7118   12.1760 N   0  0  0  0  0  0  0  0  0  0  0  0
    3.4954  -48.2400   16.8478 C   0  0  0  0  0  0  0  0  0  0  0  0
    3.0296  -49.6126   10.7624 C   0  0  2  0  0  0  0  0  0  0  0  0
    3.1027  -48.6180    9.7024 O   0  0  0  0  0  0  0  0  0  0  0  0
   -0.2129  -52.1284    9.1678 C   0  0  2  0  0  0  0  0  0  0  0  0
    0.3763  -51.9410    7.8139 N   0  0  0  0  0  0  0  0  0  0  0  0
   -2.1001  -52.3082    4.7793 C   0  0  1  0  0  0  0  0  0  0  0  0
   -0.6574  -52.2242    4.8868 O   0  0  0  0  0  0  0  0  0  0  0  0
    5.4684  -45.1461   11.4194 C   0  0  0  0  0  0  0  0  0  0  0  0
    3.6582  -46.9603   15.8964 C   0  0  2  0  0  0  0  0  0  0  0  0
    2.6720  -45.9207   16.2259 N   0  0  0  0  0  0  0  0  0  0  0  0
    1.8349  -50.5502   10.7170 C   0  0  2  0  0  0  0  0  0  0  0  0
    0.8369  -50.0683    9.8587 O   0  0  0  0  0  0  0  0  0  0  0  0
   -1.6404  -52.8845    9.2070 C   0  0  1  0  0  0  0  0  0  0  0  0
   -2.0497  -52.9892   10.5827 O   0  0  0  0  0  0  0  0  0  0  0  0
   -2.4507  -52.7531    3.3336 C   0  0  1  0  0  0  0  0  0  0  0  0
   -1.3844  -53.5834    2.8564 O   0  0  0  0  0  0  0  0  0  0  0  0
    6.8179  -45.7504   11.9278 C   0  0  2  0  0  0  0  0  0  0  0  0
    7.4446  -46.4997   10.8914 O   0  0  0  0  0  0  0  0  0  0  0  0
    3.4944  -47.4024   14.4154 C   0  0  2  0  0  0  0  0  0  0  0  0
    1.1821  -50.5892   12.1195 C   0  0  2  0  0  0  0  0  0  0  0  0
    2.1045  -49.8516   12.9087 O   0  0  0  0  0  0  0  0  0  0  0  0
   -2.7910  -52.0389    8.4485 C   0  0  2  0  0  0  0  0  0  0  0  0
   -2.3489  -51.9752    7.0795 O   0  0  0  0  0  0  0  0  0  0  0  0
   -3.7872  -53.5111    3.1608 C   0  0  2  0  0  0  0  0  0  0  0  0
   -4.3762  -52.9948    1.9471 O   0  0  0  0  0  0  0  0  0  0  0  0
    6.5447  -46.6677   13.1541 C   0  0  2  0  0  0  0  0  0  0  0  0
    5.9103  -45.8491   14.2109 O   0  0  0  0  0  0  0  0  0  0  0  0
    4.4906  -48.5306   14.0085 C   0  0  2  0  0  0  0  0  0  0  0  0
    4.2107  -48.8835   12.6326 O   0  0  0  0  0  0  0  0  0  0  0  0
    1.0368  -51.9800   12.7268 C   0  0  0  0  0  0  0  0  0  0  0  0
    0.1065  -51.8690   13.8146 O   0  0  0  0  0  0  0  0  0  0  0  0
   -2.7310  -50.6436    9.0409 C   0  0  1  0  0  0  0  0  0  0  0  0
   -1.5179  -49.8879    9.2394 O   0  0  0  0  0  0  0  0  0  0  0  0
   -4.6758  -53.3427    4.3902 C   0  0  2  0  0  0  0  0  0  0  0  0
   -4.0278  -53.6465    5.6564 O   0  0  0  0  0  0  0  0  0  0  0  0
    7.8040  -47.2506   13.7120 C   0  0  0  0  0  0  0  0  0  0  0  0
    7.4559  -48.1070   14.7661 O   0  0  0  0  0  0  0  0  0  0  0  0
    4.3237  -49.7691   14.9630 C   0  0  1  0  0  0  0  0  0  0  0  0
    5.3115  -50.7885   14.5829 O   0  0  0  0  0  0  0  0  0  0  0  0
   -3.7575  -49.6501    8.3900 C   0  0  0  0  0  0  0  0  0  0  0  0
   -5.1740  -50.0309    8.6085 N   0  0  0  0  0  0  0  0  0  0  0  0
   -6.0519  -53.9974    4.4892 C   0  0  0  0  0  0  0  0  0  0  0  0
   -5.9498  -55.4343    4.2456 O   0  0  0  0  0  0  0  0  0  0  0  0
  1  2  1  6  0  0  0
  1  8  1  0  0  0  0
  1 36  1  0  0  0  0
  3  4  1  1  0  0  0
  3 10  1  0  0  0  0
  3 47  1  0  0  0  0
  5 11  1  0  0  0  0
  5 30  1  0  0  0  0
  5 38  1  1  0  0  0
  6 21  1  6  0  0  0
  6 42  1  0  0  0  0
  7 15  1  0  0  0  0
  7 44  1  0  0  0  0
  7 32  1  1  0  0  0
  8  9  1  6  0  0  0
  8 17  1  0  0  0  0
 11 12  1  6  0  0  0
 11 20  1  0  0  0  0
 13  6  1  0  0  0  0
 13 14  1  6  0  0  0
 15 16  1  6  0  0  0
 15 24  1  0  0  0  0
 17 26  1  0  0  0  0
 18 10  1  0  0  0  0
 18 19  1  1  0  0  0
 20 21  1  6  0  0  0
 20 29  1  0  0  0  0
 22 13  1  0  0  0  0
 22 23  1  1  0  0  0
 24 25  1  1  0  0  0
 24 33  1  0  0  0  0
 26 27  1  6  0  0  0
 26 35  1  0  0  0  0
 28  2  1  6  0  0  0
 28 18  1  0  0  0  0
 29 30  1  0  0  0  0
 29 39  1  1  0  0  0
 31 22  1  0  0  0  0
 31 32  1  6  0  0  0
 31 41  1  0  0  0  0
 33 34  1  6  0  0  0
 33 43  1  0  0  0  0
 35 36  1  0  0  0  0
 35 45  1  1  0  0  0
 37 28  1  0  0  0  0
 37 38  1  6  0  0  0
 39 40  1  0  0  0  0
 41 42  1  0  0  0  0
 41 49  1  6  0  0  0
 43 44  1  0  0  0  0
 43 51  1  6  0  0  0
 45 46  1  0  0  0  0
 47 37  1  0  0  0  0
 47 48  1  6  0  0  0
 49 50  1  0  0  0  0
 51 52  1  0  0  0  0
M  END
>  <CHROM.1>
163.83978564,-169.68968185,-73.64123530,171.68744930,-169.59537859,40.46031560
-164.37348380,84.95928643,-177.24710275,-40.40601253,63.58462070,53.97742523
1.15430285,-49.93557620,10.41475082,-0.59804760,-0.70504600,-1.38134367

>  <Name>
2fd0_lig

>  <RI>
2.00683e+07

>  <Rbt.Current_Directory>
/home/itssahil/PROJECTS/Mol_Feturizer/New_Systems/rnas/2fd0

>  <Rbt.Executable>
rbdock ($Id: //depot/dev/client3/rdock/2013.1/src/exe/rbdock.cxx#4 $)

>  <Rbt.Library>
libRbt.so (2013.1, Build901 2013/11/27)

>  <Rbt.Parameter_File>
/export/apps/rDock/src/rDock_2013.1_src/data/scripts/dock_solv.prm

>  <Rbt.Receptor>
prm/pocket_docking_4.prm

>  <SCORE>
-14.1243

>  <SCORE.INTER>
-9.75052

>  <SCORE.INTER.CONST>
1

>  <SCORE.INTER.POLAR>
-1.2159

>  <SCORE.INTER.ROT>
12

>  <SCORE.INTER.SOLV>
18.4265

>  <SCORE.INTER.VDW>
-20.1895

>  <SCORE.INTER.norm>
-0.18751

>  <SCORE.INTRA>
-4.39081

>  <SCORE.INTRA.DIHEDRAL>
-11.9331

>  <SCORE.INTRA.DIHEDRAL.0>
23.9727

>  <SCORE.INTRA.POLAR>
0

>  <SCORE.INTRA.POLAR.0>
0

>  <SCORE.INTRA.REPUL>
0

>  <SCORE.INTRA.REPUL.0>
0

>  <SCORE.INTRA.SOLV>
-2.36234

>  <SCORE.INTRA.SOLV.lig_0>
-115.028

>  <SCORE.INTRA.VDW>
2.75692

>  <SCORE.INTRA.VDW.0>
-6.82393

>  <SCORE.INTRA.norm>
-0.0844387

>  <SCORE.RESTR>
0.016995

>  <SCORE.RESTR.CAVITY>
0.016995

>  <SCORE.RESTR.norm>
0.000326828

>  <SCORE.SYSTEM>
0

>  <SCORE.SYSTEM.CONST>
0

>  <SCORE.SYSTEM.DIHEDRAL>
0

>  <SCORE.SYSTEM.SOLV>
0

>  <SCORE.SYSTEM.norm>
0

>  <SCORE.heavy>
52

>  <SCORE.norm>
-0.271622

>  <RMSD>
4.581

$$$$
2fd0_lig
 OpenBabel11021811433D
libRbt.so/2013.1/901 2013/11/27
 52 56  0  0  0  0  0  0  0  0999 V2000
    5.5202  -46.4098   13.1657 C   0  0  2  0  0  0  0  0  0  0  0  0
    5.2890  -46.8612   11.8242 O   0  0  0  0  0  0  0  0  0  0  0  0
    1.1840  -45.6410   11.0808 C   0  0  2  0  0  0  0  0  0  0  0  0
   -0.0969  -45.3880   10.4011 N   0  0  0  0  0  0  0  0  0  0  0  0
    3.2588  -49.5855   10.5331 C   0  0  1  0  0  0  0  0  0  0  0  0
    0.4851  -51.4657    8.0389 C   0  0  1  0  0  0  0  0  0  0  0  0
   -3.2729  -50.4581    4.9868 C   0  0  1  0  0  0  0  0  0  0  0  0
    6.9582  -46.8675   13.6064 C   0  0  2  0  0  0  0  0  0  0  0  0
    7.9859  -46.3745   12.7001 N   0  0  0  0  0  0  0  0  0  0  0  0
    2.3653  -44.8797   10.3339 C   0  0  0  0  0  0  0  0  0  0  0  0
    1.8156  -49.8064   10.1184 C   0  0  2  0  0  0  0  0  0  0  0  0
    1.3011  -51.0892   10.5741 O   0  0  0  0  0  0  0  0  0  0  0  0
    0.3787  -52.4833    6.8090 C   0  0  2  0  0  0  0  0  0  0  0  0
    0.6194  -51.7741    5.5228 N   0  0  0  0  0  0  0  0  0  0  0  0
   -2.8361  -50.6768    3.5208 C   0  0  1  0  0  0  0  0  0  0  0  0
   -3.3485  -51.9517    3.0606 O   0  0  0  0  0  0  0  0  0  0  0  0
    7.0169  -48.4342   13.7419 C   0  0  0  0  0  0  0  0  0  0  0  0
    3.7573  -45.1477   11.0823 C   0  0  2  0  0  0  0  0  0  0  0  0
    4.8672  -44.4567   10.4097 N   0  0  0  0  0  0  0  0  0  0  0  0
    1.8591  -49.6010    8.6136 C   0  0  2  0  0  0  0  0  0  0  0  0
    1.7166  -50.8141    7.9259 O   0  0  0  0  0  0  0  0  0  0  0  0
   -1.0441  -53.2394    6.9312 C   0  0  1  0  0  0  0  0  0  0  0  0
   -1.0997  -53.8751    8.2211 O   0  0  0  0  0  0  0  0  0  0  0  0
   -3.2397  -49.5927    2.4849 C   0  0  1  0  0  0  0  0  0  0  0  0
   -4.4817  -49.9907    1.8906 O   0  0  0  0  0  0  0  0  0  0  0  0
    5.8964  -48.8893   14.7330 C   0  0  2  0  0  0  0  0  0  0  0  0
    5.9278  -50.3036   14.8975 O   0  0  0  0  0  0  0  0  0  0  0  0
    4.0269  -46.6778   11.1238 C   0  0  2  0  0  0  0  0  0  0  0  0
    3.2617  -49.0750    8.2257 C   0  0  2  0  0  0  0  0  0  0  0  0
    3.8624  -48.8388    9.4910 O   0  0  0  0  0  0  0  0  0  0  0  0
   -2.2838  -52.2029    6.8761 C   0  0  2  0  0  0  0  0  0  0  0  0
   -2.1979  -51.6066    5.5682 O   0  0  0  0  0  0  0  0  0  0  0  0
   -3.3873  -48.1533    3.0297 C   0  0  2  0  0  0  0  0  0  0  0  0
   -2.7993  -47.2935    2.0289 O   0  0  0  0  0  0  0  0  0  0  0  0
    4.5093  -48.4505   14.1826 C   0  0  2  0  0  0  0  0  0  0  0  0
    4.5130  -46.9774   14.0425 O   0  0  0  0  0  0  0  0  0  0  0  0
    2.8690  -47.4769   11.7959 C   0  0  2  0  0  0  0  0  0  0  0  0
    3.2154  -48.8813   11.7336 O   0  0  0  0  0  0  0  0  0  0  0  0
    3.2682  -47.7681    7.4406 C   0  0  0  0  0  0  0  0  0  0  0  0
    2.4736  -46.8288    8.1806 O   0  0  0  0  0  0  0  0  0  0  0  0
   -1.9744  -51.1396    7.9130 C   0  0  1  0  0  0  0  0  0  0  0  0
   -0.6986  -50.4813    8.0579 O   0  0  0  0  0  0  0  0  0  0  0  0
   -2.7409  -48.0190    4.4059 C   0  0  2  0  0  0  0  0  0  0  0  0
   -3.1559  -49.0217    5.3742 O   0  0  0  0  0  0  0  0  0  0  0  0
    3.3937  -48.8259   15.1054 C   0  0  0  0  0  0  0  0  0  0  0  0
    2.1827  -48.6086   14.4331 O   0  0  0  0  0  0  0  0  0  0  0  0
    1.5122  -47.1879   11.0555 C   0  0  1  0  0  0  0  0  0  0  0  0
    0.4385  -47.9151   11.7468 O   0  0  0  0  0  0  0  0  0  0  0  0
   -3.0564  -50.0040    7.9770 C   0  0  0  0  0  0  0  0  0  0  0  0
   -4.3854  -50.4741    8.4379 N   0  0  0  0  0  0  0  0  0  0  0  0
   -2.7511  -46.7022    5.1791 C   0  0  0  0  0  0  0  0  0  0  0  0
   -4.1069  -46.3816    5.6191 O   0  0  0  0  0  0  0  0  0  0  0  0
  1  2  1  6  0  0  0
  1  8  1  0  0  0  0
  1 36  1  0  0  0  0
  3  4  1  6  0  0  0
  3 10  1  0  0  0  0
  3 47  1  0  0  0  0
  5 11  1  0  0  0  0
  5 30  1  0  0  0  0
  5 38  1  1  0  0  0
  6 21  1  6  0  0  0
  6 42  1  0  0  0  0
  7 15  1  0  0  0  0
  7 44  1  0  0  0  0
  7 32  1  1  0  0  0
  8  9  1  6  0  0  0
  8 17  1  0  0  0  0
 11 12  1  6  0  0  0
 11 20  1  0  0  0  0
 13  6  1  0  0  0  0
 13 14  1  6  0  0  0
 15 16  1  6  0  0  0
 15 24  1  0  0  0  0
 17 26  1  0  0  0  0
 18 10  1  0  0  0  0
 18 19  1  6  0  0  0
 20 21  1  6  0  0  0
 20 29  1  0  0  0  0
 22 13  1  0  0  0  0
 22 23  1  1  0  0  0
 24 25  1  1  0  0  0
 24 33  1  0  0  0  0
 26 27  1  6  0  0  0
 26 35  1  0  0  0  0
 28  2  1  1  0  0  0
 28 18  1  0  0  0  0
 29 30  1  0  0  0  0
 29 39  1  6  0  0  0
 31 22  1  0  0  0  0
 31 32  1  6  0  0  0
 31 41  1  0  0  0  0
 33 34  1  6  0  0  0
 33 43  1  0  0  0  0
 35 36  1  0  0  0  0
 35 45  1  1  0  0  0
 37 28  1  0  0  0  0
 37 38  1  6  0  0  0
 39 40  1  0  0  0  0
 41 42  1  0  0  0  0
 41 49  1  6  0  0  0
 43 44  1  0  0  0  0
 43 51  1  1  0  0  0
 45 46  1  0  0  0  0
 47 37  1  0  0  0  0
 47 48  1  1  0  0  0
 49 50  1  0  0  0  0
 51 52  1  0  0  0  0
M  END
>  <CHROM.1>
176.42170962,-73.96259720,160.14611382,-163.08913503,66.24032375,58.72783506
52.01188863,179.34048660,-169.81930269,-68.38958563,65.39228251,68.89744049
1.02367448,-48.88223302,8.95065945,0.02368336,-0.84442144,-0.25524476

>  <Name>
2fd0_lig

>  <RI>
2.00683e+07

>  <Rbt.Current_Directory>
/home/itssahil/PROJECTS/Mol_Feturizer/New_Systems/rnas/2fd0

>  <Rbt.Executable>
rbdock ($Id: //depot/dev/client3/rdock/2013.1/src/exe/rbdock.cxx#4 $)

>  <Rbt.Library>
libRbt.so (2013.1, Build901 2013/11/27)

>  <Rbt.Parameter_File>
/export/apps/rDock/src/rDock_2013.1_src/data/scripts/dock_solv.prm

>  <Rbt.Receptor>
prm/pocket_docking_4.prm

>  <SCORE>
-13.078

>  <SCORE.INTER>
-8.22184

>  <SCORE.INTER.CONST>
1

>  <SCORE.INTER.POLAR>
-2.27795

>  <SCORE.INTER.ROT>
12

>  <SCORE.INTER.SOLV>
10.6357

>  <SCORE.INTER.VDW>
-13.0333

>  <SCORE.INTER.norm>
-0.158112

>  <SCORE.INTRA>
-4.871

>  <SCORE.INTRA.DIHEDRAL>
-16.7443

>  <SCORE.INTRA.DIHEDRAL.0>
23.9727

>  <SCORE.INTRA.POLAR>
0

>  <SCORE.INTRA.POLAR.0>
0

>  <SCORE.INTRA.REPUL>
0

>  <SCORE.INTRA.REPUL.0>
0

>  <SCORE.INTRA.SOLV>
0.586983

>  <SCORE.INTRA.SOLV.lig_0>
-115.028

>  <SCORE.INTRA.VDW>
3.20766

>  <SCORE.INTRA.VDW.0>
-6.82393

>  <SCORE.INTRA.norm>
-0.093673

>  <SCORE.RESTR>
0.0148226

>  <SCORE.RESTR.CAVITY>
0.0148226

>  <SCORE.RESTR.norm>
0.00028505

>  <SCORE.SYSTEM>
0

>  <SCORE.SYSTEM.CONST>
0

>  <SCORE.SYSTEM.DIHEDRAL>
0

>  <SCORE.SYSTEM.SOLV>
0

>  <SCORE.SYSTEM.norm>
0

>  <SCORE.heavy>
52

>  <SCORE.norm>
-0.2515

>  <RMSD>
4.591

$$$$
2fd0_lig
 OpenBabel11021811433D
libRbt.so/2013.1/901 2013/11/27
 52 56  0  0  0  0  0  0  0  0999 V2000
    4.6614  -47.9446   14.6412 C   0  0  2  0  0  0  0  0  0  0  0  0
    4.0700  -48.3038   13.3850 O   0  0  0  0  0  0  0  0  0  0  0  0
    4.2579  -44.5958   11.1250 C   0  0  2  0  0  0  0  0  0  0  0  0
    4.1502  -43.6227   10.0257 N   0  0  0  0  0  0  0  0  0  0  0  0
    0.6955  -47.0633   11.9593 C   0  0  1  0  0  0  0  0  0  0  0  0
   -1.7410  -49.6507    9.3469 C   0  0  1  0  0  0  0  0  0  0  0  0
   -2.5419  -52.9870    5.4335 C   0  0  1  0  0  0  0  0  0  0  0  0
    4.7824  -49.2390   15.5252 C   0  0  2  0  0  0  0  0  0  0  0  0
    5.5518  -50.2808   14.8592 N   0  0  0  0  0  0  0  0  0  0  0  0
    5.1913  -45.8116   10.6967 C   0  0  0  0  0  0  0  0  0  0  0  0
    1.1451  -48.3458   11.2835 C   0  0  2  0  0  0  0  0  0  0  0  0
    1.9606  -48.0916   10.1052 O   0  0  0  0  0  0  0  0  0  0  0  0
   -1.6266  -51.2186    9.6437 C   0  0  2  0  0  0  0  0  0  0  0  0
   -0.4356  -51.7933    8.9607 N   0  0  0  0  0  0  0  0  0  0  0  0
   -1.0380  -53.3203    5.3105 C   0  0  1  0  0  0  0  0  0  0  0  0
   -0.7353  -54.4561    6.1579 O   0  0  0  0  0  0  0  0  0  0  0  0
    3.3545  -49.7560   15.9377 C   0  0  0  0  0  0  0  0  0  0  0  0
    5.3160  -46.8643   11.8990 C   0  0  2  0  0  0  0  0  0  0  0  0
    6.1723  -48.0005   11.5278 N   0  0  0  0  0  0  0  0  0  0  0  0
   -0.1632  -49.0805   11.0441 C   0  0  2  0  0  0  0  0  0  0  0  0
   -0.5115  -49.0789    9.6864 O   0  0  0  0  0  0  0  0  0  0  0  0
   -3.0442  -51.8877    9.2515 C   0  0  1  0  0  0  0  0  0  0  0  0
   -4.0729  -51.2241   10.0080 O   0  0  0  0  0  0  0  0  0  0  0  0
   -0.4851  -53.6174    3.8903 C   0  0  1  0  0  0  0  0  0  0  0  0
   -0.5397  -55.0345    3.6829 O   0  0  0  0  0  0  0  0  0  0  0  0
    2.5924  -48.5927   16.6525 C   0  0  2  0  0  0  0  0  0  0  0  0
    1.2985  -49.0269   17.0591 O   0  0  0  0  0  0  0  0  0  0  0  0
    3.8970  -47.3678   12.2845 C   0  0  2  0  0  0  0  0  0  0  0  0
   -1.3008  -48.3118   11.7576 C   0  0  2  0  0  0  0  0  0  0  0  0
   -0.5915  -47.3242   12.4919 O   0  0  0  0  0  0  0  0  0  0  0  0
   -3.4047  -51.6640    7.6913 C   0  0  2  0  0  0  0  0  0  0  0  0
   -2.3633  -52.3563    6.9772 O   0  0  0  0  0  0  0  0  0  0  0  0
   -1.2085  -52.9147    2.7183 C   0  0  2  0  0  0  0  0  0  0  0  0
   -0.1659  -52.4857    1.8153 O   0  0  0  0  0  0  0  0  0  0  0  0
    2.4651  -47.3841   15.6816 C   0  0  2  0  0  0  0  0  0  0  0  0
    3.8281  -46.9546   15.2976 O   0  0  0  0  0  0  0  0  0  0  0  0
    2.9252  -46.2070   12.6576 C   0  0  2  0  0  0  0  0  0  0  0  0
    1.6356  -46.7959   12.9511 O   0  0  0  0  0  0  0  0  0  0  0  0
   -2.1243  -49.1388   12.7387 C   0  0  0  0  0  0  0  0  0  0  0  0
   -3.1117  -48.2624   13.3026 O   0  0  0  0  0  0  0  0  0  0  0  0
   -3.2513  -50.1749    7.4454 C   0  0  1  0  0  0  0  0  0  0  0  0
   -2.1263  -49.3829    7.8805 O   0  0  0  0  0  0  0  0  0  0  0  0
   -2.0876  -51.7732    3.2221 C   0  0  2  0  0  0  0  0  0  0  0  0
   -2.9985  -52.1347    4.2969 O   0  0  0  0  0  0  0  0  0  0  0  0
    1.7746  -46.2207   16.3193 C   0  0  0  0  0  0  0  0  0  0  0  0
    1.6985  -45.1892   15.3728 O   0  0  0  0  0  0  0  0  0  0  0  0
    2.8295  -45.1799   11.4708 C   0  0  1  0  0  0  0  0  0  0  0  0
    1.9482  -44.0766   11.8775 O   0  0  0  0  0  0  0  0  0  0  0  0
   -3.5190  -49.7629    5.9544 C   0  0  0  0  0  0  0  0  0  0  0  0
   -3.4122  -48.3036    5.7123 N   0  0  0  0  0  0  0  0  0  0  0  0
   -2.9236  -50.9171    2.2735 C   0  0  0  0  0  0  0  0  0  0  0  0
   -2.0921  -50.4002    1.1891 O   0  0  0  0  0  0  0  0  0  0  0  0
  1  2  1  6  0  0  0
  1  8  1  0  0  0  0
  1 36  1  0  0  0  0
  3  4  1  6  0  0  0
  3 10  1  0  0  0  0
  3 47  1  0  0  0  0
  5 11  1  0  0  0  0
  5 30  1  0  0  0  0
  5 38  1  1  0  0  0
  6 21  1  6  0  0  0
  6 42  1  0  0  0  0
  7 15  1  0  0  0  0
  7 44  1  0  0  0  0
  7 32  1  1  0  0  0
  8  9  1  6  0  0  0
  8 17  1  0  0  0  0
 11 12  1  6  0  0  0
 11 20  1  0  0  0  0
 13  6  1  0  0  0  0
 13 14  1  6  0  0  0
 15 16  1  1  0  0  0
 15 24  1  0  0  0  0
 17 26  1  0  0  0  0
 18 10  1  0  0  0  0
 18 19  1  6  0  0  0
 20 21  1  6  0  0  0
 20 29  1  0  0  0  0
 22 13  1  0  0  0  0
 22 23  1  1  0  0  0
 24 25  1  6  0  0  0
 24 33  1  0  0  0  0
 26 27  1  6  0  0  0
 26 35  1  0  0  0  0
 28  2  1  1  0  0  0
 28 18  1  0  0  0  0
 29 30  1  0  0  0  0
 29 39  1  1  0  0  0
 31 22  1  0  0  0  0
 31 32  1  6  0  0  0
 31 41  1  0  0  0  0
 33 34  1  6  0  0  0
 33 43  1  0  0  0  0
 35 36  1  0  0  0  0
 35 45  1  1  0  0  0
 37 28  1  0  0  0  0
 37 38  1  6  0  0  0
 39 40  1  0  0  0  0
 41 42  1  0  0  0  0
 41 49  1  6  0  0  0
 43 44  1  0  0  0  0
 43 51  1  6  0  0  0
 45 46  1  0  0  0  0
 47 37  1  0  0  0  0
 47 48  1  1  0  0  0
 49 50  1  0  0  0  0
 51 52  1  0  0  0  0
M  END
>  <CHROM.1>
-175.42983237,78.62294486,-67.11210225,171.66386036,-176.02180390,60.10590409
179.53916702,153.79065029,-179.62236491,-86.17973257,178.23248544,-51.74049475
0.43846047,-49.23037216,9.98919119,-1.05117519,-0.49914028,-1.78452429

>  <Name>
2fd0_lig

>  <RI>
0

>  <Rbt.Current_Directory>
/home/itssahil/PROJECTS/Mol_Feturizer/New_Systems/rnas/2fd0

>  <Rbt.Executable>
rbdock ($Id: //depot/dev/client3/rdock/2013.1/src/exe/rbdock.cxx#4 $)

>  <Rbt.Library>
libRbt.so (2013.1, Build901 2013/11/27)

>  <Rbt.Parameter_File>
/export/apps/rDock/src/rDock_2013.1_src/data/scripts/dock_solv.prm

>  <Rbt.Receptor>
prm/pocket_docking_5.prm

>  <SCORE>
-13.7493

>  <SCORE.INTER>
-7.37874

>  <SCORE.INTER.CONST>
1

>  <SCORE.INTER.POLAR>
-1.87694

>  <SCORE.INTER.ROT>
12

>  <SCORE.INTER.SOLV>
15.6264

>  <SCORE.INTER.VDW>
-15.4715

>  <SCORE.INTER.norm>
-0.141899

>  <SCORE.INTRA>
-6.38223

>  <SCORE.INTRA.DIHEDRAL>
-14.0455

>  <SCORE.INTRA.DIHEDRAL.0>
23.9727

>  <SCORE.INTRA.POLAR>
0

>  <SCORE.INTRA.POLAR.0>
0

>  <SCORE.INTRA.REPUL>
0

>  <SCORE.INTRA.REPUL.0>
0

>  <SCORE.INTRA.SOLV>
-1.93149

>  <SCORE.INTRA.SOLV.lig_0>
-115.028

>  <SCORE.INTRA.VDW>
1.60625

>  <SCORE.INTRA.VDW.0>
-6.82393

>  <SCORE.INTRA.norm>
-0.122735

>  <SCORE.RESTR>
0.0116827

>  <SCORE.RESTR.CAVITY>
0.0116827

>  <SCORE.RESTR.norm>
0.000224668

>  <SCORE.SYSTEM>
0

>  <SCORE.SYSTEM.CONST>
0

>  <SCORE.SYSTEM.DIHEDRAL>
0

>  <SCORE.SYSTEM.SOLV>
0

>  <SCORE.SYSTEM.norm>
0

>  <SCORE.heavy>
52

>  <SCORE.norm>
-0.264409

>  <RMSD>
4.591

$$$$
2fd0_lig
 OpenBabel11021811433D
libRbt.so/2013.1/901 2013/11/27
 52 56  0  0  0  0  0  0  0  0999 V2000
    5.7491  -48.7198   13.9356 C   0  0  2  0  0  0  0  0  0  0  0  0
    4.9528  -48.0323   14.9104 O   0  0  0  0  0  0  0  0  0  0  0  0
    0.7400  -47.8640   15.9673 C   0  0  2  0  0  0  0  0  0  0  0  0
   -0.7104  -47.6234   15.8934 N   0  0  0  0  0  0  0  0  0  0  0  0
    3.1022  -49.6606   12.5032 C   0  0  1  0  0  0  0  0  0  0  0  0
    2.6876  -51.6345    8.7215 C   0  0  1  0  0  0  0  0  0  0  0  0
    0.3134  -53.0988    4.3310 C   0  0  1  0  0  0  0  0  0  0  0  0
    7.2358  -48.7626   14.4447 C   0  0  2  0  0  0  0  0  0  0  0  0
    7.3433  -49.3934   15.7528 N   0  0  0  0  0  0  0  0  0  0  0  0
    1.5373  -46.5046   15.7447 C   0  0  0  0  0  0  0  0  0  0  0  0
    2.8417  -50.9323   11.7167 C   0  0  2  0  0  0  0  0  0  0  0  0
    4.0720  -51.5520   11.2471 O   0  0  0  0  0  0  0  0  0  0  0  0
    3.3924  -51.2983    7.3251 C   0  0  2  0  0  0  0  0  0  0  0  0
    2.6099  -50.2756    6.5787 N   0  0  0  0  0  0  0  0  0  0  0  0
   -0.0310  -51.6549    3.9017 C   0  0  1  0  0  0  0  0  0  0  0  0
    1.0431  -51.1386    3.0773 O   0  0  0  0  0  0  0  0  0  0  0  0
    7.8536  -47.3153   14.4537 C   0  0  0  0  0  0  0  0  0  0  0  0
    3.1159  -46.7671   15.8367 C   0  0  2  0  0  0  0  0  0  0  0  0
    3.8767  -45.5257   15.6316 N   0  0  0  0  0  0  0  0  0  0  0  0
    1.8721  -50.4738   10.6406 C   0  0  2  0  0  0  0  0  0  0  0  0
    2.4894  -50.4194    9.3833 O   0  0  0  0  0  0  0  0  0  0  0  0
    3.6231  -52.6986    6.5525 C   0  0  1  0  0  0  0  0  0  0  0  0
    4.4018  -53.5546    7.4080 O   0  0  0  0  0  0  0  0  0  0  0  0
   -1.3687  -51.4334    3.1452 C   0  0  1  0  0  0  0  0  0  0  0  0
   -1.0968  -51.4985    1.7394 O   0  0  0  0  0  0  0  0  0  0  0  0
    7.7120  -46.7059   13.0207 C   0  0  2  0  0  0  0  0  0  0  0  0
    8.2773  -45.3994   12.9821 O   0  0  0  0  0  0  0  0  0  0  0  0
    3.5195  -47.8238   14.7708 C   0  0  2  0  0  0  0  0  0  0  0  0
    1.4433  -49.0190   10.9473 C   0  0  2  0  0  0  0  0  0  0  0  0
    2.0169  -48.7925   12.2268 O   0  0  0  0  0  0  0  0  0  0  0  0
    2.2297  -53.4705    6.2757 C   0  0  2  0  0  0  0  0  0  0  0  0
    1.4949  -52.5886    5.4063 O   0  0  0  0  0  0  0  0  0  0  0  0
   -2.5097  -52.4224    3.4777 C   0  0  2  0  0  0  0  0  0  0  0  0
   -3.7117  -51.6244    3.5480 O   0  0  0  0  0  0  0  0  0  0  0  0
    6.2073  -46.6441   12.6311 C   0  0  2  0  0  0  0  0  0  0  0  0
    5.6640  -48.0199   12.6674 O   0  0  0  0  0  0  0  0  0  0  0  0
    2.7231  -49.1569   14.9106 C   0  0  2  0  0  0  0  0  0  0  0  0
    3.1535  -50.0354   13.8433 O   0  0  0  0  0  0  0  0  0  0  0  0
   -0.0614  -48.7962   11.0505 C   0  0  0  0  0  0  0  0  0  0  0  0
   -0.2676  -47.3848   11.2132 O   0  0  0  0  0  0  0  0  0  0  0  0
    1.5209  -53.5287    7.6158 C   0  0  1  0  0  0  0  0  0  0  0  0
    1.3737  -52.4102    8.5154 O   0  0  0  0  0  0  0  0  0  0  0  0
   -2.2116  -53.1916    4.7619 C   0  0  2  0  0  0  0  0  0  0  0  0
   -0.9024  -53.8239    4.8032 O   0  0  0  0  0  0  0  0  0  0  0  0
    6.0053  -46.1018   11.2519 C   0  0  0  0  0  0  0  0  0  0  0  0
    4.6278  -45.9405   11.0466 O   0  0  0  0  0  0  0  0  0  0  0  0
    1.1783  -48.8742   14.8321 C   0  0  1  0  0  0  0  0  0  0  0  0
    0.4609  -50.1430   15.0192 O   0  0  0  0  0  0  0  0  0  0  0  0
    0.1093  -54.2114    7.5404 C   0  0  0  0  0  0  0  0  0  0  0  0
    0.1654  -55.6933    7.5276 N   0  0  0  0  0  0  0  0  0  0  0  0
   -3.1704  -54.2431    5.3158 C   0  0  0  0  0  0  0  0  0  0  0  0
   -2.5363  -54.9878    6.4010 O   0  0  0  0  0  0  0  0  0  0  0  0
  1  2  1  1  0  0  0
  1  8  1  0  0  0  0
  1 36  1  0  0  0  0
  3  4  1  6  0  0  0
  3 10  1  0  0  0  0
  3 47  1  0  0  0  0
  5 11  1  0  0  0  0
  5 30  1  0  0  0  0
  5 38  1  1  0  0  0
  6 21  1  6  0  0  0
  6 42  1  0  0  0  0
  7 15  1  0  0  0  0
  7 44  1  0  0  0  0
  7 32  1  1  0  0  0
  8  9  1  1  0  0  0
  8 17  1  0  0  0  0
 11 12  1  6  0  0  0
 11 20  1  0  0  0  0
 13  6  1  0  0  0  0
 13 14  1  6  0  0  0
 15 16  1  6  0  0  0
 15 24  1  0  0  0  0
 17 26  1  0  0  0  0
 18 10  1  0  0  0  0
 18 19  1  6  0  0  0
 20 21  1  6  0  0  0
 20 29  1  0  0  0  0
 22 13  1  0  0  0  0
 22 23  1  1  0  0  0
 24 25  1  6  0  0  0
 24 33  1  0  0  0  0
 26 27  1  1  0  0  0
 26 35  1  0  0  0  0
 28  2  1  1  0  0  0
 28 18  1  0  0  0  0
 29 30  1  0  0  0  0
 29 39  1  1  0  0  0
 31 22  1  0  0  0  0
 31 32  1  6  0  0  0
 31 41  1  0  0  0  0
 33 34  1  1  0  0  0
 33 43  1  0  0  0  0
 35 36  1  0  0  0  0
 35 45  1  6  0  0  0
 37 28  1  0  0  0  0
 37 38  1  6  0  0  0
 39 40  1  0  0  0  0
 41 42  1  0  0  0  0
 41 49  1  6  0  0  0
 43 44  1  0  0  0  0
 43 51  1  6  0  0  0
 45 46  1  0  0  0  0
 47 37  1  0  0  0  0
 47 48  1  1  0  0  0
 49 50  1  0  0  0  0
 51 52  1  0  0  0  0
M  END
>  <CHROM.1>
-179.18515752,-148.26604564,179.70124282,176.03761745,77.22386467,-166.63144314
-174.81485451,154.16124725,-173.39638513,-55.29846798,80.07657515,169.66982748
2.21622130,-50.17932563,10.04193539,-1.11254126,-0.21849828,-1.97337813

>  <Name>
2fd0_lig

>  <RI>
0

>  <Rbt.Current_Directory>
/home/itssahil/PROJECTS/Mol_Feturizer/New_Systems/rnas/2fd0

>  <Rbt.Executable>
rbdock ($Id: //depot/dev/client3/rdock/2013.1/src/exe/rbdock.cxx#4 $)

>  <Rbt.Library>
libRbt.so (2013.1, Build901 2013/11/27)

>  <Rbt.Parameter_File>
/export/apps/rDock/src/rDock_2013.1_src/data/scripts/dock_solv.prm

>  <Rbt.Receptor>
prm/pocket_docking_5.prm

>  <SCORE>
-15.7127

>  <SCORE.INTER>
-9.68685

>  <SCORE.INTER.CONST>
1

>  <SCORE.INTER.POLAR>
-0.736858

>  <SCORE.INTER.ROT>
12

>  <SCORE.INTER.SOLV>
16.4225

>  <SCORE.INTER.VDW>
-21.0759

>  <SCORE.INTER.norm>
-0.186286

>  <SCORE.INTRA>
-6.02583

>  <SCORE.INTRA.DIHEDRAL>
-12.0099

>  <SCORE.INTRA.DIHEDRAL.0>
23.9727

>  <SCORE.INTRA.POLAR>
0

>  <SCORE.INTRA.POLAR.0>
0

>  <SCORE.INTRA.REPUL>
0

>  <SCORE.INTRA.REPUL.0>
0

>  <SCORE.INTRA.SOLV>
-1.94743

>  <SCORE.INTRA.SOLV.lig_0>
-115.028

>  <SCORE.INTRA.VDW>
0.952811

>  <SCORE.INTRA.VDW.0>
-6.82393

>  <SCORE.INTRA.norm>
-0.115881

>  <SCORE.RESTR>
0

>  <SCORE.RESTR.CAVITY>
0

>  <SCORE.RESTR.norm>
0

>  <SCORE.SYSTEM>
0

>  <SCORE.SYSTEM.CONST>
0

>  <SCORE.SYSTEM.DIHEDRAL>
0

>  <SCORE.SYSTEM.SOLV>
0

>  <SCORE.SYSTEM.norm>
0

>  <SCORE.heavy>
52

>  <SCORE.norm>
-0.302167

>  <RMSD>
4.592

$$$$
2fd0_lig
 OpenBabel11021811433D
libRbt.so/2013.1/901 2013/11/27
 52 56  0  0  0  0  0  0  0  0999 V2000
    5.6947  -46.9609   15.6652 C   0  0  2  0  0  0  0  0  0  0  0  0
    4.7664  -46.9274   14.5725 O   0  0  0  0  0  0  0  0  0  0  0  0
    1.1441  -45.3487   16.3834 C   0  0  2  0  0  0  0  0  0  0  0  0
   -0.2475  -44.9047   16.5662 N   0  0  0  0  0  0  0  0  0  0  0  0
    2.4560  -49.1817   14.1276 C   0  0  1  0  0  0  0  0  0  0  0  0
    2.0264  -52.6124   11.1450 C   0  0  1  0  0  0  0  0  0  0  0  0
    0.5652  -52.6712    6.1570 C   0  0  1  0  0  0  0  0  0  0  0  0
    7.1221  -47.2969   15.0984 C   0  0  2  0  0  0  0  0  0  0  0  0
    7.5401  -46.3427   14.0808 N   0  0  0  0  0  0  0  0  0  0  0  0
    1.8286  -44.5442   15.1929 C   0  0  0  0  0  0  0  0  0  0  0  0
    3.0885  -50.5540   13.9861 C   0  0  2  0  0  0  0  0  0  0  0  0
    4.4402  -50.4858   13.4508 O   0  0  0  0  0  0  0  0  0  0  0  0
    2.7946  -52.6843    9.7435 C   0  0  2  0  0  0  0  0  0  0  0  0
    2.7129  -51.3773    9.0361 N   0  0  0  0  0  0  0  0  0  0  0  0
    0.4598  -51.1336    6.0454 C   0  0  1  0  0  0  0  0  0  0  0  0
    1.7117  -50.5423    6.4731 O   0  0  0  0  0  0  0  0  0  0  0  0
    7.1610  -48.7720   14.5516 C   0  0  0  0  0  0  0  0  0  0  0  0
    3.3470  -45.0214   15.0031 C   0  0  2  0  0  0  0  0  0  0  0  0
    4.0023  -44.2944   13.9059 N   0  0  0  0  0  0  0  0  0  0  0  0
    2.0746  -51.3104   13.1444 C   0  0  2  0  0  0  0  0  0  0  0  0
    2.5415  -51.5135   11.8384 O   0  0  0  0  0  0  0  0  0  0  0  0
    2.2030  -53.9517    8.9344 C   0  0  1  0  0  0  0  0  0  0  0  0
    2.3747  -55.1216    9.7546 O   0  0  0  0  0  0  0  0  0  0  0  0
    0.0958  -50.5405    4.6573 C   0  0  1  0  0  0  0  0  0  0  0  0
    1.3178  -50.2360    3.9731 O   0  0  0  0  0  0  0  0  0  0  0  0
    6.7111  -49.7379   15.6959 C   0  0  2  0  0  0  0  0  0  0  0  0
    6.7503  -51.0884   15.2456 O   0  0  0  0  0  0  0  0  0  0  0  0
    3.3690  -46.5495   14.7201 C   0  0  2  0  0  0  0  0  0  0  0  0
    0.8065  -50.4368   12.9926 C   0  0  2  0  0  0  0  0  0  0  0  0
    1.0730  -49.3525   13.8705 O   0  0  0  0  0  0  0  0  0  0  0  0
    0.6149  -53.8075    8.6666 C   0  0  2  0  0  0  0  0  0  0  0  0
    0.4941  -52.6401    7.8322 O   0  0  0  0  0  0  0  0  0  0  0  0
   -0.7767  -51.4326    3.7444 C   0  0  2  0  0  0  0  0  0  0  0  0
   -1.7342  -50.5441    3.1277 O   0  0  0  0  0  0  0  0  0  0  0  0
    5.2679  -49.3707   16.1454 C   0  0  2  0  0  0  0  0  0  0  0  0
    5.2746  -47.9693   16.6201 O   0  0  0  0  0  0  0  0  0  0  0  0
    2.6580  -47.3797   15.8320 C   0  0  2  0  0  0  0  0  0  0  0  0
    2.7057  -48.7710   15.4345 O   0  0  0  0  0  0  0  0  0  0  0  0
   -0.4933  -51.1013   13.4326 C   0  0  0  0  0  0  0  0  0  0  0  0
   -0.5361  -51.0336   14.8660 O   0  0  0  0  0  0  0  0  0  0  0  0
   -0.0016  -53.5010   10.0184 C   0  0  1  0  0  0  0  0  0  0  0  0
    0.5026  -52.5177   10.9464 O   0  0  0  0  0  0  0  0  0  0  0  0
   -1.4195  -52.5666    4.5384 C   0  0  2  0  0  0  0  0  0  0  0  0
   -0.4947  -53.3429    5.3492 O   0  0  0  0  0  0  0  0  0  0  0  0
    4.7903  -50.2380   17.2665 C   0  0  0  0  0  0  0  0  0  0  0  0
    3.3909  -50.2958   17.2045 O   0  0  0  0  0  0  0  0  0  0  0  0
    1.1760  -46.8854   16.0111 C   0  0  1  0  0  0  0  0  0  0  0  0
    0.5556  -47.6533   17.0996 O   0  0  0  0  0  0  0  0  0  0  0  0
   -1.5543  -53.2786    9.9545 C   0  0  0  0  0  0  0  0  0  0  0  0
   -2.2422  -53.5114   11.2475 N   0  0  0  0  0  0  0  0  0  0  0  0
   -2.3250  -53.6040    3.8782 C   0  0  0  0  0  0  0  0  0  0  0  0
   -3.4375  -53.9436    4.7623 O   0  0  0  0  0  0  0  0  0  0  0  0
  1  2  1  6  0  0  0
  1  8  1  0  0  0  0
  1 36  1  0  0  0  0
  3  4  1  6  0  0  0
  3 10  1  0  0  0  0
  3 47  1  0  0  0  0
  5 11  1  0  0  0  0
  5 30  1  0  0  0  0
  5 38  1  1  0  0  0
  6 21  1  6  0  0  0
  6 42  1  0  0  0  0
  7 15  1  0  0  0  0
  7 44  1  0  0  0  0
  7 32  1  1  0  0  0
  8  9  1  6  0  0  0
  8 17  1  0  0  0  0
 11 12  1  6  0  0  0
 11 20  1  0  0  0  0
 13  6  1  0  0  0  0
 13 14  1  6  0  0  0
 15 16  1  6  0  0  0
 15 24  1  0  0  0  0
 17 26  1  0  0  0  0
 18 10  1  0  0  0  0
 18 19  1  6  0  0  0
 20 21  1  6  0  0  0
 20 29  1  0  0  0  0
 22 13  1  0  0  0  0
 22 23  1  1  0  0  0
 24 25  1  6  0  0  0
 24 33  1  0  0  0  0
 26 27  1  6  0  0  0
 26 35  1  0  0  0  0
 28  2  1  1  0  0  0
 28 18  1  0  0  0  0
 29 30  1  0  0  0  0
 29 39  1  1  0  0  0
 31 22  1  0  0  0  0
 31 32  1  6  0  0  0
 31 41  1  0  0  0  0
 33 34  1  1  0  0  0
 33 43  1  0  0  0  0
 35 36  1  0  0  0  0
 35 45  1  1  0  0  0
 37 28  1  0  0  0  0
 37 38  1  6  0  0  0
 39 40  1  0  0  0  0
 41 42  1  0  0  0  0
 41 49  1  6  0  0  0
 43 44  1  0  0  0  0
 43 51  1  6  0  0  0
 45 46  1  0  0  0  0
 47 37  1  0  0  0  0
 47 48  1  1  0  0  0
 49 50  1  0  0  0  0
 51 52  1  0  0  0  0
M  END
>  <CHROM.1>
-175.37210679,159.30163462,-175.69780247,-176.56659501,154.09747801,70.67035746
78.59275408,88.68478372,-153.30339147,-42.75400841,157.11769232,-141.67996128
1.98761602,-50.16636370,11.70901198,0.95459686,-0.85380896,0.61693569

>  <Name>
2fd0_lig

>  <RI>
0

>  <Rbt.Current_Directory>
/home/itssahil/PROJECTS/Mol_Feturizer/New_Systems/rnas/2fd0

>  <Rbt.Executable>
rbdock ($Id: //depot/dev/client3/rdock/2013.1/src/exe/rbdock.cxx#4 $)

>  <Rbt.Library>
libRbt.so (2013.1, Build901 2013/11/27)

>  <Rbt.Parameter_File>
/export/apps/rDock/src/rDock_2013.1_src/data/scripts/dock_solv.prm

>  <Rbt.Receptor>
prm/pocket_docking_6.prm

>  <SCORE>
-21.3189

>  <SCORE.INTER>
-19.535

>  <SCORE.INTER.CONST>
1

>  <SCORE.INTER.POLAR>
-1.15686

>  <SCORE.INTER.ROT>
12

>  <SCORE.INTER.SOLV>
20.261

>  <SCORE.INTER.VDW>
-27.5208

>  <SCORE.INTER.norm>
-0.375673

>  <SCORE.INTRA>
-1.83492

>  <SCORE.INTRA.DIHEDRAL>
-4.43985

>  <SCORE.INTRA.DIHEDRAL.0>
23.9727

>  <SCORE.INTRA.POLAR>
0

>  <SCORE.INTRA.POLAR.0>
0

>  <SCORE.INTRA.REPUL>
0

>  <SCORE.INTRA.REPUL.0>
0

>  <SCORE.INTRA.SOLV>
-0.50505

>  <SCORE.INTRA.SOLV.lig_0>
-115.028

>  <SCORE.INTRA.VDW>
0.637527

>  <SCORE.INTRA.VDW.0>
-6.82393

>  <SCORE.INTRA.norm>
-0.035287

>  <SCORE.RESTR>
0.0509445

>  <SCORE.RESTR.CAVITY>
0.0509445

>  <SCORE.RESTR.norm>
0.000979703

>  <SCORE.SYSTEM>
0

>  <SCORE.SYSTEM.CONST>
0

>  <SCORE.SYSTEM.DIHEDRAL>
0

>  <SCORE.SYSTEM.SOLV>
0

>  <SCORE.SYSTEM.norm>
0

>  <SCORE.heavy>
52

>  <SCORE.norm>
-0.40998

>  <RMSD>
4.601

$$$$
2fd0_lig
 OpenBabel11021811433D
libRbt.so/2013.1/901 2013/11/27
 52 56  0  0  0  0  0  0  0  0999 V2000
    6.8320  -44.4634   12.6126 C   0  0  2  0  0  0  0  0  0  0  0  0
    6.8226  -45.8915   12.4808 O   0  0  0  0  0  0  0  0  0  0  0  0
    7.1653  -49.3955   15.0296 C   0  0  2  0  0  0  0  0  0  0  0  0
    6.9916  -50.3246   16.1582 N   0  0  0  0  0  0  0  0  0  0  0  0
    3.9458  -48.7540   11.7673 C   0  0  1  0  0  0  0  0  0  0  0  0
    1.2712  -50.4492    9.0741 C   0  0  1  0  0  0  0  0  0  0  0  0
   -2.7707  -52.0394    6.0854 C   0  0  1  0  0  0  0  0  0  0  0  0
    6.4795  -43.8302   11.2174 C   0  0  2  0  0  0  0  0  0  0  0  0
    5.1978  -44.3046   10.7146 N   0  0  0  0  0  0  0  0  0  0  0  0
    7.7444  -48.0049   15.5433 C   0  0  0  0  0  0  0  0  0  0  0  0
    2.5379  -48.2007   11.6441 C   0  0  2  0  0  0  0  0  0  0  0  0
    1.6532  -48.7079   12.6825 O   0  0  0  0  0  0  0  0  0  0  0  0
    0.4782  -49.7381    7.8804 C   0  0  2  0  0  0  0  0  0  0  0  0
   -0.8861  -49.3414    8.3238 N   0  0  0  0  0  0  0  0  0  0  0  0
   -2.0199  -51.2485    4.9906 C   0  0  1  0  0  0  0  0  0  0  0  0
   -0.9271  -52.0574    4.4893 O   0  0  0  0  0  0  0  0  0  0  0  0
    7.6360  -44.1010   10.1851 C   0  0  0  0  0  0  0  0  0  0  0  0
    7.9431  -46.9989   14.3113 C   0  0  2  0  0  0  0  0  0  0  0  0
    8.4754  -45.7037   14.7597 N   0  0  0  0  0  0  0  0  0  0  0  0
    2.1591  -48.5504   10.2148 C   0  0  2  0  0  0  0  0  0  0  0  0
    1.2165  -49.5870   10.1729 O   0  0  0  0  0  0  0  0  0  0  0  0
    0.5349  -50.7301    6.6061 C   0  0  1  0  0  0  0  0  0  0  0  0
    1.9183  -50.9954    6.3112 O   0  0  0  0  0  0  0  0  0  0  0  0
   -2.8467  -50.7486    3.7751 C   0  0  1  0  0  0  0  0  0  0  0  0
   -2.7561  -51.7384    2.7425 O   0  0  0  0  0  0  0  0  0  0  0  0
    8.9743  -43.5594   10.7853 C   0  0  2  0  0  0  0  0  0  0  0  0
   10.0459  -43.7695    9.8710 O   0  0  0  0  0  0  0  0  0  0  0  0
    6.5794  -46.7968   13.5936 C   0  0  2  0  0  0  0  0  0  0  0  0
    3.4095  -49.1073    9.4931 C   0  0  2  0  0  0  0  0  0  0  0  0
    4.4394  -48.8838   10.4454 O   0  0  0  0  0  0  0  0  0  0  0  0
   -0.1492  -52.1600    6.9251 C   0  0  2  0  0  0  0  0  0  0  0  0
   -1.5286  -51.8479    7.1958 O   0  0  0  0  0  0  0  0  0  0  0  0
   -4.3388  -50.4468    4.0457 C   0  0  2  0  0  0  0  0  0  0  0  0
   -4.6309  -49.2330    3.3191 O   0  0  0  0  0  0  0  0  0  0  0  0
    9.2720  -44.2880   12.1271 C   0  0  2  0  0  0  0  0  0  0  0  0
    8.1456  -44.0313   13.0517 O   0  0  0  0  0  0  0  0  0  0  0  0
    5.9413  -48.1386   13.1210 C   0  0  2  0  0  0  0  0  0  0  0  0
    4.6655  -47.8240   12.5131 O   0  0  0  0  0  0  0  0  0  0  0  0
    3.7857  -48.3876    8.2027 C   0  0  0  0  0  0  0  0  0  0  0  0
    4.7429  -47.3752    8.5493 O   0  0  0  0  0  0  0  0  0  0  0  0
    0.4972  -52.6455    8.2088 C   0  0  1  0  0  0  0  0  0  0  0  0
    0.6852  -51.8376    9.3895 O   0  0  0  0  0  0  0  0  0  0  0  0
   -4.6143  -50.3432    5.5433 C   0  0  2  0  0  0  0  0  0  0  0  0
   -4.1252  -51.4633    6.3316 O   0  0  0  0  0  0  0  0  0  0  0  0
   10.5252  -43.7881   12.7725 C   0  0  0  0  0  0  0  0  0  0  0  0
   11.5741  -43.9328   11.8534 O   0  0  0  0  0  0  0  0  0  0  0  0
    5.7692  -49.1146   14.3418 C   0  0  1  0  0  0  0  0  0  0  0  0
    5.2149  -50.3840   13.8508 O   0  0  0  0  0  0  0  0  0  0  0  0
   -0.0776  -54.0174    8.7108 C   0  0  0  0  0  0  0  0  0  0  0  0
   -1.5445  -54.0036    8.9286 N   0  0  0  0  0  0  0  0  0  0  0  0
   -6.0117  -50.0615    6.0909 C   0  0  0  0  0  0  0  0  0  0  0  0
   -6.8183  -51.2795    6.0767 O   0  0  0  0  0  0  0  0  0  0  0  0
  1  2  1  6  0  0  0
  1  8  1  0  0  0  0
  1 36  1  0  0  0  0
  3  4  1  1  0  0  0
  3 10  1  0  0  0  0
  3 47  1  0  0  0  0
  5 11  1  0  0  0  0
  5 30  1  0  0  0  0
  5 38  1  1  0  0  0
  6 21  1  1  0  0  0
  6 42  1  0  0  0  0
  7 15  1  0  0  0  0
  7 44  1  0  0  0  0
  7 32  1  1  0  0  0
  8  9  1  6  0  0  0
  8 17  1  0  0  0  0
 11 12  1  1  0  0  0
 11 20  1  0  0  0  0
 13  6  1  0  0  0  0
 13 14  1  1  0  0  0
 15 16  1  6  0  0  0
 15 24  1  0  0  0  0
 17 26  1  0  0  0  0
 18 10  1  0  0  0  0
 18 19  1  1  0  0  0
 20 21  1  1  0  0  0
 20 29  1  0  0  0  0
 22 13  1  0  0  0  0
 22 23  1  1  0  0  0
 24 25  1  6  0  0  0
 24 33  1  0  0  0  0
 26 27  1  6  0  0  0
 26 35  1  0  0  0  0
 28  2  1  6  0  0  0
 28 18  1  0  0  0  0
 29 30  1  0  0  0  0
 29 39  1  6  0  0  0
 31 22  1  0  0  0  0
 31 32  1  1  0  0  0
 31 41  1  0  0  0  0
 33 34  1  6  0  0  0
 33 43  1  0  0  0  0
 35 36  1  0  0  0  0
 35 45  1  1  0  0  0
 37 28  1  0  0  0  0
 37 38  1  1  0  0  0
 39 40  1  0  0  0  0
 41 42  1  0  0  0  0
 41 49  1  1  0  0  0
 43 44  1  0  0  0  0
 43 51  1  6  0  0  0
 45 46  1  0  0  0  0
 47 37  1  0  0  0  0
 47 48  1  6  0  0  0
 49 50  1  0  0  0  0
 51 52  1  0  0  0  0
M  END
>  <CHROM.1>
-154.89682745,164.39142603,-82.86221788,-51.39283005,-148.30852854,-84.47889039
93.17879653,100.29361614,-56.18610708,167.86059696,-57.02000357,79.07459477
2.76784681,-48.75112434,9.67744921,-0.13517208,-0.67813296,-0.87770160

>  <Name>
2fd0_lig

>  <RI>
2.89522e+07

>  <Rbt.Current_Directory>
/home/itssahil/PROJECTS/Mol_Feturizer/New_Systems/rnas/2fd0

>  <Rbt.Executable>
rbdock ($Id: //depot/dev/client3/rdock/2013.1/src/exe/rbdock.cxx#4 $)

>  <Rbt.Library>
libRbt.so (2013.1, Build901 2013/11/27)

>  <Rbt.Parameter_File>
/export/apps/rDock/src/rDock_2013.1_src/data/scripts/dock_solv.prm

>  <Rbt.Receptor>
prm/pocket_docking_2.prm

>  <SCORE>
5.46382

>  <SCORE.INTER>
-9.41096

>  <SCORE.INTER.CONST>
1

>  <SCORE.INTER.POLAR>
-2.10702

>  <SCORE.INTER.ROT>
12

>  <SCORE.INTER.SOLV>
12.6742

>  <SCORE.INTER.VDW>
-15.0753

>  <SCORE.INTER.norm>
-0.18098

>  <SCORE.INTRA>
11.7038

>  <SCORE.INTRA.DIHEDRAL>
0.592471

>  <SCORE.INTRA.DIHEDRAL.0>
23.9727

>  <SCORE.INTRA.POLAR>
0

>  <SCORE.INTRA.POLAR.0>
0

>  <SCORE.INTRA.REPUL>
0.0886128

>  <SCORE.INTRA.REPUL.0>
0

>  <SCORE.INTRA.SOLV>
2.06138

>  <SCORE.INTRA.SOLV.lig_0>
-115.028

>  <SCORE.INTRA.VDW>
9.93382

>  <SCORE.INTRA.VDW.0>
-6.82393

>  <SCORE.INTRA.norm>
0.225073

>  <SCORE.RESTR>
3.17097

>  <SCORE.RESTR.CAVITY>
3.17097

>  <SCORE.RESTR.norm>
0.0609802

>  <SCORE.SYSTEM>
0

>  <SCORE.SYSTEM.CONST>
0

>  <SCORE.SYSTEM.DIHEDRAL>
0

>  <SCORE.SYSTEM.SOLV>
0

>  <SCORE.SYSTEM.norm>
0

>  <SCORE.heavy>
52

>  <SCORE.norm>
0.105073

>  <RMSD>
4.620

$$$$
2fd0_lig
 OpenBabel11021811433D
libRbt.so/2013.1/901 2013/11/27
 52 56  0  0  0  0  0  0  0  0999 V2000
    2.6946  -46.5873   13.2509 C   0  0  2  0  0  0  0  0  0  0  0  0
    2.4190  -47.9842   13.4236 O   0  0  0  0  0  0  0  0  0  0  0  0
    5.2586  -49.2967   16.4412 C   0  0  2  0  0  0  0  0  0  0  0  0
    5.8775  -50.0526   17.5424 N   0  0  0  0  0  0  0  0  0  0  0  0
    3.0590  -50.0202   11.9652 C   0  0  1  0  0  0  0  0  0  0  0  0
    0.1454  -50.8291    8.8004 C   0  0  1  0  0  0  0  0  0  0  0  0
   -1.8335  -50.1254    3.9326 C   0  0  1  0  0  0  0  0  0  0  0  0
    1.8979  -46.0717   11.9975 C   0  0  2  0  0  0  0  0  0  0  0  0
    0.4678  -46.3147   12.1261 N   0  0  0  0  0  0  0  0  0  0  0  0
    3.8617  -48.6907   16.9042 C   0  0  0  0  0  0  0  0  0  0  0  0
    3.2547  -50.9913   10.8153 C   0  0  2  0  0  0  0  0  0  0  0  0
    4.1000  -50.4407    9.7663 O   0  0  0  0  0  0  0  0  0  0  0  0
    0.0884  -51.8300    7.5537 C   0  0  2  0  0  0  0  0  0  0  0  0
    1.0444  -51.4015    6.4965 N   0  0  0  0  0  0  0  0  0  0  0  0
   -2.9186  -49.0668    4.2322 C   0  0  1  0  0  0  0  0  0  0  0  0
   -2.2835  -47.7759    4.4061 O   0  0  0  0  0  0  0  0  0  0  0  0
    2.4725  -46.7143   10.6809 C   0  0  0  0  0  0  0  0  0  0  0  0
    3.1950  -47.8588   15.7072 C   0  0  2  0  0  0  0  0  0  0  0  0
    1.9001  -47.2896   16.1085 N   0  0  0  0  0  0  0  0  0  0  0  0
    1.8300  -51.3340   10.4136 C   0  0  2  0  0  0  0  0  0  0  0  0
    1.4841  -50.7391    9.1925 O   0  0  0  0  0  0  0  0  0  0  0  0
   -1.4566  -51.9378    7.0928 C   0  0  1  0  0  0  0  0  0  0  0  0
   -2.2288  -52.3732    8.2265 O   0  0  0  0  0  0  0  0  0  0  0  0
   -4.0648  -48.9047    3.1973 C   0  0  1  0  0  0  0  0  0  0  0  0
   -3.6893  -47.8680    2.2815 O   0  0  0  0  0  0  0  0  0  0  0  0
    4.0036  -46.4064   10.6052 C   0  0  2  0  0  0  0  0  0  0  0  0
    4.5593  -46.9570    9.4152 O   0  0  0  0  0  0  0  0  0  0  0  0
    3.0107  -48.7928   14.4786 C   0  0  2  0  0  0  0  0  0  0  0  0
    0.8613  -50.7223   11.4538 C   0  0  2  0  0  0  0  0  0  0  0  0
    1.7476  -50.2416   12.4542 O   0  0  0  0  0  0  0  0  0  0  0  0
   -2.0556  -50.5018    6.6531 C   0  0  2  0  0  0  0  0  0  0  0  0
   -1.2675  -50.1162    5.5113 O   0  0  0  0  0  0  0  0  0  0  0  0
   -4.4367  -50.1704    2.3909 C   0  0  2  0  0  0  0  0  0  0  0  0
   -5.8791  -50.1762    2.3144 O   0  0  0  0  0  0  0  0  0  0  0  0
    4.7148  -47.0091   11.8505 C   0  0  2  0  0  0  0  0  0  0  0  0
    4.1209  -46.4002   13.0612 O   0  0  0  0  0  0  0  0  0  0  0  0
    4.3443  -49.4582   14.0207 C   0  0  2  0  0  0  0  0  0  0  0  0
    4.0359  -50.3311   12.9076 O   0  0  0  0  0  0  0  0  0  0  0  0
   -0.1012  -51.7115   12.1015 C   0  0  0  0  0  0  0  0  0  0  0  0
   -0.7408  -52.4339   11.0382 O   0  0  0  0  0  0  0  0  0  0  0  0
   -1.7399  -49.5588    7.7987 C   0  0  1  0  0  0  0  0  0  0  0  0
   -0.4547  -49.4560    8.4467 O   0  0  0  0  0  0  0  0  0  0  0  0
   -3.8546  -51.4238    3.0387 C   0  0  2  0  0  0  0  0  0  0  0  0
   -2.4317  -51.3534    3.3316 O   0  0  0  0  0  0  0  0  0  0  0  0
    6.1817  -46.7175   11.8563 C   0  0  0  0  0  0  0  0  0  0  0  0
    6.3524  -45.3567   12.1476 O   0  0  0  0  0  0  0  0  0  0  0  0
    4.9876  -50.2559   15.2133 C   0  0  1  0  0  0  0  0  0  0  0  0
    6.2648  -50.8242   14.7605 O   0  0  0  0  0  0  0  0  0  0  0  0
   -2.2095  -48.0844    7.5341 C   0  0  0  0  0  0  0  0  0  0  0  0
   -3.6720  -47.9545    7.3251 N   0  0  0  0  0  0  0  0  0  0  0  0
   -4.0616  -52.8136    2.4408 C   0  0  0  0  0  0  0  0  0  0  0  0
   -3.7783  -53.8432    3.4379 O   0  0  0  0  0  0  0  0  0  0  0  0
  1  2  1  6  0  0  0
  1  8  1  0  0  0  0
  1 36  1  0  0  0  0
  3  4  1  1  0  0  0
  3 10  1  0  0  0  0
  3 47  1  0  0  0  0
  5 11  1  0  0  0  0
  5 30  1  0  0  0  0
  5 38  1  1  0  0  0
  6 21  1  6  0  0  0
  6 42  1  0  0  0  0
  7 15  1  0  0  0  0
  7 44  1  0  0  0  0
  7 32  1  1  0  0  0
  8  9  1  1  0  0  0
  8 17  1  0  0  0  0
 11 12  1  6  0  0  0
 11 20  1  0  0  0  0
 13  6  1  0  0  0  0
 13 14  1  6  0  0  0
 15 16  1  6  0  0  0
 15 24  1  0  0  0  0
 17 26  1  0  0  0  0
 18 10  1  0  0  0  0
 18 19  1  1  0  0  0
 20 21  1  6  0  0  0
 20 29  1  0  0  0  0
 22 13  1  0  0  0  0
 22 23  1  1  0  0  0
 24 25  1  6  0  0  0
 24 33  1  0  0  0  0
 26 27  1  6  0  0  0
 26 35  1  0  0  0  0
 28  2  1  6  0  0  0
 28 18  1  0  0  0  0
 29 30  1  0  0  0  0
 29 39  1  1  0  0  0
 31 22  1  0  0  0  0
 31 32  1  6  0  0  0
 31 41  1  0  0  0  0
 33 34  1  1  0  0  0
 33 43  1  0  0  0  0
 35 36  1  0  0  0  0
 35 45  1  6  0  0  0
 37 28  1  0  0  0  0
 37 38  1  6  0  0  0
 39 40  1  0  0  0  0
 41 42  1  0  0  0  0
 41 49  1  6  0  0  0
 43 44  1  0  0  0  0
 43 51  1  6  0  0  0
 45 46  1  0  0  0  0
 47 37  1  0  0  0  0
 47 48  1  6  0  0  0
 49 50  1  0  0  0  0
 51 52  1  0  0  0  0
M  END
>  <CHROM.1>
178.90022986,167.29335622,-109.84603103,62.42097568,-171.68339587,32.94366178
-51.23211140,107.09487566,72.12771283,35.28630481,60.44221677,-162.41175997
0.85669489,-49.46302218,9.57029171,-0.19270757,-0.92599261,-0.43725168

>  <Name>
2fd0_lig

>  <RI>
1.29864e+07

>  <Rbt.Current_Directory>
/home/itssahil/PROJECTS/Mol_Feturizer/New_Systems/rnas/2fd0

>  <Rbt.Executable>
rbdock ($Id: //depot/dev/client3/rdock/2013.1/src/exe/rbdock.cxx#4 $)

>  <Rbt.Library>
libRbt.so (2013.1, Build901 2013/11/27)

>  <Rbt.Parameter_File>
/export/apps/rDock/src/rDock_2013.1_src/data/scripts/dock_solv.prm

>  <Rbt.Receptor>
prm/pocket_docking_3.prm

>  <SCORE>
-9.13425

>  <SCORE.INTER>
-12.5152

>  <SCORE.INTER.CONST>
1

>  <SCORE.INTER.POLAR>
-2.4545

>  <SCORE.INTER.ROT>
12

>  <SCORE.INTER.SOLV>
9.51277

>  <SCORE.INTER.VDW>
-14.9327

>  <SCORE.INTER.norm>
-0.240677

>  <SCORE.INTRA>
3.14588

>  <SCORE.INTRA.DIHEDRAL>
-1.04775

>  <SCORE.INTRA.DIHEDRAL.0>
23.9727

>  <SCORE.INTRA.POLAR>
0

>  <SCORE.INTRA.POLAR.0>
0

>  <SCORE.INTRA.REPUL>
0

>  <SCORE.INTRA.REPUL.0>
0

>  <SCORE.INTRA.SOLV>
-0.343261

>  <SCORE.INTRA.SOLV.lig_0>
-115.028

>  <SCORE.INTRA.VDW>
3.84139

>  <SCORE.INTRA.VDW.0>
-6.82393

>  <SCORE.INTRA.norm>
0.0604977

>  <SCORE.RESTR>
0.23509

>  <SCORE.RESTR.CAVITY>
0.23509

>  <SCORE.RESTR.norm>
0.00452095

>  <SCORE.SYSTEM>
0

>  <SCORE.SYSTEM.CONST>
0

>  <SCORE.SYSTEM.DIHEDRAL>
0

>  <SCORE.SYSTEM.SOLV>
0

>  <SCORE.SYSTEM.norm>
0

>  <SCORE.heavy>
52

>  <SCORE.norm>
-0.175659

>  <RMSD>
4.628

$$$$
2fd0_lig
 OpenBabel11021811433D
libRbt.so/2013.1/901 2013/11/27
 52 56  0  0  0  0  0  0  0  0999 V2000
    4.3417  -46.2845   15.0838 C   0  0  2  0  0  0  0  0  0  0  0  0
    4.8112  -47.1548   14.0450 O   0  0  0  0  0  0  0  0  0  0  0  0
    8.5094  -45.2544   12.7786 C   0  0  2  0  0  0  0  0  0  0  0  0
    9.7968  -45.0118   12.1073 N   0  0  0  0  0  0  0  0  0  0  0  0
    5.0005  -46.9171   10.4814 C   0  0  1  0  0  0  0  0  0  0  0  0
    3.2650  -50.7435    9.9248 C   0  0  1  0  0  0  0  0  0  0  0  0
   -0.7804  -53.4323    8.4065 C   0  0  1  0  0  0  0  0  0  0  0  0
    3.2166  -47.0299   15.8902 C   0  0  2  0  0  0  0  0  0  0  0  0
    3.6879  -48.2952   16.4357 N   0  0  0  0  0  0  0  0  0  0  0  0
    8.5812  -46.5873   13.6454 C   0  0  0  0  0  0  0  0  0  0  0  0
    3.9723  -47.9568   10.8881 C   0  0  2  0  0  0  0  0  0  0  0  0
    4.5502  -49.0143   11.7040 O   0  0  0  0  0  0  0  0  0  0  0  0
    3.5869  -52.0778    9.1029 C   0  0  2  0  0  0  0  0  0  0  0  0
    3.1192  -51.9494    7.6957 N   0  0  0  0  0  0  0  0  0  0  0  0
   -0.4760  -54.4934    7.3252 C   0  0  1  0  0  0  0  0  0  0  0  0
   -0.0639  -55.7225    7.9726 O   0  0  0  0  0  0  0  0  0  0  0  0
    1.9412  -47.2328   14.9910 C   0  0  0  0  0  0  0  0  0  0  0  0
    7.1820  -46.8435   14.3842 C   0  0  2  0  0  0  0  0  0  0  0  0
    7.2208  -48.0722   15.1908 N   0  0  0  0  0  0  0  0  0  0  0  0
    3.3806  -48.3885    9.5568 C   0  0  2  0  0  0  0  0  0  0  0  0
    3.8041  -49.6764    9.2008 O   0  0  0  0  0  0  0  0  0  0  0  0
    2.9646  -53.3168    9.9328 C   0  0  1  0  0  0  0  0  0  0  0  0
    3.5317  -53.2949   11.2553 O   0  0  0  0  0  0  0  0  0  0  0  0
   -1.6084  -54.8346    6.3190 C   0  0  1  0  0  0  0  0  0  0  0  0
   -2.3325  -55.9591    6.8341 O   0  0  0  0  0  0  0  0  0  0  0  0
    1.4879  -45.8376   14.4500 C   0  0  2  0  0  0  0  0  0  0  0  0
    0.3220  -45.9760   13.6439 O   0  0  0  0  0  0  0  0  0  0  0  0
    6.0537  -46.9383   13.3195 C   0  0  2  0  0  0  0  0  0  0  0  0
    3.9268  -47.4586    8.4471 C   0  0  2  0  0  0  0  0  0  0  0  0
    4.6250  -46.4699    9.1903 O   0  0  0  0  0  0  0  0  0  0  0  0
    1.3645  -53.1753   10.1169 C   0  0  2  0  0  0  0  0  0  0  0  0
    0.8415  -53.2194    8.7759 O   0  0  0  0  0  0  0  0  0  0  0  0
   -2.6092  -53.6972    6.0104 C   0  0  2  0  0  0  0  0  0  0  0  0
   -2.8541  -53.7661    4.5885 O   0  0  0  0  0  0  0  0  0  0  0  0
    2.6386  -45.2080   13.6138 C   0  0  2  0  0  0  0  0  0  0  0  0
    3.8223  -45.0666   14.4903 O   0  0  0  0  0  0  0  0  0  0  0  0
    5.9792  -45.6779   12.4048 C   0  0  2  0  0  0  0  0  0  0  0  0
    4.9285  -45.9049   11.4350 O   0  0  0  0  0  0  0  0  0  0  0  0
    2.8634  -46.7628    7.6048 C   0  0  0  0  0  0  0  0  0  0  0  0
    2.2065  -45.8127    8.4574 O   0  0  0  0  0  0  0  0  0  0  0  0
    1.1386  -51.7841   10.6780 C   0  0  1  0  0  0  0  0  0  0  0  0
    1.7528  -50.5830   10.1659 O   0  0  0  0  0  0  0  0  0  0  0  0
   -2.0648  -52.3479    6.4715 C   0  0  2  0  0  0  0  0  0  0  0  0
   -1.6007  -52.3170    7.8495 O   0  0  0  0  0  0  0  0  0  0  0  0
    2.2802  -43.8515   13.0957 C   0  0  0  0  0  0  0  0  0  0  0  0
    3.4270  -43.2921   12.5147 O   0  0  0  0  0  0  0  0  0  0  0  0
    7.3653  -45.4375   11.7022 C   0  0  1  0  0  0  0  0  0  0  0  0
    7.2726  -44.2153   10.8915 O   0  0  0  0  0  0  0  0  0  0  0  0
   -0.3788  -51.4390   10.8851 C   0  0  0  0  0  0  0  0  0  0  0  0
   -1.0418  -52.2694   11.9196 N   0  0  0  0  0  0  0  0  0  0  0  0
   -2.8570  -51.0541    6.2975 C   0  0  0  0  0  0  0  0  0  0  0  0
   -2.0512  -49.9058    6.7058 O   0  0  0  0  0  0  0  0  0  0  0  0
  1  2  1  6  0  0  0
  1  8  1  0  0  0  0
  1 36  1  0  0  0  0
  3  4  1  6  0  0  0
  3 10  1  0  0  0  0
  3 47  1  0  0  0  0
  5 11  1  0  0  0  0
  5 30  1  0  0  0  0
  5 38  1  1  0  0  0
  6 21  1  6  0  0  0
  6 42  1  0  0  0  0
  7 15  1  0  0  0  0
  7 44  1  0  0  0  0
  7 32  1  6  0  0  0
  8  9  1  6  0  0  0
  8 17  1  0  0  0  0
 11 12  1  6  0  0  0
 11 20  1  0  0  0  0
 13  6  1  0  0  0  0
 13 14  1  6  0  0  0
 15 16  1  1  0  0  0
 15 24  1  0  0  0  0
 17 26  1  0  0  0  0
 18 10  1  0  0  0  0
 18 19  1  6  0  0  0
 20 21  1  6  0  0  0
 20 29  1  0  0  0  0
 22 13  1  0  0  0  0
 22 23  1  1  0  0  0
 24 25  1  1  0  0  0
 24 33  1  0  0  0  0
 26 27  1  6  0  0  0
 26 35  1  0  0  0  0
 28  2  1  1  0  0  0
 28 18  1  0  0  0  0
 29 30  1  0  0  0  0
 29 39  1  1  0  0  0
 31 22  1  0  0  0  0
 31 32  1  6  0  0  0
 31 41  1  0  0  0  0
 33 34  1  6  0  0  0
 33 43  1  0  0  0  0
 35 36  1  0  0  0  0
 35 45  1  1  0  0  0
 37 28  1  0  0  0  0
 37 38  1  6  0  0  0
 39 40  1  0  0  0  0
 41 42  1  0  0  0  0
 41 49  1  6  0  0  0
 43 44  1  0  0  0  0
 43 51  1  1  0  0  0
 45 46  1  0  0  0  0
 47 37  1  0  0  0  0
 47 48  1  1  0  0  0
 49 50  1  0  0  0  0
 51 52  1  0  0  0  0
M  END
>  <CHROM.1>
-164.39254683,109.44624737,165.41474762,-133.80553317,72.26417128,55.42958690
68.73414837,166.73283058,172.20652787,-64.29660706,65.65302437,-174.56742587
2.65430062,-49.13577356,10.67288543,0.93752423,0.28824669,0.85711920

>  <Name>
2fd0_lig

>  <RI>
0

>  <Rbt.Current_Directory>
/home/itssahil/PROJECTS/Mol_Feturizer/New_Systems/rnas/2fd0

>  <Rbt.Executable>
rbdock ($Id: //depot/dev/client3/rdock/2013.1/src/exe/rbdock.cxx#4 $)

>  <Rbt.Library>
libRbt.so (2013.1, Build901 2013/11/27)

>  <Rbt.Parameter_File>
/export/apps/rDock/src/rDock_2013.1_src/data/scripts/dock_solv.prm

>  <Rbt.Receptor>
prm/pocket_docking_6.prm

>  <SCORE>
-16.8773

>  <SCORE.INTER>
-14.14

>  <SCORE.INTER.CONST>
1

>  <SCORE.INTER.POLAR>
-1.75514

>  <SCORE.INTER.ROT>
12

>  <SCORE.INTER.SOLV>
17.423

>  <SCORE.INTER.VDW>
-20.9839

>  <SCORE.INTER.norm>
-0.271923

>  <SCORE.INTRA>
-2.73734

>  <SCORE.INTRA.DIHEDRAL>
-4.98859

>  <SCORE.INTRA.DIHEDRAL.0>
23.9727

>  <SCORE.INTRA.POLAR>
0

>  <SCORE.INTRA.POLAR.0>
0

>  <SCORE.INTRA.REPUL>
0

>  <SCORE.INTRA.REPUL.0>
0

>  <SCORE.INTRA.SOLV>
-2.11372

>  <SCORE.INTRA.SOLV.lig_0>
-115.028

>  <SCORE.INTRA.VDW>
0.813819

>  <SCORE.INTRA.VDW.0>
-6.82393

>  <SCORE.INTRA.norm>
-0.0526411

>  <SCORE.RESTR>
0

>  <SCORE.RESTR.CAVITY>
0

>  <SCORE.RESTR.norm>
0

>  <SCORE.SYSTEM>
0

>  <SCORE.SYSTEM.CONST>
0

>  <SCORE.SYSTEM.DIHEDRAL>
0

>  <SCORE.SYSTEM.SOLV>
0

>  <SCORE.SYSTEM.norm>
0

>  <SCORE.heavy>
52

>  <SCORE.norm>
-0.324564

>  <RMSD>
4.632

$$$$
2fd0_lig
 OpenBabel11021811433D
libRbt.so/2013.1/901 2013/11/27
 52 56  0  0  0  0  0  0  0  0999 V2000
    4.4783  -44.6607   13.6586 C   0  0  2  0  0  0  0  0  0  0  0  0
    3.7076  -45.8425   13.4009 O   0  0  0  0  0  0  0  0  0  0  0  0
    5.0889  -48.7439   16.3277 C   0  0  2  0  0  0  0  0  0  0  0  0
    5.1135  -49.8746   17.2700 N   0  0  0  0  0  0  0  0  0  0  0  0
    3.0702  -48.7162   12.1292 C   0  0  1  0  0  0  0  0  0  0  0  0
   -0.2377  -50.7837   10.1055 C   0  0  1  0  0  0  0  0  0  0  0  0
   -2.3796  -53.1192    6.1348 C   0  0  1  0  0  0  0  0  0  0  0  0
    4.4197  -43.7384   12.3868 C   0  0  2  0  0  0  0  0  0  0  0  0
    3.0501  -43.4050   12.0211 N   0  0  0  0  0  0  0  0  0  0  0  0
    3.9581  -47.7037   16.7428 C   0  0  0  0  0  0  0  0  0  0  0  0
    3.1255  -49.3558   10.7539 C   0  0  2  0  0  0  0  0  0  0  0  0
    3.0377  -48.3726    9.6844 O   0  0  0  0  0  0  0  0  0  0  0  0
    0.0284  -52.0749    9.1991 C   0  0  2  0  0  0  0  0  0  0  0  0
    0.4500  -51.6729    7.8294 N   0  0  0  0  0  0  0  0  0  0  0  0
   -2.1429  -52.0791    5.0168 C   0  0  1  0  0  0  0  0  0  0  0  0
   -0.7613  -51.6444    5.0612 O   0  0  0  0  0  0  0  0  0  0  0  0
    5.1861  -44.4099   11.1875 C   0  0  0  0  0  0  0  0  0  0  0  0
    3.9406  -46.4681   15.7219 C   0  0  2  0  0  0  0  0  0  0  0  0
    2.9013  -45.4923   16.0820 N   0  0  0  0  0  0  0  0  0  0  0  0
    2.0063  -50.3818   10.8110 C   0  0  2  0  0  0  0  0  0  0  0  0
    0.9094  -49.9884   10.0321 O   0  0  0  0  0  0  0  0  0  0  0  0
   -1.2949  -52.9990    9.2768 C   0  0  1  0  0  0  0  0  0  0  0  0
   -1.5457  -53.2997   10.6616 O   0  0  0  0  0  0  0  0  0  0  0  0
   -2.4667  -52.5085    3.5602 C   0  0  1  0  0  0  0  0  0  0  0  0
   -1.2624  -53.0157    2.9714 O   0  0  0  0  0  0  0  0  0  0  0  0
    6.6457  -44.7301   11.6477 C   0  0  2  0  0  0  0  0  0  0  0  0
    7.3801  -45.3239   10.5818 O   0  0  0  0  0  0  0  0  0  0  0  0
    3.6983  -47.0004   14.2819 C   0  0  2  0  0  0  0  0  0  0  0  0
    1.4720  -50.4519   12.2615 C   0  0  2  0  0  0  0  0  0  0  0  0
    2.3948  -49.6361   12.9690 O   0  0  0  0  0  0  0  0  0  0  0  0
   -2.6042  -52.2233    8.7307 C   0  0  2  0  0  0  0  0  0  0  0  0
   -2.3159  -51.9597    7.3447 O   0  0  0  0  0  0  0  0  0  0  0  0
   -3.5843  -53.5641    3.3950 C   0  0  2  0  0  0  0  0  0  0  0  0
   -4.3597  -53.1382    2.2531 O   0  0  0  0  0  0  0  0  0  0  0  0
    6.6038  -45.6968   12.8657 C   0  0  2  0  0  0  0  0  0  0  0  0
    5.8483  -45.0369   13.9534 O   0  0  0  0  0  0  0  0  0  0  0  0
    4.7488  -48.0678   13.8482 C   0  0  2  0  0  0  0  0  0  0  0  0
    4.3920  -48.5147   12.5181 O   0  0  0  0  0  0  0  0  0  0  0  0
    1.4824  -51.8416   12.8884 C   0  0  0  0  0  0  0  0  0  0  0  0
    0.7168  -52.6975   12.0267 O   0  0  0  0  0  0  0  0  0  0  0  0
   -2.6382  -50.9028    9.4767 C   0  0  1  0  0  0  0  0  0  0  0  0
   -1.5023  -50.0306    9.6534 O   0  0  0  0  0  0  0  0  0  0  0  0
   -4.4052  -53.6981    4.6747 C   0  0  2  0  0  0  0  0  0  0  0  0
   -3.6215  -53.9071    5.8820 O   0  0  0  0  0  0  0  0  0  0  0  0
    7.9724  -46.0151   13.3783 C   0  0  0  0  0  0  0  0  0  0  0  0
    8.7154  -46.5605   12.3218 O   0  0  0  0  0  0  0  0  0  0  0  0
    4.7590  -49.2625   14.8706 C   0  0  1  0  0  0  0  0  0  0  0  0
    5.7942  -50.2208   14.4591 O   0  0  0  0  0  0  0  0  0  0  0  0
   -3.8301  -49.9776    9.0435 C   0  0  0  0  0  0  0  0  0  0  0  0
   -5.1657  -50.5533    9.3335 N   0  0  0  0  0  0  0  0  0  0  0  0
   -5.5688  -54.6803    4.7899 C   0  0  0  0  0  0  0  0  0  0  0  0
   -6.6787  -54.2554    3.9402 O   0  0  0  0  0  0  0  0  0  0  0  0
  1  2  1  6  0  0  0
  1  8  1  0  0  0  0
  1 36  1  0  0  0  0
  3  4  1  1  0  0  0
  3 10  1  0  0  0  0
  3 47  1  0  0  0  0
  5 11  1  0  0  0  0
  5 30  1  0  0  0  0
  5 38  1  1  0  0  0
  6 21  1  6  0  0  0
  6 42  1  0  0  0  0
  7 15  1  0  0  0  0
  7 44  1  0  0  0  0
  7 32  1  1  0  0  0
  8  9  1  6  0  0  0
  8 17  1  0  0  0  0
 11 12  1  6  0  0  0
 11 20  1  0  0  0  0
 13  6  1  0  0  0  0
 13 14  1  6  0  0  0
 15 16  1  6  0  0  0
 15 24  1  0  0  0  0
 17 26  1  0  0  0  0
 18 10  1  0  0  0  0
 18 19  1  1  0  0  0
 20 21  1  6  0  0  0
 20 29  1  0  0  0  0
 22 13  1  0  0  0  0
 22 23  1  1  0  0  0
 24 25  1  1  0  0  0
 24 33  1  0  0  0  0
 26 27  1  6  0  0  0
 26 35  1  0  0  0  0
 28  2  1  6  0  0  0
 28 18  1  0  0  0  0
 29 30  1  0  0  0  0
 29 39  1  1  0  0  0
 31 22  1  0  0  0  0
 31 32  1  6  0  0  0
 31 41  1  0  0  0  0
 33 34  1  6  0  0  0
 33 43  1  0  0  0  0
 35 36  1  0  0  0  0
 35 45  1  1  0  0  0
 37 28  1  0  0  0  0
 37 38  1  6  0  0  0
 39 40  1  0  0  0  0
 41 42  1  0  0  0  0
 41 49  1  6  0  0  0
 43 44  1  0  0  0  0
 43 51  1  6  0  0  0
 45 46  1  0  0  0  0
 47 37  1  0  0  0  0
 47 48  1  6  0  0  0
 49 50  1  0  0  0  0
 51 52  1  0  0  0  0
M  END
>  <CHROM.1>
170.82481981,-172.41831378,-78.16899011,173.41702821,-173.89507669,30.27061215
-56.66499001,75.72585816,-57.08350072,-39.25325099,63.18475469,-68.70674957
1.31128504,-49.64869733,10.36222892,-0.48370164,-0.76280214,-1.30879573

>  <Name>
2fd0_lig

>  <RI>
0

>  <Rbt.Current_Directory>
/home/itssahil/PROJECTS/Mol_Feturizer/New_Systems/rnas/2fd0

>  <Rbt.Executable>
rbdock ($Id: //depot/dev/client3/rdock/2013.1/src/exe/rbdock.cxx#4 $)

>  <Rbt.Library>
libRbt.so (2013.1, Build901 2013/11/27)

>  <Rbt.Parameter_File>
/export/apps/rDock/src/rDock_2013.1_src/data/scripts/dock_solv.prm

>  <Rbt.Receptor>
prm/pocket_docking_5.prm

>  <SCORE>
-11.4416

>  <SCORE.INTER>
-7.95186

>  <SCORE.INTER.CONST>
1

>  <SCORE.INTER.POLAR>
-1.01029

>  <SCORE.INTER.ROT>
12

>  <SCORE.INTER.SOLV>
15.4372

>  <SCORE.INTER.VDW>
-18.6793

>  <SCORE.INTER.norm>
-0.15292

>  <SCORE.INTRA>
-3.48974

>  <SCORE.INTRA.DIHEDRAL>
-12.8802

>  <SCORE.INTRA.DIHEDRAL.0>
23.9727

>  <SCORE.INTRA.POLAR>
0

>  <SCORE.INTRA.POLAR.0>
0

>  <SCORE.INTRA.REPUL>
0

>  <SCORE.INTRA.REPUL.0>
0

>  <SCORE.INTRA.SOLV>
-1.57952

>  <SCORE.INTRA.SOLV.lig_0>
-115.028

>  <SCORE.INTRA.VDW>
3.74014

>  <SCORE.INTRA.VDW.0>
-6.82393

>  <SCORE.INTRA.norm>
-0.0671104

>  <SCORE.RESTR>
0

>  <SCORE.RESTR.CAVITY>
0

>  <SCORE.RESTR.norm>
0

>  <SCORE.SYSTEM>
0

>  <SCORE.SYSTEM.CONST>
0

>  <SCORE.SYSTEM.DIHEDRAL>
0

>  <SCORE.SYSTEM.SOLV>
0

>  <SCORE.SYSTEM.norm>
0

>  <SCORE.heavy>
52

>  <SCORE.norm>
-0.220031

>  <RMSD>
4.647

$$$$
2fd0_lig
 OpenBabel11021811433D
libRbt.so/2013.1/901 2013/11/27
 52 56  0  0  0  0  0  0  0  0999 V2000
    1.3175  -46.6109   13.0116 C   0  0  2  0  0  0  0  0  0  0  0  0
    1.8943  -45.3283   13.2933 O   0  0  0  0  0  0  0  0  0  0  0  0
    5.3358  -43.3622   11.5092 C   0  0  2  0  0  0  0  0  0  0  0  0
    6.7226  -42.9566   11.2277 N   0  0  0  0  0  0  0  0  0  0  0  0
    4.0338  -47.4899   10.3103 C   0  0  1  0  0  0  0  0  0  0  0  0
    3.8262  -51.5019    8.7643 C   0  0  1  0  0  0  0  0  0  0  0  0
    1.1806  -54.8981    5.8813 C   0  0  1  0  0  0  0  0  0  0  0  0
   -0.1712  -46.6114   13.5169 C   0  0  2  0  0  0  0  0  0  0  0  0
   -0.9496  -45.5392   12.9125 N   0  0  0  0  0  0  0  0  0  0  0  0
    4.9666  -43.0513   13.0257 C   0  0  0  0  0  0  0  0  0  0  0  0
    3.4594  -48.8921   10.3967 C   0  0  2  0  0  0  0  0  0  0  0  0
    4.3532  -49.8129   11.0833 O   0  0  0  0  0  0  0  0  0  0  0  0
    4.6447  -52.3893    7.7146 C   0  0  2  0  0  0  0  0  0  0  0  0
    4.2928  -52.0052    6.3203 N   0  0  0  0  0  0  0  0  0  0  0  0
    0.5168  -53.5573    5.4949 C   0  0  1  0  0  0  0  0  0  0  0  0
    1.2795  -52.9435    4.4265 O   0  0  0  0  0  0  0  0  0  0  0  0
   -0.2164  -46.5369   15.0882 C   0  0  0  0  0  0  0  0  0  0  0  0
    3.4527  -43.4836   13.3269 C   0  0  2  0  0  0  0  0  0  0  0  0
    3.0866  -43.2090   14.7242 N   0  0  0  0  0  0  0  0  0  0  0  0
    3.1472  -49.2213    8.9466 C   0  0  2  0  0  0  0  0  0  0  0  0
    4.0473  -50.1630    8.4290 O   0  0  0  0  0  0  0  0  0  0  0  0
    4.3924  -53.9395    8.0942 C   0  0  1  0  0  0  0  0  0  0  0  0
    4.7960  -54.1330    9.4619 O   0  0  0  0  0  0  0  0  0  0  0  0
   -0.9740  -53.5958    5.0625 C   0  0  1  0  0  0  0  0  0  0  0  0
   -1.0166  -53.7182    3.6351 O   0  0  0  0  0  0  0  0  0  0  0  0
    0.6291  -47.7186   15.6659 C   0  0  2  0  0  0  0  0  0  0  0  0
    0.5985  -47.6975   17.0895 O   0  0  0  0  0  0  0  0  0  0  0  0
    3.2842  -44.9974   13.0177 C   0  0  2  0  0  0  0  0  0  0  0  0
    3.3550  -47.9472    8.0934 C   0  0  2  0  0  0  0  0  0  0  0  0
    3.5842  -46.9508    9.0794 O   0  0  0  0  0  0  0  0  0  0  0  0
    2.8255  -54.3310    8.0179 C   0  0  2  0  0  0  0  0  0  0  0  0
    2.4725  -54.1395    6.6350 O   0  0  0  0  0  0  0  0  0  0  0  0
   -1.8336  -54.7205    5.6843 C   0  0  2  0  0  0  0  0  0  0  0  0
   -3.1035  -54.1114    6.0045 O   0  0  0  0  0  0  0  0  0  0  0  0
    2.0969  -47.5977   15.1654 C   0  0  2  0  0  0  0  0  0  0  0  0
    2.0856  -47.6404   13.6864 O   0  0  0  0  0  0  0  0  0  0  0  0
    3.6892  -45.3641   11.5574 C   0  0  2  0  0  0  0  0  0  0  0  0
    3.5320  -46.7956   11.4081 O   0  0  0  0  0  0  0  0  0  0  0  0
    2.1523  -47.5257    7.2567 C   0  0  0  0  0  0  0  0  0  0  0  0
    1.1047  -47.1737    8.1732 O   0  0  0  0  0  0  0  0  0  0  0  0
    2.1024  -53.2888    8.8499 C   0  0  1  0  0  0  0  0  0  0  0  0
    2.3303  -51.8666    8.7626 O   0  0  0  0  0  0  0  0  0  0  0  0
   -1.1336  -55.3426    6.8896 C   0  0  2  0  0  0  0  0  0  0  0  0
    0.2372  -55.7642    6.6474 O   0  0  0  0  0  0  0  0  0  0  0  0
    2.9526  -48.7223   15.6555 C   0  0  0  0  0  0  0  0  0  0  0  0
    3.0417  -48.6233   17.0512 O   0  0  0  0  0  0  0  0  0  0  0  0
    5.1714  -44.9184   11.2797 C   0  0  1  0  0  0  0  0  0  0  0  0
    5.4997  -45.2321    9.8822 O   0  0  0  0  0  0  0  0  0  0  0  0
    0.5439  -53.4769    8.8596 C   0  0  0  0  0  0  0  0  0  0  0  0
   -0.1743  -52.4481    9.6503 N   0  0  0  0  0  0  0  0  0  0  0  0
   -1.7583  -56.4857    7.6865 C   0  0  0  0  0  0  0  0  0  0  0  0
   -0.9257  -56.8149    8.8410 O   0  0  0  0  0  0  0  0  0  0  0  0
  1  2  1  1  0  0  0
  1  8  1  0  0  0  0
  1 36  1  0  0  0  0
  3  4  1  1  0  0  0
  3 10  1  0  0  0  0
  3 47  1  0  0  0  0
  5 11  1  0  0  0  0
  5 30  1  0  0  0  0
  5 38  1  1  0  0  0
  6 21  1  6  0  0  0
  6 42  1  0  0  0  0
  7 15  1  0  0  0  0
  7 44  1  0  0  0  0
  7 32  1  1  0  0  0
  8  9  1  6  0  0  0
  8 17  1  0  0  0  0
 11 12  1  6  0  0  0
 11 20  1  0  0  0  0
 13  6  1  0  0  0  0
 13 14  1  6  0  0  0
 15 16  1  6  0  0  0
 15 24  1  0  0  0  0
 17 26  1  0  0  0  0
 18 10  1  0  0  0  0
 18 19  1  1  0  0  0
 20 21  1  6  0  0  0
 20 29  1  0  0  0  0
 22 13  1  0  0  0  0
 22 23  1  1  0  0  0
 24 25  1  6  0  0  0
 24 33  1  0  0  0  0
 26 27  1  1  0  0  0
 26 35  1  0  0  0  0
 28  2  1  6  0  0  0
 28 18  1  0  0  0  0
 29 30  1  0  0  0  0
 29 39  1  1  0  0  0
 31 22  1  0  0  0  0
 31 32  1  6  0  0  0
 31 41  1  0  0  0  0
 33 34  1  1  0  0  0
 33 43  1  0  0  0  0
 35 36  1  0  0  0  0
 35 45  1  1  0  0  0
 37 28  1  0  0  0  0
 37 38  1  1  0  0  0
 39 40  1  0  0  0  0
 41 42  1  0  0  0  0
 41 49  1  6  0  0  0
 43 44  1  0  0  0  0
 43 51  1  6  0  0  0
 45 46  1  0  0  0  0
 47 37  1  0  0  0  0
 47 48  1  6  0  0  0
 49 50  1  0  0  0  0
 51 52  1  0  0  0  0
M  END
>  <CHROM.1>
176.91769753,-170.14779558,162.03041598,121.51773931,79.24564147,174.11865936
64.52004661,156.75989246,-65.08495943,-168.08278195,-178.95064846,-175.63131382
2.13518463,-49.70701002,10.03043393,1.22106167,0.82672223,0.91284027

>  <Name>
2fd0_lig

>  <RI>
0

>  <Rbt.Current_Directory>
/home/itssahil/PROJECTS/Mol_Feturizer/New_Systems/rnas/2fd0

>  <Rbt.Executable>
rbdock ($Id: //depot/dev/client3/rdock/2013.1/src/exe/rbdock.cxx#4 $)

>  <Rbt.Library>
libRbt.so (2013.1, Build901 2013/11/27)

>  <Rbt.Parameter_File>
/export/apps/rDock/src/rDock_2013.1_src/data/scripts/dock_solv.prm

>  <Rbt.Receptor>
prm/pocket_docking_6.prm

>  <SCORE>
-20.9369

>  <SCORE.INTER>
-17.0783

>  <SCORE.INTER.CONST>
1

>  <SCORE.INTER.POLAR>
-2.1718

>  <SCORE.INTER.ROT>
12

>  <SCORE.INTER.SOLV>
15.798

>  <SCORE.INTER.VDW>
-21.0122

>  <SCORE.INTER.norm>
-0.328428

>  <SCORE.INTRA>
-3.85867

>  <SCORE.INTRA.DIHEDRAL>
-8.16297

>  <SCORE.INTRA.DIHEDRAL.0>
23.9727

>  <SCORE.INTRA.POLAR>
0

>  <SCORE.INTRA.POLAR.0>
0

>  <SCORE.INTRA.REPUL>
0

>  <SCORE.INTRA.REPUL.0>
0

>  <SCORE.INTRA.SOLV>
-3.48704

>  <SCORE.INTRA.SOLV.lig_0>
-115.028

>  <SCORE.INTRA.VDW>
1.96633

>  <SCORE.INTRA.VDW.0>
-6.82393

>  <SCORE.INTRA.norm>
-0.0742052

>  <SCORE.RESTR>
0

>  <SCORE.RESTR.CAVITY>
0

>  <SCORE.RESTR.norm>
0

>  <SCORE.SYSTEM>
0

>  <SCORE.SYSTEM.CONST>
0

>  <SCORE.SYSTEM.DIHEDRAL>
0

>  <SCORE.SYSTEM.SOLV>
0

>  <SCORE.SYSTEM.norm>
0

>  <SCORE.heavy>
52

>  <SCORE.norm>
-0.402633

>  <RMSD>
4.657

$$$$
2fd0_lig
 OpenBabel11021811433D
libRbt.so/2013.1/901 2013/11/27
 52 56  0  0  0  0  0  0  0  0999 V2000
    3.6354  -43.5649   14.2907 C   0  0  2  0  0  0  0  0  0  0  0  0
    2.9949  -44.7868   13.8988 O   0  0  0  0  0  0  0  0  0  0  0  0
    4.9295  -47.7539   16.4180 C   0  0  2  0  0  0  0  0  0  0  0  0
    5.2763  -49.0367   17.0512 N   0  0  0  0  0  0  0  0  0  0  0  0
    3.9429  -46.9528   11.8896 C   0  0  1  0  0  0  0  0  0  0  0  0
    2.4924  -48.9944    8.1192 C   0  0  1  0  0  0  0  0  0  0  0  0
   -2.4078  -49.7108    6.3318 C   0  0  1  0  0  0  0  0  0  0  0  0
    2.9780  -42.3785   13.4958 C   0  0  2  0  0  0  0  0  0  0  0  0
    1.5393  -42.3122   13.7118 N   0  0  0  0  0  0  0  0  0  0  0  0
    3.3930  -47.4165   16.6595 C   0  0  0  0  0  0  0  0  0  0  0  0
    4.5391  -47.0377   10.4965 C   0  0  2  0  0  0  0  0  0  0  0  0
    4.3501  -45.8090    9.7399 O   0  0  0  0  0  0  0  0  0  0  0  0
    2.0175  -48.3265    6.7453 C   0  0  2  0  0  0  0  0  0  0  0  0
    1.0283  -47.2453    7.0053 N   0  0  0  0  0  0  0  0  0  0  0  0
   -2.8363  -48.2490    6.5910 C   0  0  1  0  0  0  0  0  0  0  0  0
   -2.4613  -47.4378    5.4503 O   0  0  0  0  0  0  0  0  0  0  0  0
    3.3233  -42.4873   11.9644 C   0  0  0  0  0  0  0  0  0  0  0  0
    3.0203  -46.0140   15.9788 C   0  0  2  0  0  0  0  0  0  0  0  0
    1.6035  -45.6796   16.1852 N   0  0  0  0  0  0  0  0  0  0  0  0
    3.8847  -48.2829    9.9221 C   0  0  2  0  0  0  0  0  0  0  0  0
    2.9297  -47.9580    8.9489 O   0  0  0  0  0  0  0  0  0  0  0  0
    1.5081  -49.5187    5.7809 C   0  0  1  0  0  0  0  0  0  0  0  0
    2.5866  -50.4595    5.6302 O   0  0  0  0  0  0  0  0  0  0  0  0
   -4.3358  -47.9868    6.8971 C   0  0  1  0  0  0  0  0  0  0  0  0
   -4.9908  -47.6752    5.6609 O   0  0  0  0  0  0  0  0  0  0  0  0
    4.8781  -42.5444   11.8087 C   0  0  2  0  0  0  0  0  0  0  0  0
    5.2335  -42.6251   10.4320 O   0  0  0  0  0  0  0  0  0  0  0  0
    3.3367  -46.0855   14.4588 C   0  0  2  0  0  0  0  0  0  0  0  0
    3.0944  -48.9915   11.0480 C   0  0  2  0  0  0  0  0  0  0  0  0
    3.4719  -48.2525   12.2008 O   0  0  0  0  0  0  0  0  0  0  0  0
    0.2741  -50.3351    6.4327 C   0  0  2  0  0  0  0  0  0  0  0  0
   -0.7816  -49.3625    6.5480 O   0  0  0  0  0  0  0  0  0  0  0  0
   -5.1002  -49.1392    7.5886 C   0  0  2  0  0  0  0  0  0  0  0  0
   -5.9428  -48.5111    8.5796 O   0  0  0  0  0  0  0  0  0  0  0  0
    5.4294  -43.7827   12.5719 C   0  0  2  0  0  0  0  0  0  0  0  0
    5.0537  -43.6517   13.9970 O   0  0  0  0  0  0  0  0  0  0  0  0
    4.8195  -46.4704   14.1682 C   0  0  2  0  0  0  0  0  0  0  0  0
    4.9759  -46.5476   12.7310 O   0  0  0  0  0  0  0  0  0  0  0  0
    3.4617  -50.4537   11.2746 C   0  0  0  0  0  0  0  0  0  0  0  0
    4.8059  -50.6281   10.8012 O   0  0  0  0  0  0  0  0  0  0  0  0
    0.7299  -50.7208    7.8274 C   0  0  1  0  0  0  0  0  0  0  0  0
    1.3639  -49.8219    8.7613 O   0  0  0  0  0  0  0  0  0  0  0  0
   -4.1333  -50.1662    8.1717 C   0  0  2  0  0  0  0  0  0  0  0  0
   -3.1258  -50.6510    7.2415 O   0  0  0  0  0  0  0  0  0  0  0  0
    6.9201  -43.8749   12.4916 C   0  0  0  0  0  0  0  0  0  0  0  0
    7.3000  -45.1513   12.9300 O   0  0  0  0  0  0  0  0  0  0  0  0
    5.1669  -47.8407   14.8568 C   0  0  1  0  0  0  0  0  0  0  0  0
    6.5825  -48.1444   14.6054 O   0  0  0  0  0  0  0  0  0  0  0  0
   -0.3656  -51.4920    8.6455 C   0  0  0  0  0  0  0  0  0  0  0  0
   -0.6368  -52.8580    8.1358 N   0  0  0  0  0  0  0  0  0  0  0  0
   -4.6232  -51.4146    8.9020 C   0  0  0  0  0  0  0  0  0  0  0  0
   -3.4994  -52.1187    9.5150 O   0  0  0  0  0  0  0  0  0  0  0  0
  1  2  1  6  0  0  0
  1  8  1  0  0  0  0
  1 36  1  0  0  0  0
  3  4  1  1  0  0  0
  3 10  1  0  0  0  0
  3 47  1  0  0  0  0
  5 11  1  0  0  0  0
  5 30  1  0  0  0  0
  5 38  1  1  0  0  0
  6 21  1  1  0  0  0
  6 42  1  0  0  0  0
  7 15  1  0  0  0  0
  7 44  1  0  0  0  0
  7 32  1  1  0  0  0
  8  9  1  6  0  0  0
  8 17  1  0  0  0  0
 11 12  1  6  0  0  0
 11 20  1  0  0  0  0
 13  6  1  0  0  0  0
 13 14  1  1  0  0  0
 15 16  1  6  0  0  0
 15 24  1  0  0  0  0
 17 26  1  0  0  0  0
 18 10  1  0  0  0  0
 18 19  1  6  0  0  0
 20 21  1  6  0  0  0
 20 29  1  0  0  0  0
 22 13  1  0  0  0  0
 22 23  1  1  0  0  0
 24 25  1  6  0  0  0
 24 33  1  0  0  0  0
 26 27  1  6  0  0  0
 26 35  1  0  0  0  0
 28  2  1  1  0  0  0
 28 18  1  0  0  0  0
 29 30  1  0  0  0  0
 29 39  1  1  0  0  0
 31 22  1  0  0  0  0
 31 32  1  1  0  0  0
 31 41  1  0  0  0  0
 33 34  1  1  0  0  0
 33 43  1  0  0  0  0
 35 36  1  0  0  0  0
 35 45  1  1  0  0  0
 37 28  1  0  0  0  0
 37 38  1  6  0  0  0
 39 40  1  0  0  0  0
 41 42  1  0  0  0  0
 41 49  1  1  0  0  0
 43 44  1  0  0  0  0
 43 51  1  6  0  0  0
 45 46  1  0  0  0  0
 47 37  1  0  0  0  0
 47 48  1  1  0  0  0
 49 50  1  0  0  0  0
 51 52  1  0  0  0  0
M  END
>  <CHROM.1>
-178.72555329,-174.30371378,-153.46781394,-179.45633450,164.90883209,62.13894271
24.65604928,144.46312167,-166.78453997,-32.15352813,69.49614558,-172.04347016
1.79581188,-47.60356109,10.57477486,0.60677021,-0.61790543,0.30040841

>  <Name>
2fd0_lig

>  <RI>
0

>  <Rbt.Current_Directory>
/home/itssahil/PROJECTS/Mol_Feturizer/New_Systems/rnas/2fd0

>  <Rbt.Executable>
rbdock ($Id: //depot/dev/client3/rdock/2013.1/src/exe/rbdock.cxx#4 $)

>  <Rbt.Library>
libRbt.so (2013.1, Build901 2013/11/27)

>  <Rbt.Parameter_File>
/export/apps/rDock/src/rDock_2013.1_src/data/scripts/dock_solv.prm

>  <Rbt.Receptor>
prm/pocket_docking_6.prm

>  <SCORE>
-12.2887

>  <SCORE.INTER>
-9.54809

>  <SCORE.INTER.CONST>
1

>  <SCORE.INTER.POLAR>
-1.65902

>  <SCORE.INTER.ROT>
12

>  <SCORE.INTER.SOLV>
14.6403

>  <SCORE.INTER.VDW>
-17.3154

>  <SCORE.INTER.norm>
-0.183617

>  <SCORE.INTRA>
-2.74062

>  <SCORE.INTRA.DIHEDRAL>
-6.19976

>  <SCORE.INTRA.DIHEDRAL.0>
23.9727

>  <SCORE.INTRA.POLAR>
0

>  <SCORE.INTRA.POLAR.0>
0

>  <SCORE.INTRA.REPUL>
0

>  <SCORE.INTRA.REPUL.0>
0

>  <SCORE.INTRA.SOLV>
-0.403724

>  <SCORE.INTRA.SOLV.lig_0>
-115.028

>  <SCORE.INTRA.VDW>
0.561121

>  <SCORE.INTRA.VDW.0>
-6.82393

>  <SCORE.INTRA.norm>
-0.0527042

>  <SCORE.RESTR>
0

>  <SCORE.RESTR.CAVITY>
0

>  <SCORE.RESTR.norm>
0

>  <SCORE.SYSTEM>
0

>  <SCORE.SYSTEM.CONST>
0

>  <SCORE.SYSTEM.DIHEDRAL>
0

>  <SCORE.SYSTEM.SOLV>
0

>  <SCORE.SYSTEM.norm>
0

>  <SCORE.heavy>
52

>  <SCORE.norm>
-0.236321

>  <RMSD>
4.684

$$$$
2fd0_lig
 OpenBabel11021811433D
libRbt.so/2013.1/901 2013/11/27
 52 56  0  0  0  0  0  0  0  0999 V2000
    6.2031  -48.0623   16.7456 C   0  0  2  0  0  0  0  0  0  0  0  0
    6.8291  -48.4790   15.5244 O   0  0  0  0  0  0  0  0  0  0  0  0
    7.3230  -44.8946   13.1159 C   0  0  2  0  0  0  0  0  0  0  0  0
    7.8901  -43.9013   12.1893 N   0  0  0  0  0  0  0  0  0  0  0  0
    5.0751  -49.0493   12.1939 C   0  0  1  0  0  0  0  0  0  0  0  0
    0.6767  -49.9444   13.0987 C   0  0  1  0  0  0  0  0  0  0  0  0
   -3.0075  -49.5598    9.6688 C   0  0  1  0  0  0  0  0  0  0  0  0
    5.7039  -49.3404   17.5130 C   0  0  2  0  0  0  0  0  0  0  0  0
    6.7888  -50.2773   17.7698 N   0  0  0  0  0  0  0  0  0  0  0  0
    8.3274  -45.1620   14.3212 C   0  0  0  0  0  0  0  0  0  0  0  0
    4.2818  -49.5103   13.4030 C   0  0  2  0  0  0  0  0  0  0  0  0
    4.4226  -50.9388   13.6430 O   0  0  0  0  0  0  0  0  0  0  0  0
   -0.0438  -51.3231   12.7251 C   0  0  2  0  0  0  0  0  0  0  0  0
    0.2323  -51.6891   11.3091 N   0  0  0  0  0  0  0  0  0  0  0  0
   -2.7965  -50.7344    8.6872 C   0  0  1  0  0  0  0  0  0  0  0  0
   -3.6744  -51.8252    9.0605 O   0  0  0  0  0  0  0  0  0  0  0  0
    4.5275  -50.0276   16.7253 C   0  0  0  0  0  0  0  0  0  0  0  0
    7.7030  -46.2356   15.3345 C   0  0  2  0  0  0  0  0  0  0  0  0
    8.6137  -46.5029   16.4575 N   0  0  0  0  0  0  0  0  0  0  0  0
    2.8770  -49.0203   13.0948 C   0  0  2  0  0  0  0  0  0  0  0  0
    2.0256  -50.0820   12.7590 O   0  0  0  0  0  0  0  0  0  0  0  0
   -1.6050  -51.1712   13.1130 C   0  0  1  0  0  0  0  0  0  0  0  0
   -1.6846  -50.8307   14.5090 O   0  0  0  0  0  0  0  0  0  0  0  0
   -2.9998  -50.4479    7.1747 C   0  0  1  0  0  0  0  0  0  0  0  0
   -4.3569  -50.7685    6.8433 O   0  0  0  0  0  0  0  0  0  0  0  0
    3.3996  -48.9696   16.4946 C   0  0  2  0  0  0  0  0  0  0  0  0
    2.3055  -49.5585   15.7987 O   0  0  0  0  0  0  0  0  0  0  0  0
    7.4053  -47.5514   14.5628 C   0  0  2  0  0  0  0  0  0  0  0  0
    2.9300  -48.1258   11.8332 C   0  0  2  0  0  0  0  0  0  0  0  0
    4.3260  -48.0021   11.6022 O   0  0  0  0  0  0  0  0  0  0  0  0
   -2.3118  -49.9626   12.3044 C   0  0  2  0  0  0  0  0  0  0  0  0
   -2.2240  -50.3537   10.9213 O   0  0  0  0  0  0  0  0  0  0  0  0
   -2.7021  -49.0035    6.7103 C   0  0  2  0  0  0  0  0  0  0  0  0
   -2.0114  -49.1324    5.4482 O   0  0  0  0  0  0  0  0  0  0  0  0
    3.9690  -47.7767   15.6746 C   0  0  2  0  0  0  0  0  0  0  0  0
    5.0896  -47.1844   16.4382 O   0  0  0  0  0  0  0  0  0  0  0  0
    6.4694  -47.3327   13.3351 C   0  0  2  0  0  0  0  0  0  0  0  0
    6.3052  -48.6128   12.6789 O   0  0  0  0  0  0  0  0  0  0  0  0
    2.3473  -46.7277   12.0067 C   0  0  0  0  0  0  0  0  0  0  0  0
    2.4978  -46.0501   10.7500 O   0  0  0  0  0  0  0  0  0  0  0  0
   -1.4244  -48.7514   12.5211 C   0  0  1  0  0  0  0  0  0  0  0  0
    0.0122  -48.7520   12.3864 O   0  0  0  0  0  0  0  0  0  0  0  0
   -1.9066  -48.2411    7.7665 C   0  0  2  0  0  0  0  0  0  0  0  0
   -2.4729  -48.2855    9.1054 O   0  0  0  0  0  0  0  0  0  0  0  0
    2.9455  -46.7094   15.4497 C   0  0  0  0  0  0  0  0  0  0  0  0
    2.5432  -46.2234   16.7018 O   0  0  0  0  0  0  0  0  0  0  0  0
    7.0939  -46.2663   12.3628 C   0  0  1  0  0  0  0  0  0  0  0  0
    6.1622  -46.0487   11.2474 O   0  0  0  0  0  0  0  0  0  0  0  0
   -1.9288  -47.4713   11.7651 C   0  0  0  0  0  0  0  0  0  0  0  0
   -3.0839  -46.8105   12.4196 N   0  0  0  0  0  0  0  0  0  0  0  0
   -1.4865  -46.7864    7.5686 C   0  0  0  0  0  0  0  0  0  0  0  0
   -0.7655  -46.3012    8.7430 O   0  0  0  0  0  0  0  0  0  0  0  0
  1  2  1  6  0  0  0
  1  8  1  0  0  0  0
  1 36  1  0  0  0  0
  3  4  1  6  0  0  0
  3 10  1  0  0  0  0
  3 47  1  0  0  0  0
  5 11  1  0  0  0  0
  5 30  1  0  0  0  0
  5 38  1  1  0  0  0
  6 21  1  6  0  0  0
  6 42  1  0  0  0  0
  7 15  1  0  0  0  0
  7 44  1  0  0  0  0
  7 32  1  1  0  0  0
  8  9  1  6  0  0  0
  8 17  1  0  0  0  0
 11 12  1  6  0  0  0
 11 20  1  0  0  0  0
 13  6  1  0  0  0  0
 13 14  1  6  0  0  0
 15 16  1  1  0  0  0
 15 24  1  0  0  0  0
 17 26  1  0  0  0  0
 18 10  1  0  0  0  0
 18 19  1  1  0  0  0
 20 21  1  6  0  0  0
 20 29  1  0  0  0  0
 22 13  1  0  0  0  0
 22 23  1  1  0  0  0
 24 25  1  1  0  0  0
 24 33  1  0  0  0  0
 26 27  1  6  0  0  0
 26 35  1  0  0  0  0
 28  2  1  1  0  0  0
 28 18  1  0  0  0  0
 29 30  1  0  0  0  0
 29 39  1  1  0  0  0
 31 22  1  0  0  0  0
 31 32  1  6  0  0  0
 31 41  1  0  0  0  0
 33 34  1  6  0  0  0
 33 43  1  0  0  0  0
 35 36  1  0  0  0  0
 35 45  1  1  0  0  0
 37 28  1  0  0  0  0
 37 38  1  6  0  0  0
 39 40  1  0  0  0  0
 41 42  1  0  0  0  0
 41 49  1  6  0  0  0
 43 44  1  0  0  0  0
 43 51  1  6  0  0  0
 45 46  1  0  0  0  0
 47 37  1  0  0  0  0
 47 48  1  6  0  0  0
 49 50  1  0  0  0  0
 51 52  1  0  0  0  0
M  END
>  <CHROM.1>
179.87657087,-76.97608792,-175.31863916,-164.31807714,148.69962543,21.62616171
179.36269901,170.59680534,61.06354447,138.09336880,76.60916083,178.77095887
2.12949401,-48.48074686,12.49813858,0.40903832,0.48517195,2.05219595

>  <Name>
2fd0_lig

>  <RI>
0

>  <Rbt.Current_Directory>
/home/itssahil/PROJECTS/Mol_Feturizer/New_Systems/rnas/2fd0

>  <Rbt.Executable>
rbdock ($Id: //depot/dev/client3/rdock/2013.1/src/exe/rbdock.cxx#4 $)

>  <Rbt.Library>
libRbt.so (2013.1, Build901 2013/11/27)

>  <Rbt.Parameter_File>
/export/apps/rDock/src/rDock_2013.1_src/data/scripts/dock_solv.prm

>  <Rbt.Receptor>
prm/pocket_docking_5.prm

>  <SCORE>
-11.7265

>  <SCORE.INTER>
-9.5984

>  <SCORE.INTER.CONST>
1

>  <SCORE.INTER.POLAR>
-0.0852976

>  <SCORE.INTER.ROT>
12

>  <SCORE.INTER.SOLV>
13.8467

>  <SCORE.INTER.VDW>
-22.3302

>  <SCORE.INTER.norm>
-0.184585

>  <SCORE.INTRA>
-2.12809

>  <SCORE.INTRA.DIHEDRAL>
-4.15241

>  <SCORE.INTRA.DIHEDRAL.0>
23.9727

>  <SCORE.INTRA.POLAR>
0

>  <SCORE.INTRA.POLAR.0>
0

>  <SCORE.INTRA.REPUL>
0

>  <SCORE.INTRA.REPUL.0>
0

>  <SCORE.INTRA.SOLV>
-0.296148

>  <SCORE.INTRA.SOLV.lig_0>
-115.028

>  <SCORE.INTRA.VDW>
0.0961835

>  <SCORE.INTRA.VDW.0>
-6.82393

>  <SCORE.INTRA.norm>
-0.0409249

>  <SCORE.RESTR>
0

>  <SCORE.RESTR.CAVITY>
0

>  <SCORE.RESTR.norm>
0

>  <SCORE.SYSTEM>
0

>  <SCORE.SYSTEM.CONST>
0

>  <SCORE.SYSTEM.DIHEDRAL>
0

>  <SCORE.SYSTEM.SOLV>
0

>  <SCORE.SYSTEM.norm>
0

>  <SCORE.heavy>
52

>  <SCORE.norm>
-0.225509

>  <RMSD>
4.719

$$$$
2fd0_lig
 OpenBabel11021811433D
libRbt.so/2013.1/901 2013/11/27
 52 56  0  0  0  0  0  0  0  0999 V2000
    3.8225  -46.5218   16.0090 C   0  0  2  0  0  0  0  0  0  0  0  0
    3.8600  -46.3147   14.5903 O   0  0  0  0  0  0  0  0  0  0  0  0
    3.8119  -42.7489   12.1052 C   0  0  2  0  0  0  0  0  0  0  0  0
    4.2013  -41.4695   11.4898 N   0  0  0  0  0  0  0  0  0  0  0  0
    5.4130  -47.1781   11.1886 C   0  0  1  0  0  0  0  0  0  0  0  0
    2.9300  -50.6713   10.1812 C   0  0  1  0  0  0  0  0  0  0  0  0
    0.4119  -54.1161    7.0429 C   0  0  1  0  0  0  0  0  0  0  0  0
    4.3162  -47.9828   16.3141 C   0  0  2  0  0  0  0  0  0  0  0  0
    5.6490  -48.2276   15.7808 N   0  0  0  0  0  0  0  0  0  0  0  0
    3.7088  -42.5925   13.6857 C   0  0  0  0  0  0  0  0  0  0  0  0
    4.2865  -48.1167   11.5807 C   0  0  2  0  0  0  0  0  0  0  0  0
    4.7694  -49.2912   12.2916 O   0  0  0  0  0  0  0  0  0  0  0  0
    3.4323  -52.0420    9.5268 C   0  0  2  0  0  0  0  0  0  0  0  0
    3.6261  -51.8797    8.0600 N   0  0  0  0  0  0  0  0  0  0  0  0
    1.1198  -53.5575    5.7880 C   0  0  1  0  0  0  0  0  0  0  0  0
    2.5449  -53.7926    5.9060 O   0  0  0  0  0  0  0  0  0  0  0  0
    3.2796  -49.0356   15.7723 C   0  0  0  0  0  0  0  0  0  0  0  0
    3.2740  -43.9838   14.3526 C   0  0  2  0  0  0  0  0  0  0  0  0
    3.1738  -43.8672   15.8148 N   0  0  0  0  0  0  0  0  0  0  0  0
    3.5859  -48.3780   10.2580 C   0  0  2  0  0  0  0  0  0  0  0  0
    3.8336  -49.6775    9.7943 O   0  0  0  0  0  0  0  0  0  0  0  0
    2.3912  -53.1963    9.9678 C   0  0  1  0  0  0  0  0  0  0  0  0
    2.3385  -53.2210   11.4057 O   0  0  0  0  0  0  0  0  0  0  0  0
    0.6555  -54.0934    4.4067 C   0  0  1  0  0  0  0  0  0  0  0  0
    1.4964  -55.2002    4.0572 O   0  0  0  0  0  0  0  0  0  0  0  0
    1.8794  -48.7181   16.3915 C   0  0  2  0  0  0  0  0  0  0  0  0
    0.9141  -49.6623   15.9389 O   0  0  0  0  0  0  0  0  0  0  0  0
    4.3118  -45.0768   13.9733 C   0  0  2  0  0  0  0  0  0  0  0  0
    4.1886  -47.4406    9.1845 C   0  0  2  0  0  0  0  0  0  0  0  0
    5.0350  -46.5973    9.9526 O   0  0  0  0  0  0  0  0  0  0  0  0
    0.8896  -52.8797    9.4585 C   0  0  2  0  0  0  0  0  0  0  0  0
    0.9877  -52.8821    8.0219 O   0  0  0  0  0  0  0  0  0  0  0  0
   -0.8214  -54.5415    4.3127 C   0  0  2  0  0  0  0  0  0  0  0  0
   -1.2945  -54.0655    3.0336 O   0  0  0  0  0  0  0  0  0  0  0  0
    1.4470  -47.2807   15.9831 C   0  0  2  0  0  0  0  0  0  0  0  0
    2.4652  -46.3319   16.4853 O   0  0  0  0  0  0  0  0  0  0  0  0
    4.4925  -45.2290   12.4321 C   0  0  2  0  0  0  0  0  0  0  0  0
    5.5082  -46.2365   12.2100 O   0  0  0  0  0  0  0  0  0  0  0  0
    3.1793  -46.5654    8.4498 C   0  0  0  0  0  0  0  0  0  0  0  0
    2.4987  -45.7835    9.4430 O   0  0  0  0  0  0  0  0  0  0  0  0
    0.5907  -51.4658    9.9200 C   0  0  1  0  0  0  0  0  0  0  0  0
    1.4851  -50.3446    9.7615 O   0  0  0  0  0  0  0  0  0  0  0  0
   -1.6297  -54.0168    5.4964 C   0  0  2  0  0  0  0  0  0  0  0  0
   -1.0498  -54.2945    6.8010 O   0  0  0  0  0  0  0  0  0  0  0  0
    0.1270  -46.9010   16.5751 C   0  0  0  0  0  0  0  0  0  0  0  0
   -0.2285  -45.6419   16.0712 O   0  0  0  0  0  0  0  0  0  0  0  0
    4.9043  -43.8505   11.7976 C   0  0  1  0  0  0  0  0  0  0  0  0
    5.0143  -44.0202   10.3421 O   0  0  0  0  0  0  0  0  0  0  0  0
   -0.8253  -50.9554    9.4740 C   0  0  0  0  0  0  0  0  0  0  0  0
   -0.9691  -50.8086    8.0053 N   0  0  0  0  0  0  0  0  0  0  0  0
   -3.1174  -54.3210    5.6579 C   0  0  0  0  0  0  0  0  0  0  0  0
   -3.8816  -53.7122    4.5718 O   0  0  0  0  0  0  0  0  0  0  0  0
  1  2  1  6  0  0  0
  1  8  1  0  0  0  0
  1 36  1  0  0  0  0
  3  4  1  6  0  0  0
  3 10  1  0  0  0  0
  3 47  1  0  0  0  0
  5 11  1  0  0  0  0
  5 30  1  0  0  0  0
  5 38  1  1  0  0  0
  6 21  1  6  0  0  0
  6 42  1  0  0  0  0
  7 15  1  0  0  0  0
  7 44  1  0  0  0  0
  7 32  1  1  0  0  0
  8  9  1  6  0  0  0
  8 17  1  0  0  0  0
 11 12  1  6  0  0  0
 11 20  1  0  0  0  0
 13  6  1  0  0  0  0
 13 14  1  6  0  0  0
 15 16  1  1  0  0  0
 15 24  1  0  0  0  0
 17 26  1  0  0  0  0
 18 10  1  0  0  0  0
 18 19  1  1  0  0  0
 20 21  1  6  0  0  0
 20 29  1  0  0  0  0
 22 13  1  0  0  0  0
 22 23  1  1  0  0  0
 24 25  1  1  0  0  0
 24 33  1  0  0  0  0
 26 27  1  6  0  0  0
 26 35  1  0  0  0  0
 28  2  1  6  0  0  0
 28 18  1  0  0  0  0
 29 30  1  0  0  0  0
 29 39  1  1  0  0  0
 31 22  1  0  0  0  0
 31 32  1  6  0  0  0
 31 41  1  0  0  0  0
 33 34  1  6  0  0  0
 33 43  1  0  0  0  0
 35 36  1  0  0  0  0
 35 45  1  1  0  0  0
 37 28  1  0  0  0  0
 37 38  1  1  0  0  0
 39 40  1  0  0  0  0
 41 42  1  0  0  0  0
 41 49  1  6  0  0  0
 43 44  1  0  0  0  0
 43 51  1  1  0  0  0
 45 46  1  0  0  0  0
 47 37  1  0  0  0  0
 47 48  1  6  0  0  0
 49 50  1  0  0  0  0
 51 52  1  0  0  0  0
M  END
>  <CHROM.1>
-139.33384984,-69.83314325,179.94981749,-169.09157987,90.92962988,-66.76602822
57.98592340,105.78546459,-175.41505522,140.55191682,-65.58718828,-64.65072277
2.24742707,-49.19810339,10.67951343,0.95780470,1.01032858,1.32689786

>  <Name>
2fd0_lig

>  <RI>
0

>  <Rbt.Current_Directory>
/home/itssahil/PROJECTS/Mol_Feturizer/New_Systems/rnas/2fd0

>  <Rbt.Executable>
rbdock ($Id: //depot/dev/client3/rdock/2013.1/src/exe/rbdock.cxx#4 $)

>  <Rbt.Library>
libRbt.so (2013.1, Build901 2013/11/27)

>  <Rbt.Parameter_File>
/export/apps/rDock/src/rDock_2013.1_src/data/scripts/dock_solv.prm

>  <Rbt.Receptor>
prm/pocket_docking_8.prm

>  <SCORE>
-20.4869

>  <SCORE.INTER>
-22.1133

>  <SCORE.INTER.CONST>
1

>  <SCORE.INTER.POLAR>
-2.53364

>  <SCORE.INTER.ROT>
12

>  <SCORE.INTER.SOLV>
16.3842

>  <SCORE.INTER.VDW>
-23.3581

>  <SCORE.INTER.norm>
-0.425255

>  <SCORE.INTRA>
1.6264

>  <SCORE.INTRA.DIHEDRAL>
-0.260058

>  <SCORE.INTRA.DIHEDRAL.0>
23.9727

>  <SCORE.INTRA.POLAR>
0

>  <SCORE.INTRA.POLAR.0>
0

>  <SCORE.INTRA.REPUL>
0

>  <SCORE.INTRA.REPUL.0>
0

>  <SCORE.INTRA.SOLV>
3.28483

>  <SCORE.INTRA.SOLV.lig_0>
-115.028

>  <SCORE.INTRA.VDW>
0.114016

>  <SCORE.INTRA.VDW.0>
-6.82393

>  <SCORE.INTRA.norm>
0.031277

>  <SCORE.RESTR>
0

>  <SCORE.RESTR.CAVITY>
0

>  <SCORE.RESTR.norm>
0

>  <SCORE.SYSTEM>
0

>  <SCORE.SYSTEM.CONST>
0

>  <SCORE.SYSTEM.DIHEDRAL>
0

>  <SCORE.SYSTEM.SOLV>
0

>  <SCORE.SYSTEM.norm>
0

>  <SCORE.heavy>
52

>  <SCORE.norm>
-0.393978

>  <RMSD>
4.733

$$$$
2fd0_lig
 OpenBabel11021811433D
libRbt.so/2013.1/901 2013/11/27
 52 56  0  0  0  0  0  0  0  0999 V2000
    5.1435  -46.9389   15.5004 C   0  0  2  0  0  0  0  0  0  0  0  0
    5.2100  -47.4987   14.1816 O   0  0  0  0  0  0  0  0  0  0  0  0
    2.6950  -44.8283   11.8501 C   0  0  2  0  0  0  0  0  0  0  0  0
    1.9655  -44.2261   10.7222 N   0  0  0  0  0  0  0  0  0  0  0  0
    2.4523  -49.2505   12.5031 C   0  0  1  0  0  0  0  0  0  0  0  0
    1.8931  -53.6043   11.2333 C   0  0  1  0  0  0  0  0  0  0  0  0
    0.2430  -55.3354    6.5214 C   0  0  1  0  0  0  0  0  0  0  0  0
    6.0958  -47.7625   16.4418 C   0  0  2  0  0  0  0  0  0  0  0  0
    7.4649  -47.7818   15.9458 N   0  0  0  0  0  0  0  0  0  0  0  0
    4.2498  -44.9117   11.5207 C   0  0  0  0  0  0  0  0  0  0  0  0
    2.7644  -50.5967   13.1305 C   0  0  2  0  0  0  0  0  0  0  0  0
    4.1768  -50.9349   13.0363 O   0  0  0  0  0  0  0  0  0  0  0  0
    2.8749  -54.3706   10.2292 C   0  0  2  0  0  0  0  0  0  0  0  0
    3.1794  -53.5199    9.0464 N   0  0  0  0  0  0  0  0  0  0  0  0
    1.0455  -54.2739    5.7358 C   0  0  1  0  0  0  0  0  0  0  0  0
    2.4082  -54.7385    5.5715 O   0  0  0  0  0  0  0  0  0  0  0  0
    5.5390  -49.2204   16.6444 C   0  0  0  0  0  0  0  0  0  0  0  0
    5.0434  -45.5574   12.7546 C   0  0  2  0  0  0  0  0  0  0  0  0
    6.4839  -45.6485   12.4745 N   0  0  0  0  0  0  0  0  0  0  0  0
    1.8044  -51.5345   12.4180 C   0  0  2  0  0  0  0  0  0  0  0  0
    2.4770  -52.3649   11.5108 O   0  0  0  0  0  0  0  0  0  0  0  0
    2.2056  -55.8043    9.9015 C   0  0  1  0  0  0  0  0  0  0  0  0
    1.9940  -56.4910   11.1484 O   0  0  0  0  0  0  0  0  0  0  0  0
    0.5064  -53.8578    4.3404 C   0  0  1  0  0  0  0  0  0  0  0  0
    1.1477  -54.6793    3.3565 O   0  0  0  0  0  0  0  0  0  0  0  0
    4.0751  -49.1222   17.1849 C   0  0  2  0  0  0  0  0  0  0  0  0
    3.5399  -50.4244   17.3995 O   0  0  0  0  0  0  0  0  0  0  0  0
    4.4656  -46.9700   13.0487 C   0  0  2  0  0  0  0  0  0  0  0  0
    0.8352  -50.6904   11.5563 C   0  0  2  0  0  0  0  0  0  0  0  0
    1.1540  -49.3623   11.9464 O   0  0  0  0  0  0  0  0  0  0  0  0
    0.7518  -55.6468    9.2115 C   0  0  2  0  0  0  0  0  0  0  0  0
    1.0145  -54.9736    7.9659 O   0  0  0  0  0  0  0  0  0  0  0  0
   -1.0247  -53.9531    4.1470 C   0  0  2  0  0  0  0  0  0  0  0  0
   -1.3997  -52.7732    3.4029 O   0  0  0  0  0  0  0  0  0  0  0  0
    3.1958  -48.3501   16.1600 C   0  0  2  0  0  0  0  0  0  0  0  0
    3.7750  -47.0006   15.9788 O   0  0  0  0  0  0  0  0  0  0  0  0
    2.9307  -46.9496   13.3217 C   0  0  2  0  0  0  0  0  0  0  0  0
    2.5080  -48.3177   13.5355 O   0  0  0  0  0  0  0  0  0  0  0  0
   -0.6460  -50.9273   11.8286 C   0  0  0  0  0  0  0  0  0  0  0  0
   -1.3798  -50.1135   10.9010 O   0  0  0  0  0  0  0  0  0  0  0  0
   -0.0291  -54.7087   10.1123 C   0  0  1  0  0  0  0  0  0  0  0  0
    0.4790  -53.4657   10.6403 O   0  0  0  0  0  0  0  0  0  0  0  0
   -1.7399  -54.0813    5.4892 C   0  0  2  0  0  0  0  0  0  0  0  0
   -1.2259  -55.1304    6.3556 O   0  0  0  0  0  0  0  0  0  0  0  0
    1.7868  -48.1901   16.6359 C   0  0  0  0  0  0  0  0  0  0  0  0
    1.1688  -49.4478   16.5924 O   0  0  0  0  0  0  0  0  0  0  0  0
    2.1743  -46.2996   12.1060 C   0  0  1  0  0  0  0  0  0  0  0  0
    0.7396  -46.2503   12.4205 O   0  0  0  0  0  0  0  0  0  0  0  0
   -1.4707  -54.3935    9.5767 C   0  0  0  0  0  0  0  0  0  0  0  0
   -2.2240  -53.4373   10.4238 N   0  0  0  0  0  0  0  0  0  0  0  0
   -3.2589  -54.2033    5.5877 C   0  0  0  0  0  0  0  0  0  0  0  0
   -3.8961  -52.9488    5.1945 O   0  0  0  0  0  0  0  0  0  0  0  0
  1  2  1  6  0  0  0
  1  8  1  0  0  0  0
  1 36  1  0  0  0  0
  3  4  1  6  0  0  0
  3 10  1  0  0  0  0
  3 47  1  0  0  0  0
  5 11  1  0  0  0  0
  5 30  1  0  0  0  0
  5 38  1  1  0  0  0
  6 21  1  6  0  0  0
  6 42  1  0  0  0  0
  7 15  1  0  0  0  0
  7 44  1  0  0  0  0
  7 32  1  1  0  0  0
  8  9  1  6  0  0  0
  8 17  1  0  0  0  0
 11 12  1  6  0  0  0
 11 20  1  0  0  0  0
 13  6  1  0  0  0  0
 13 14  1  6  0  0  0
 15 16  1  6  0  0  0
 15 24  1  0  0  0  0
 17 26  1  0  0  0  0
 18 10  1  0  0  0  0
 18 19  1  6  0  0  0
 20 21  1  6  0  0  0
 20 29  1  0  0  0  0
 22 13  1  0  0  0  0
 22 23  1  1  0  0  0
 24 25  1  6  0  0  0
 24 33  1  0  0  0  0
 26 27  1  6  0  0  0
 26 35  1  0  0  0  0
 28  2  1  1  0  0  0
 28 18  1  0  0  0  0
 29 30  1  0  0  0  0
 29 39  1  1  0  0  0
 31 22  1  0  0  0  0
 31 32  1  6  0  0  0
 31 41  1  0  0  0  0
 33 34  1  1  0  0  0
 33 43  1  0  0  0  0
 35 36  1  0  0  0  0
 35 45  1  1  0  0  0
 37 28  1  0  0  0  0
 37 38  1  6  0  0  0
 39 40  1  0  0  0  0
 41 42  1  0  0  0  0
 41 49  1  6  0  0  0
 43 44  1  0  0  0  0
 43 51  1  6  0  0  0
 45 46  1  0  0  0  0
 47 37  1  0  0  0  0
 47 48  1  1  0  0  0
 49 50  1  0  0  0  0
 51 52  1  0  0  0  0
M  END
>  <CHROM.1>
-179.15195159,148.24446662,-177.79956886,-179.01967088,152.88068396,66.27583255
-177.29746581,140.60715838,-70.64711364,-71.15691308,-177.83239564,-68.71806606
1.83608264,-50.87350067,11.06309768,0.40713605,-1.14350533,-0.24926008

>  <Name>
2fd0_lig

>  <RI>
0

>  <Rbt.Current_Directory>
/home/itssahil/PROJECTS/Mol_Feturizer/New_Systems/rnas/2fd0

>  <Rbt.Executable>
rbdock ($Id: //depot/dev/client3/rdock/2013.1/src/exe/rbdock.cxx#4 $)

>  <Rbt.Library>
libRbt.so (2013.1, Build901 2013/11/27)

>  <Rbt.Parameter_File>
/export/apps/rDock/src/rDock_2013.1_src/data/scripts/dock_solv.prm

>  <Rbt.Receptor>
prm/pocket_docking_6.prm

>  <SCORE>
-17.9246

>  <SCORE.INTER>
-12.9338

>  <SCORE.INTER.CONST>
1

>  <SCORE.INTER.POLAR>
-0.660171

>  <SCORE.INTER.ROT>
12

>  <SCORE.INTER.SOLV>
16.6706

>  <SCORE.INTER.VDW>
-23.5788

>  <SCORE.INTER.norm>
-0.248727

>  <SCORE.INTRA>
-4.99079

>  <SCORE.INTRA.DIHEDRAL>
-8.8653

>  <SCORE.INTRA.DIHEDRAL.0>
23.9727

>  <SCORE.INTRA.POLAR>
0

>  <SCORE.INTRA.POLAR.0>
0

>  <SCORE.INTRA.REPUL>
0

>  <SCORE.INTRA.REPUL.0>
0

>  <SCORE.INTRA.SOLV>
-1.4274

>  <SCORE.INTRA.SOLV.lig_0>
-115.028

>  <SCORE.INTRA.VDW>
0.155563

>  <SCORE.INTRA.VDW.0>
-6.82393

>  <SCORE.INTRA.norm>
-0.0959766

>  <SCORE.RESTR>
0

>  <SCORE.RESTR.CAVITY>
0

>  <SCORE.RESTR.norm>
0

>  <SCORE.SYSTEM>
0

>  <SCORE.SYSTEM.CONST>
0

>  <SCORE.SYSTEM.DIHEDRAL>
0

>  <SCORE.SYSTEM.SOLV>
0

>  <SCORE.SYSTEM.norm>
0

>  <SCORE.heavy>
52

>  <SCORE.norm>
-0.344703

>  <RMSD>
4.741

$$$$
2fd0_lig
 OpenBabel11021811433D
libRbt.so/2013.1/901 2013/11/27
 52 56  0  0  0  0  0  0  0  0999 V2000
    4.0742  -46.1656   12.1467 C   0  0  2  0  0  0  0  0  0  0  0  0
    5.3703  -46.6801   12.4818 O   0  0  0  0  0  0  0  0  0  0  0  0
    7.0892  -49.5869   15.2183 C   0  0  2  0  0  0  0  0  0  0  0  0
    7.4506  -50.2969   16.4562 N   0  0  0  0  0  0  0  0  0  0  0  0
    3.0598  -48.7636   12.3128 C   0  0  1  0  0  0  0  0  0  0  0  0
    2.0457  -50.8300    8.4078 C   0  0  1  0  0  0  0  0  0  0  0  0
   -1.9641  -49.1801    6.7481 C   0  0  1  0  0  0  0  0  0  0  0  0
    4.2144  -45.2424   10.8819 C   0  0  2  0  0  0  0  0  0  0  0  0
    4.8074  -45.9508    9.7562 N   0  0  0  0  0  0  0  0  0  0  0  0
    7.5820  -48.0750   15.2849 C   0  0  0  0  0  0  0  0  0  0  0  0
    3.8356  -49.7425   11.4505 C   0  0  2  0  0  0  0  0  0  0  0  0
    4.8747  -49.0868   10.6704 O   0  0  0  0  0  0  0  0  0  0  0  0
    2.2683  -50.1972    6.9554 C   0  0  2  0  0  0  0  0  0  0  0  0
    1.9072  -48.7533    6.9544 N   0  0  0  0  0  0  0  0  0  0  0  0
   -1.9247  -47.9117    5.8665 C   0  0  1  0  0  0  0  0  0  0  0  0
   -2.2793  -48.2699    4.5079 O   0  0  0  0  0  0  0  0  0  0  0  0
    5.0319  -43.9458   11.2382 C   0  0  0  0  0  0  0  0  0  0  0  0
    7.1972  -47.3070   13.9316 C   0  0  2  0  0  0  0  0  0  0  0  0
    7.6397  -45.9054   13.9685 N   0  0  0  0  0  0  0  0  0  0  0  0
    2.7421  -50.4366   10.6562 C   0  0  2  0  0  0  0  0  0  0  0  0
    2.7444  -50.0286    9.3152 O   0  0  0  0  0  0  0  0  0  0  0  0
    1.4613  -51.1172    5.9002 C   0  0  1  0  0  0  0  0  0  0  0  0
    1.9432  -52.4671    6.0288 O   0  0  0  0  0  0  0  0  0  0  0  0
   -2.8136  -46.7136    6.2969 C   0  0  1  0  0  0  0  0  0  0  0  0
   -4.0666  -46.8244    5.6099 O   0  0  0  0  0  0  0  0  0  0  0  0
    4.3350  -43.2348   12.4438 C   0  0  2  0  0  0  0  0  0  0  0  0
    5.0360  -42.0434   12.7865 O   0  0  0  0  0  0  0  0  0  0  0  0
    5.6582  -47.3766   13.7264 C   0  0  2  0  0  0  0  0  0  0  0  0
    1.3681  -49.9947   11.2141 C   0  0  2  0  0  0  0  0  0  0  0  0
    1.7298  -49.2494   12.3679 O   0  0  0  0  0  0  0  0  0  0  0  0
   -0.1215  -51.1614    6.2270 C   0  0  2  0  0  0  0  0  0  0  0  0
   -0.5608  -49.7991    6.0697 O   0  0  0  0  0  0  0  0  0  0  0  0
   -3.0873  -46.5800    7.8127 C   0  0  2  0  0  0  0  0  0  0  0  0
   -2.9913  -45.1687    8.1052 O   0  0  0  0  0  0  0  0  0  0  0  0
    4.3009  -44.1992   13.6639 C   0  0  2  0  0  0  0  0  0  0  0  0
    3.5516  -45.4134   13.2720 O   0  0  0  0  0  0  0  0  0  0  0  0
    5.1166  -48.8386   13.7117 C   0  0  2  0  0  0  0  0  0  0  0  0
    3.6784  -48.7689   13.5603 O   0  0  0  0  0  0  0  0  0  0  0  0
    0.4495  -51.1320   11.6469 C   0  0  0  0  0  0  0  0  0  0  0  0
    1.1558  -51.8875   12.6427 O   0  0  0  0  0  0  0  0  0  0  0  0
   -0.2263  -51.5365    7.6932 C   0  0  1  0  0  0  0  0  0  0  0  0
    0.5485  -50.9350    8.7515 O   0  0  0  0  0  0  0  0  0  0  0  0
   -2.1192  -47.4385    8.6223 C   0  0  2  0  0  0  0  0  0  0  0  0
   -2.0334  -48.8265    8.1963 O   0  0  0  0  0  0  0  0  0  0  0  0
    3.6124  -43.5897   14.8435 C   0  0  0  0  0  0  0  0  0  0  0  0
    3.4063  -44.5988   15.7948 O   0  0  0  0  0  0  0  0  0  0  0  0
    5.5176  -49.5768   15.0409 C   0  0  1  0  0  0  0  0  0  0  0  0
    5.0365  -50.9634   14.9689 O   0  0  0  0  0  0  0  0  0  0  0  0
   -1.7059  -51.5858    8.2153 C   0  0  0  0  0  0  0  0  0  0  0  0
   -2.5459  -52.5963    7.5277 N   0  0  0  0  0  0  0  0  0  0  0  0
   -2.1748  -47.5010   10.1470 C   0  0  0  0  0  0  0  0  0  0  0  0
   -3.4732  -48.0052   10.5880 O   0  0  0  0  0  0  0  0  0  0  0  0
  1  2  1  1  0  0  0
  1  8  1  0  0  0  0
  1 36  1  0  0  0  0
  3  4  1  1  0  0  0
  3 10  1  0  0  0  0
  3 47  1  0  0  0  0
  5 11  1  0  0  0  0
  5 30  1  0  0  0  0
  5 38  1  1  0  0  0
  6 21  1  1  0  0  0
  6 42  1  0  0  0  0
  7 15  1  0  0  0  0
  7 44  1  0  0  0  0
  7 32  1  1  0  0  0
  8  9  1  6  0  0  0
  8 17  1  0  0  0  0
 11 12  1  6  0  0  0
 11 20  1  0  0  0  0
 13  6  1  0  0  0  0
 13 14  1  1  0  0  0
 15 16  1  6  0  0  0
 15 24  1  0  0  0  0
 17 26  1  0  0  0  0
 18 10  1  0  0  0  0
 18 19  1  1  0  0  0
 20 21  1  6  0  0  0
 20 29  1  0  0  0  0
 22 13  1  0  0  0  0
 22 23  1  1  0  0  0
 24 25  1  6  0  0  0
 24 33  1  0  0  0  0
 26 27  1  1  0  0  0
 26 35  1  0  0  0  0
 28  2  1  6  0  0  0
 28 18  1  0  0  0  0
 29 30  1  0  0  0  0
 29 39  1  1  0  0  0
 31 22  1  0  0  0  0
 31 32  1  1  0  0  0
 31 41  1  0  0  0  0
 33 34  1  1  0  0  0
 33 43  1  0  0  0  0
 35 36  1  0  0  0  0
 35 45  1  1  0  0  0
 37 28  1  0  0  0  0
 37 38  1  1  0  0  0
 39 40  1  0  0  0  0
 41 42  1  0  0  0  0
 41 49  1  1  0  0  0
 43 44  1  0  0  0  0
 43 51  1  1  0  0  0
 45 46  1  0  0  0  0
 47 37  1  0  0  0  0
 47 48  1  6  0  0  0
 49 50  1  0  0  0  0
 51 52  1  0  0  0  0
M  END
>  <CHROM.1>
168.83249673,39.15030366,-177.02326423,-165.98648055,163.45432794,-160.00860211
57.80352268,-159.35261434,169.09682765,89.87418418,61.73461361,60.32692907
2.02972611,-48.29361732,10.54821768,0.36731159,-0.73183812,0.20536240

>  <Name>
2fd0_lig

>  <RI>
0

>  <Rbt.Current_Directory>
/home/itssahil/PROJECTS/Mol_Feturizer/New_Systems/rnas/2fd0

>  <Rbt.Executable>
rbdock ($Id: //depot/dev/client3/rdock/2013.1/src/exe/rbdock.cxx#4 $)

>  <Rbt.Library>
libRbt.so (2013.1, Build901 2013/11/27)

>  <Rbt.Parameter_File>
/export/apps/rDock/src/rDock_2013.1_src/data/scripts/dock_solv.prm

>  <Rbt.Receptor>
prm/pocket_docking_5.prm

>  <SCORE>
-8.07035

>  <SCORE.INTER>
-7.17269

>  <SCORE.INTER.CONST>
1

>  <SCORE.INTER.POLAR>
-1.4868

>  <SCORE.INTER.ROT>
12

>  <SCORE.INTER.SOLV>
15.3038

>  <SCORE.INTER.VDW>
-16.527

>  <SCORE.INTER.norm>
-0.137936

>  <SCORE.INTRA>
-0.897662

>  <SCORE.INTRA.DIHEDRAL>
-9.91101

>  <SCORE.INTRA.DIHEDRAL.0>
23.9727

>  <SCORE.INTRA.POLAR>
0

>  <SCORE.INTRA.POLAR.0>
0

>  <SCORE.INTRA.REPUL>
0

>  <SCORE.INTRA.REPUL.0>
0

>  <SCORE.INTRA.SOLV>
-0.597574

>  <SCORE.INTRA.SOLV.lig_0>
-115.028

>  <SCORE.INTRA.VDW>
4.35663

>  <SCORE.INTRA.VDW.0>
-6.82393

>  <SCORE.INTRA.norm>
-0.0172627

>  <SCORE.RESTR>
0

>  <SCORE.RESTR.CAVITY>
0

>  <SCORE.RESTR.norm>
0

>  <SCORE.SYSTEM>
0

>  <SCORE.SYSTEM.CONST>
0

>  <SCORE.SYSTEM.DIHEDRAL>
0

>  <SCORE.SYSTEM.SOLV>
0

>  <SCORE.SYSTEM.norm>
0

>  <SCORE.heavy>
52

>  <SCORE.norm>
-0.155199

>  <RMSD>
4.780

$$$$
2fd0_lig
 OpenBabel11021811433D
libRbt.so/2013.1/901 2013/11/27
 52 56  0  0  0  0  0  0  0  0999 V2000
    7.0408  -44.8092   13.8926 C   0  0  2  0  0  0  0  0  0  0  0  0
    7.1199  -46.2244   13.6741 O   0  0  0  0  0  0  0  0  0  0  0  0
    8.2734  -49.5945   16.1650 C   0  0  2  0  0  0  0  0  0  0  0  0
    8.2990  -50.5788   17.2594 N   0  0  0  0  0  0  0  0  0  0  0  0
    5.4840  -48.5947   12.1344 C   0  0  1  0  0  0  0  0  0  0  0  0
    3.1615  -50.3781    9.2018 C   0  0  1  0  0  0  0  0  0  0  0  0
   -0.9743  -51.0957    6.2519 C   0  0  1  0  0  0  0  0  0  0  0  0
    5.8028  -44.2496   13.1015 C   0  0  2  0  0  0  0  0  0  0  0  0
    4.5659  -44.9128   13.4900 N   0  0  0  0  0  0  0  0  0  0  0  0
    8.4120  -48.1193   16.7458 C   0  0  0  0  0  0  0  0  0  0  0  0
    4.2443  -49.3833   11.7536 C   0  0  2  0  0  0  0  0  0  0  0  0
    4.5529  -50.7629   11.4079 O   0  0  0  0  0  0  0  0  0  0  0  0
    3.4297  -50.8088    7.6846 C   0  0  2  0  0  0  0  0  0  0  0  0
    3.0187  -49.7228    6.7535 N   0  0  0  0  0  0  0  0  0  0  0  0
   -0.6162  -50.4109    4.9138 C   0  0  1  0  0  0  0  0  0  0  0  0
   -0.0413  -51.3950    4.0188 O   0  0  0  0  0  0  0  0  0  0  0  0
    6.0489  -44.3582   11.5510 C   0  0  0  0  0  0  0  0  0  0  0  0
    8.3950  -47.0501   15.5517 C   0  0  2  0  0  0  0  0  0  0  0  0
    8.5191  -45.6769   16.0622 N   0  0  0  0  0  0  0  0  0  0  0  0
    3.6308  -48.5395   10.6490 C   0  0  2  0  0  0  0  0  0  0  0  0
    3.7885  -49.1437    9.3941 O   0  0  0  0  0  0  0  0  0  0  0  0
    2.7057  -52.2348    7.4535 C   0  0  1  0  0  0  0  0  0  0  0  0
    3.2280  -53.1603    8.4239 O   0  0  0  0  0  0  0  0  0  0  0  0
   -1.7576  -49.6793    4.1568 C   0  0  1  0  0  0  0  0  0  0  0  0
   -2.3290  -50.6023    3.2209 O   0  0  0  0  0  0  0  0  0  0  0  0
    7.3832  -43.6192   11.2070 C   0  0  2  0  0  0  0  0  0  0  0  0
    7.6334  -43.6789    9.8063 O   0  0  0  0  0  0  0  0  0  0  0  0
    7.0733  -47.2045   14.7486 C   0  0  2  0  0  0  0  0  0  0  0  0
    4.4055  -47.2031   10.5581 C   0  0  2  0  0  0  0  0  0  0  0  0
    5.2646  -47.2681   11.6873 O   0  0  0  0  0  0  0  0  0  0  0  0
    1.1118  -52.1498    7.7111 C   0  0  2  0  0  0  0  0  0  0  0  0
    0.6330  -51.2307    6.7113 O   0  0  0  0  0  0  0  0  0  0  0  0
   -2.8892  -49.0948    5.0334 C   0  0  2  0  0  0  0  0  0  0  0  0
   -3.2008  -47.8052    4.4621 O   0  0  0  0  0  0  0  0  0  0  0  0
    8.5568  -44.2818   11.9838 C   0  0  2  0  0  0  0  0  0  0  0  0
    8.2661  -44.1838   13.4313 O   0  0  0  0  0  0  0  0  0  0  0  0
    6.8620  -48.6508   14.2058 C   0  0  2  0  0  0  0  0  0  0  0  0
    5.5869  -48.6770   13.5206 O   0  0  0  0  0  0  0  0  0  0  0  0
    3.5478  -45.9485   10.6801 C   0  0  0  0  0  0  0  0  0  0  0  0
    2.5043  -46.0554    9.6999 O   0  0  0  0  0  0  0  0  0  0  0  0
    0.9516  -51.5060    9.0754 C   0  0  1  0  0  0  0  0  0  0  0  0
    1.6545  -50.3241    9.5126 O   0  0  0  0  0  0  0  0  0  0  0  0
   -2.4683  -49.0277    6.4989 C   0  0  2  0  0  0  0  0  0  0  0  0
   -1.9375  -50.2700    7.0377 O   0  0  0  0  0  0  0  0  0  0  0  0
    9.8606  -43.5961   11.7250 C   0  0  0  0  0  0  0  0  0  0  0  0
   10.1874  -43.7810   10.3741 O   0  0  0  0  0  0  0  0  0  0  0  0
    6.8969  -49.6833   15.3913 C   0  0  1  0  0  0  0  0  0  0  0  0
    6.7470  -51.0361   14.8373 O   0  0  0  0  0  0  0  0  0  0  0  0
   -0.5482  -51.2942    9.4877 C   0  0  0  0  0  0  0  0  0  0  0  0
   -1.2791  -52.5591    9.7432 N   0  0  0  0  0  0  0  0  0  0  0  0
   -3.4024  -48.4990    7.5851 C   0  0  0  0  0  0  0  0  0  0  0  0
   -4.5611  -49.3769    7.7307 O   0  0  0  0  0  0  0  0  0  0  0  0
  1  2  1  6  0  0  0
  1  8  1  0  0  0  0
  1 36  1  0  0  0  0
  3  4  1  1  0  0  0
  3 10  1  0  0  0  0
  3 47  1  0  0  0  0
  5 11  1  0  0  0  0
  5 30  1  0  0  0  0
  5 38  1  1  0  0  0
  6 21  1  6  0  0  0
  6 42  1  0  0  0  0
  7 15  1  0  0  0  0
  7 44  1  0  0  0  0
  7 32  1  1  0  0  0
  8  9  1  6  0  0  0
  8 17  1  0  0  0  0
 11 12  1  6  0  0  0
 11 20  1  0  0  0  0
 13  6  1  0  0  0  0
 13 14  1  6  0  0  0
 15 16  1  6  0  0  0
 15 24  1  0  0  0  0
 17 26  1  0  0  0  0
 18 10  1  0  0  0  0
 18 19  1  1  0  0  0
 20 21  1  6  0  0  0
 20 29  1  0  0  0  0
 22 13  1  0  0  0  0
 22 23  1  1  0  0  0
 24 25  1  6  0  0  0
 24 33  1  0  0  0  0
 26 27  1  6  0  0  0
 26 35  1  0  0  0  0
 28  2  1  6  0  0  0
 28 18  1  0  0  0  0
 29 30  1  0  0  0  0
 29 39  1  1  0  0  0
 31 22  1  0  0  0  0
 31 32  1  6  0  0  0
 31 41  1  0  0  0  0
 33 34  1  6  0  0  0
 33 43  1  0  0  0  0
 35 36  1  0  0  0  0
 35 45  1  1  0  0  0
 37 28  1  0  0  0  0
 37 38  1  1  0  0  0
 39 40  1  0  0  0  0
 41 42  1  0  0  0  0
 41 49  1  6  0  0  0
 43 44  1  0  0  0  0
 43 51  1  1  0  0  0
 45 46  1  0  0  0  0
 47 37  1  0  0  0  0
 47 48  1  6  0  0  0
 49 50  1  0  0  0  0
 51 52  1  0  0  0  0
M  END
>  <CHROM.1>
-121.28568304,149.37550068,177.12432369,-160.24827195,63.10604456,-68.89139784
-53.71234463,162.53638698,-65.49691730,100.06188842,68.16552124,65.19098563
3.59981378,-48.45267976,10.32369934,-0.02157674,-0.76417998,-0.50559470

>  <Name>
2fd0_lig

>  <RI>
1.29864e+07

>  <Rbt.Current_Directory>
/home/itssahil/PROJECTS/Mol_Feturizer/New_Systems/rnas/2fd0

>  <Rbt.Executable>
rbdock ($Id: //depot/dev/client3/rdock/2013.1/src/exe/rbdock.cxx#4 $)

>  <Rbt.Library>
libRbt.so (2013.1, Build901 2013/11/27)

>  <Rbt.Parameter_File>
/export/apps/rDock/src/rDock_2013.1_src/data/scripts/dock_solv.prm

>  <Rbt.Receptor>
prm/pocket_docking_3.prm

>  <SCORE>
-8.78117

>  <SCORE.INTER>
-13.233

>  <SCORE.INTER.CONST>
1

>  <SCORE.INTER.POLAR>
-1.85408

>  <SCORE.INTER.ROT>
12

>  <SCORE.INTER.SOLV>
14.3269

>  <SCORE.INTER.VDW>
-19.0173

>  <SCORE.INTER.norm>
-0.25448

>  <SCORE.INTRA>
3.61378

>  <SCORE.INTRA.DIHEDRAL>
-1.99422

>  <SCORE.INTRA.DIHEDRAL.0>
23.9727

>  <SCORE.INTRA.POLAR>
0

>  <SCORE.INTRA.POLAR.0>
0

>  <SCORE.INTRA.REPUL>
0.440042

>  <SCORE.INTRA.REPUL.0>
0

>  <SCORE.INTRA.SOLV>
1.3285

>  <SCORE.INTRA.SOLV.lig_0>
-115.028

>  <SCORE.INTRA.VDW>
1.74644

>  <SCORE.INTRA.VDW.0>
-6.82393

>  <SCORE.INTRA.norm>
0.0694958

>  <SCORE.RESTR>
0.838022

>  <SCORE.RESTR.CAVITY>
0.838022

>  <SCORE.RESTR.norm>
0.0161158

>  <SCORE.SYSTEM>
0

>  <SCORE.SYSTEM.CONST>
0

>  <SCORE.SYSTEM.DIHEDRAL>
0

>  <SCORE.SYSTEM.SOLV>
0

>  <SCORE.SYSTEM.norm>
0

>  <SCORE.heavy>
52

>  <SCORE.norm>
-0.168869

>  <RMSD>
4.782

$$$$
2fd0_lig
 OpenBabel11021811433D
libRbt.so/2013.1/901 2013/11/27
 52 56  0  0  0  0  0  0  0  0999 V2000
    3.6923  -45.1443   13.9791 C   0  0  2  0  0  0  0  0  0  0  0  0
    2.6474  -46.1118   13.8083 O   0  0  0  0  0  0  0  0  0  0  0  0
    3.9339  -49.4337   16.2986 C   0  0  2  0  0  0  0  0  0  0  0  0
    3.9910  -50.7551   16.9449 N   0  0  0  0  0  0  0  0  0  0  0  0
    3.0053  -48.8218   11.8426 C   0  0  1  0  0  0  0  0  0  0  0  0
    1.8648  -50.3150    7.6740 C   0  0  1  0  0  0  0  0  0  0  0  0
   -2.1121  -51.8211    5.0974 C   0  0  1  0  0  0  0  0  0  0  0  0
    3.1043  -43.7162   13.6852 C   0  0  2  0  0  0  0  0  0  0  0  0
    1.9620  -43.4141   14.5364 N   0  0  0  0  0  0  0  0  0  0  0  0
    2.5423  -48.7268   16.6093 C   0  0  0  0  0  0  0  0  0  0  0  0
    3.4356  -48.7599   10.3885 C   0  0  2  0  0  0  0  0  0  0  0  0
    2.9982  -47.5349    9.7356 O   0  0  0  0  0  0  0  0  0  0  0  0
    0.6228  -49.7105    6.8669 C   0  0  2  0  0  0  0  0  0  0  0  0
   -0.6507  -49.9850    7.5868 N   0  0  0  0  0  0  0  0  0  0  0  0
   -2.9558  -52.5791    6.1468 C   0  0  1  0  0  0  0  0  0  0  0  0
   -2.9533  -51.8284    7.3863 O   0  0  0  0  0  0  0  0  0  0  0  0
    2.7360  -43.5785   12.1614 C   0  0  0  0  0  0  0  0  0  0  0  0
    2.4869  -47.2836   15.9139 C   0  0  2  0  0  0  0  0  0  0  0  0
    1.2084  -46.6094   16.1836 N   0  0  0  0  0  0  0  0  0  0  0  0
    2.8851  -50.0550    9.8157 C   0  0  2  0  0  0  0  0  0  0  0  0
    1.7857  -49.8193    8.9786 O   0  0  0  0  0  0  0  0  0  0  0  0
    0.7057  -50.2809    5.3573 C   0  0  1  0  0  0  0  0  0  0  0  0
    1.9877  -49.9161    4.8146 O   0  0  0  0  0  0  0  0  0  0  0  0
   -4.4301  -52.9019    5.7816 C   0  0  1  0  0  0  0  0  0  0  0  0
   -5.2518  -51.8404    6.2838 O   0  0  0  0  0  0  0  0  0  0  0  0
    4.0068  -43.9067   11.3117 C   0  0  2  0  0  0  0  0  0  0  0  0
    3.7194  -43.7753    9.9231 O   0  0  0  0  0  0  0  0  0  0  0  0
    2.6918  -47.4481   14.3821 C   0  0  2  0  0  0  0  0  0  0  0  0
    2.3352  -50.9164   10.9776 C   0  0  2  0  0  0  0  0  0  0  0  0
    2.7489  -50.1867   12.1239 O   0  0  0  0  0  0  0  0  0  0  0  0
    0.6334  -51.8957    5.3187 C   0  0  2  0  0  0  0  0  0  0  0  0
   -0.6663  -52.2117    5.8522 O   0  0  0  0  0  0  0  0  0  0  0  0
   -4.7312  -53.0953    4.2774 C   0  0  2  0  0  0  0  0  0  0  0  0
   -5.6417  -54.2140    4.2010 O   0  0  0  0  0  0  0  0  0  0  0  0
    4.4756  -45.3573   11.6209 C   0  0  2  0  0  0  0  0  0  0  0  0
    4.7790  -45.4464   13.0664 O   0  0  0  0  0  0  0  0  0  0  0  0
    4.0170  -48.1885   14.0263 C   0  0  2  0  0  0  0  0  0  0  0  0
    4.0702  -48.3183   12.5853 O   0  0  0  0  0  0  0  0  0  0  0  0
    2.9149  -52.3234   11.0703 C   0  0  0  0  0  0  0  0  0  0  0  0
    4.3443  -52.1920   11.0467 O   0  0  0  0  0  0  0  0  0  0  0  0
    1.6874  -52.3760    6.2984 C   0  0  1  0  0  0  0  0  0  0  0  0
    1.8673  -51.8540    7.6316 O   0  0  0  0  0  0  0  0  0  0  0  0
   -3.4443  -53.3002    3.4827 C   0  0  2  0  0  0  0  0  0  0  0  0
   -2.4178  -52.2966    3.7163 O   0  0  0  0  0  0  0  0  0  0  0  0
    5.7129  -45.7220   10.8638 C   0  0  0  0  0  0  0  0  0  0  0  0
    5.3830  -45.7958    9.5031 O   0  0  0  0  0  0  0  0  0  0  0  0
    4.0564  -49.5942   14.7300 C   0  0  1  0  0  0  0  0  0  0  0  0
    5.3387  -50.2389   14.4148 O   0  0  0  0  0  0  0  0  0  0  0  0
    1.7386  -53.9390    6.4357 C   0  0  0  0  0  0  0  0  0  0  0  0
    2.8595  -54.4258    7.2758 N   0  0  0  0  0  0  0  0  0  0  0  0
   -3.4523  -53.5051    1.9695 C   0  0  0  0  0  0  0  0  0  0  0  0
   -4.1865  -54.7204    1.6251 O   0  0  0  0  0  0  0  0  0  0  0  0
  1  2  1  6  0  0  0
  1  8  1  0  0  0  0
  1 36  1  0  0  0  0
  3  4  1  1  0  0  0
  3 10  1  0  0  0  0
  3 47  1  0  0  0  0
  5 11  1  0  0  0  0
  5 30  1  0  0  0  0
  5 38  1  1  0  0  0
  6 21  1  1  0  0  0
  6 42  1  0  0  0  0
  7 15  1  0  0  0  0
  7 44  1  0  0  0  0
  7 32  1  1  0  0  0
  8  9  1  1  0  0  0
  8 17  1  0  0  0  0
 11 12  1  6  0  0  0
 11 20  1  0  0  0  0
 13  6  1  0  0  0  0
 13 14  1  1  0  0  0
 15 16  1  1  0  0  0
 15 24  1  0  0  0  0
 17 26  1  0  0  0  0
 18 10  1  0  0  0  0
 18 19  1  6  0  0  0
 20 21  1  6  0  0  0
 20 29  1  0  0  0  0
 22 13  1  0  0  0  0
 22 23  1  1  0  0  0
 24 25  1  6  0  0  0
 24 33  1  0  0  0  0
 26 27  1  6  0  0  0
 26 35  1  0  0  0  0
 28  2  1  6  0  0  0
 28 18  1  0  0  0  0
 29 30  1  0  0  0  0
 29 39  1  1  0  0  0
 31 22  1  0  0  0  0
 31 32  1  1  0  0  0
 31 41  1  0  0  0  0
 33 34  1  1  0  0  0
 33 43  1  0  0  0  0
 35 36  1  0  0  0  0
 35 45  1  6  0  0  0
 37 28  1  0  0  0  0
 37 38  1  6  0  0  0
 39 40  1  0  0  0  0
 41 42  1  0  0  0  0
 41 49  1  1  0  0  0
 43 44  1  0  0  0  0
 43 51  1  6  0  0  0
 45 46  1  0  0  0  0
 47 37  1  0  0  0  0
 47 48  1  1  0  0  0
 49 50  1  0  0  0  0
 51 52  1  0  0  0  0
M  END
>  <CHROM.1>
-160.12258968,178.46085031,-170.64090408,174.59741138,124.32178043,71.70943099
51.28640088,66.18632677,-67.93038429,-50.02035918,173.72533252,-61.98632281
1.41212507,-49.60084076,9.63405218,0.13436762,-1.04882420,-0.43535010

>  <Name>
2fd0_lig

>  <RI>
0

>  <Rbt.Current_Directory>
/home/itssahil/PROJECTS/Mol_Feturizer/New_Systems/rnas/2fd0

>  <Rbt.Executable>
rbdock ($Id: //depot/dev/client3/rdock/2013.1/src/exe/rbdock.cxx#4 $)

>  <Rbt.Library>
libRbt.so (2013.1, Build901 2013/11/27)

>  <Rbt.Parameter_File>
/export/apps/rDock/src/rDock_2013.1_src/data/scripts/dock_solv.prm

>  <Rbt.Receptor>
prm/pocket_docking_5.prm

>  <SCORE>
-25.6765

>  <SCORE.INTER>
-19.5944

>  <SCORE.INTER.CONST>
1

>  <SCORE.INTER.POLAR>
-3.62151

>  <SCORE.INTER.ROT>
12

>  <SCORE.INTER.SOLV>
17.5481

>  <SCORE.INTER.VDW>
-18.4406

>  <SCORE.INTER.norm>
-0.376815

>  <SCORE.INTRA>
-6.13256

>  <SCORE.INTRA.DIHEDRAL>
-10.8762

>  <SCORE.INTRA.DIHEDRAL.0>
23.9727

>  <SCORE.INTRA.POLAR>
0

>  <SCORE.INTRA.POLAR.0>
0

>  <SCORE.INTRA.REPUL>
0

>  <SCORE.INTRA.REPUL.0>
0

>  <SCORE.INTRA.SOLV>
-0.555633

>  <SCORE.INTRA.SOLV.lig_0>
-115.028

>  <SCORE.INTRA.VDW>
-0.416648

>  <SCORE.INTRA.VDW.0>
-6.82393

>  <SCORE.INTRA.norm>
-0.117934

>  <SCORE.RESTR>
0.0504788

>  <SCORE.RESTR.CAVITY>
0.0504788

>  <SCORE.RESTR.norm>
0.000970746

>  <SCORE.SYSTEM>
0

>  <SCORE.SYSTEM.CONST>
0

>  <SCORE.SYSTEM.DIHEDRAL>
0

>  <SCORE.SYSTEM.SOLV>
0

>  <SCORE.SYSTEM.norm>
0

>  <SCORE.heavy>
52

>  <SCORE.norm>
-0.493778

>  <RMSD>
4.792

$$$$
2fd0_lig
 OpenBabel11021811433D
libRbt.so/2013.1/901 2013/11/27
 52 56  0  0  0  0  0  0  0  0999 V2000
    4.2175  -42.9703   13.9021 C   0  0  2  0  0  0  0  0  0  0  0  0
    4.9633  -43.9896   14.5816 O   0  0  0  0  0  0  0  0  0  0  0  0
    8.6335  -44.2940   12.2730 C   0  0  2  0  0  0  0  0  0  0  0  0
   10.0256  -44.5868   11.8944 N   0  0  0  0  0  0  0  0  0  0  0  0
    4.7776  -47.1907   12.6210 C   0  0  1  0  0  0  0  0  0  0  0  0
    3.3043  -50.6606   10.2283 C   0  0  1  0  0  0  0  0  0  0  0  0
   -1.0906  -51.0719    7.2527 C   0  0  1  0  0  0  0  0  0  0  0  0
    2.7830  -42.8909   14.5405 C   0  0  2  0  0  0  0  0  0  0  0  0
    2.8402  -42.6355   15.9731 N   0  0  0  0  0  0  0  0  0  0  0  0
    8.5966  -43.3395   13.5460 C   0  0  0  0  0  0  0  0  0  0  0  0
    5.5742  -48.1539   11.7601 C   0  0  2  0  0  0  0  0  0  0  0  0
    5.9462  -47.5708   10.4796 O   0  0  0  0  0  0  0  0  0  0  0  0
    3.2058  -50.8793    8.6466 C   0  0  2  0  0  0  0  0  0  0  0  0
    2.7334  -49.6371    7.9765 N   0  0  0  0  0  0  0  0  0  0  0  0
   -0.3046  -51.8922    6.2053 C   0  0  1  0  0  0  0  0  0  0  0  0
   -0.0712  -53.2239    6.7269 O   0  0  0  0  0  0  0  0  0  0  0  0
    1.9692  -44.1999   14.2236 C   0  0  0  0  0  0  0  0  0  0  0  0
    7.0800  -43.0132   13.9496 C   0  0  2  0  0  0  0  0  0  0  0  0
    7.0177  -42.1338   15.1263 N   0  0  0  0  0  0  0  0  0  0  0  0
    4.6767  -49.3785   11.7006 C   0  0  2  0  0  0  0  0  0  0  0  0
    4.0887  -49.5226   10.4364 O   0  0  0  0  0  0  0  0  0  0  0  0
    2.2981  -52.1927    8.3975 C   0  0  1  0  0  0  0  0  0  0  0  0
    2.9043  -53.2915    9.1019 O   0  0  0  0  0  0  0  0  0  0  0  0
   -0.9289  -52.0311    4.7904 C   0  0  1  0  0  0  0  0  0  0  0  0
   -1.6976  -53.2406    4.7638 O   0  0  0  0  0  0  0  0  0  0  0  0
    1.9416  -44.4047   12.6738 C   0  0  2  0  0  0  0  0  0  0  0  0
    1.1967  -45.5726   12.3435 O   0  0  0  0  0  0  0  0  0  0  0  0
    6.3316  -44.3448   14.2371 C   0  0  2  0  0  0  0  0  0  0  0  0
    3.4951  -49.1747   12.6787 C   0  0  2  0  0  0  0  0  0  0  0  0
    3.8589  -47.9804   13.3560 O   0  0  0  0  0  0  0  0  0  0  0  0
    0.8104  -52.0212    9.0069 C   0  0  2  0  0  0  0  0  0  0  0  0
    0.2396  -50.9277    8.2638 O   0  0  0  0  0  0  0  0  0  0  0  0
   -1.8261  -50.8610    4.3252 C   0  0  2  0  0  0  0  0  0  0  0  0
   -1.4978  -50.6442    2.9354 O   0  0  0  0  0  0  0  0  0  0  0  0
    3.3979  -44.5372   12.1433 C   0  0  2  0  0  0  0  0  0  0  0  0
    4.1306  -43.2998   12.4917 O   0  0  0  0  0  0  0  0  0  0  0  0
    6.3883  -45.3401   13.0383 C   0  0  2  0  0  0  0  0  0  0  0  0
    5.7006  -46.5483   13.4424 O   0  0  0  0  0  0  0  0  0  0  0  0
    3.3160  -50.2780   13.7155 C   0  0  0  0  0  0  0  0  0  0  0  0
    4.6294  -50.7200   14.0907 O   0  0  0  0  0  0  0  0  0  0  0  0
    1.0058  -51.5781   10.4446 C   0  0  1  0  0  0  0  0  0  0  0  0
    1.9087  -50.5344   10.8662 O   0  0  0  0  0  0  0  0  0  0  0  0
   -1.6176  -49.6286    5.2012 C   0  0  2  0  0  0  0  0  0  0  0  0
   -1.7244  -49.8724    6.6311 O   0  0  0  0  0  0  0  0  0  0  0  0
    3.4424  -44.7000   10.6572 C   0  0  0  0  0  0  0  0  0  0  0  0
    2.9515  -43.5219   10.0768 O   0  0  0  0  0  0  0  0  0  0  0  0
    7.8835  -45.6343   12.6504 C   0  0  1  0  0  0  0  0  0  0  0  0
    7.8966  -46.5324   11.4874 O   0  0  0  0  0  0  0  0  0  0  0  0
   -0.3447  -51.3122   11.1994 C   0  0  0  0  0  0  0  0  0  0  0  0
   -1.2775  -52.4648   11.1735 N   0  0  0  0  0  0  0  0  0  0  0  0
   -2.3881  -48.3310    4.9680 C   0  0  0  0  0  0  0  0  0  0  0  0
   -1.9573  -47.3065    5.9164 O   0  0  0  0  0  0  0  0  0  0  0  0
  1  2  1  1  0  0  0
  1  8  1  0  0  0  0
  1 36  1  0  0  0  0
  3  4  1  1  0  0  0
  3 10  1  0  0  0  0
  3 47  1  0  0  0  0
  5 11  1  0  0  0  0
  5 30  1  0  0  0  0
  5 38  1  1  0  0  0
  6 21  1  6  0  0  0
  6 42  1  0  0  0  0
  7 15  1  0  0  0  0
  7 44  1  0  0  0  0
  7 32  1  1  0  0  0
  8  9  1  1  0  0  0
  8 17  1  0  0  0  0
 11 12  1  6  0  0  0
 11 20  1  0  0  0  0
 13  6  1  0  0  0  0
 13 14  1  6  0  0  0
 15 16  1  1  0  0  0
 15 24  1  0  0  0  0
 17 26  1  0  0  0  0
 18 10  1  0  0  0  0
 18 19  1  1  0  0  0
 20 21  1  6  0  0  0
 20 29  1  0  0  0  0
 22 13  1  0  0  0  0
 22 23  1  1  0  0  0
 24 25  1  1  0  0  0
 24 33  1  0  0  0  0
 26 27  1  1  0  0  0
 26 35  1  0  0  0  0
 28  2  1  6  0  0  0
 28 18  1  0  0  0  0
 29 30  1  0  0  0  0
 29 39  1  1  0  0  0
 31 22  1  0  0  0  0
 31 32  1  6  0  0  0
 31 41  1  0  0  0  0
 33 34  1  6  0  0  0
 33 43  1  0  0  0  0
 35 36  1  0  0  0  0
 35 45  1  6  0  0  0
 37 28  1  0  0  0  0
 37 38  1  1  0  0  0
 39 40  1  0  0  0  0
 41 42  1  0  0  0  0
 41 49  1  6  0  0  0
 43 44  1  0  0  0  0
 43 51  1  6  0  0  0
 45 46  1  0  0  0  0
 47 37  1  0  0  0  0
 47 48  1  6  0  0  0
 49 50  1  0  0  0  0
 51 52  1  0  0  0  0
M  END
>  <CHROM.1>
179.24040825,88.05455475,-159.60293928,-69.97377284,176.12905530,40.92023892
36.24039831,116.12137833,64.84274441,134.32367297,55.01409797,-177.92895568
2.88133219,-47.95295769,10.56556101,0.78549432,-0.67809156,0.22697574

>  <Name>
2fd0_lig

>  <RI>
0

>  <Rbt.Current_Directory>
/home/itssahil/PROJECTS/Mol_Feturizer/New_Systems/rnas/2fd0

>  <Rbt.Executable>
rbdock ($Id: //depot/dev/client3/rdock/2013.1/src/exe/rbdock.cxx#4 $)

>  <Rbt.Library>
libRbt.so (2013.1, Build901 2013/11/27)

>  <Rbt.Parameter_File>
/export/apps/rDock/src/rDock_2013.1_src/data/scripts/dock_solv.prm

>  <Rbt.Receptor>
prm/pocket_docking_6.prm

>  <SCORE>
-5.341

>  <SCORE.INTER>
-7.29572

>  <SCORE.INTER.CONST>
1

>  <SCORE.INTER.POLAR>
-1.99989

>  <SCORE.INTER.ROT>
12

>  <SCORE.INTER.SOLV>
19.7951

>  <SCORE.INTER.VDW>
-16.3959

>  <SCORE.INTER.norm>
-0.140302

>  <SCORE.INTRA>
1.91574

>  <SCORE.INTRA.DIHEDRAL>
-0.0791474

>  <SCORE.INTRA.DIHEDRAL.0>
23.9727

>  <SCORE.INTRA.POLAR>
0

>  <SCORE.INTRA.POLAR.0>
0

>  <SCORE.INTRA.REPUL>
0

>  <SCORE.INTRA.REPUL.0>
0

>  <SCORE.INTRA.SOLV>
-1.8788

>  <SCORE.INTRA.SOLV.lig_0>
-115.028

>  <SCORE.INTRA.VDW>
2.89471

>  <SCORE.INTRA.VDW.0>
-6.82393

>  <SCORE.INTRA.norm>
0.0368411

>  <SCORE.RESTR>
0.0389861

>  <SCORE.RESTR.CAVITY>
0.0389861

>  <SCORE.RESTR.norm>
0.000749733

>  <SCORE.SYSTEM>
0

>  <SCORE.SYSTEM.CONST>
0

>  <SCORE.SYSTEM.DIHEDRAL>
0

>  <SCORE.SYSTEM.SOLV>
0

>  <SCORE.SYSTEM.norm>
0

>  <SCORE.heavy>
52

>  <SCORE.norm>
-0.102711

>  <RMSD>
4.801

$$$$
2fd0_lig
 OpenBabel11021811433D
libRbt.so/2013.1/901 2013/11/27
 52 56  0  0  0  0  0  0  0  0999 V2000
    4.9709  -46.4898   12.7636 C   0  0  2  0  0  0  0  0  0  0  0  0
    5.1246  -47.0579   11.4557 O   0  0  0  0  0  0  0  0  0  0  0  0
    1.1056  -46.9979    9.8014 C   0  0  2  0  0  0  0  0  0  0  0  0
   -0.0470  -47.2519    8.9215 N   0  0  0  0  0  0  0  0  0  0  0  0
    3.6512  -50.4437   11.0496 C   0  0  1  0  0  0  0  0  0  0  0  0
    1.5044  -53.9934    9.6081 C   0  0  1  0  0  0  0  0  0  0  0  0
   -2.1590  -54.7548    6.0911 C   0  0  1  0  0  0  0  0  0  0  0  0
    6.3764  -45.9902   13.2600 C   0  0  2  0  0  0  0  0  0  0  0  0
    6.9694  -45.0334   12.3362 N   0  0  0  0  0  0  0  0  0  0  0  0
    2.2918  -46.3286    8.9780 C   0  0  0  0  0  0  0  0  0  0  0  0
    2.3807  -51.2740   11.0488 C   0  0  2  0  0  0  0  0  0  0  0  0
    2.4079  -52.3246   12.0556 O   0  0  0  0  0  0  0  0  0  0  0  0
    1.3705  -54.7667    8.2140 C   0  0  2  0  0  0  0  0  0  0  0  0
    1.2723  -53.7986    7.0877 N   0  0  0  0  0  0  0  0  0  0  0  0
   -1.7299  -53.4894    5.3148 C   0  0  1  0  0  0  0  0  0  0  0  0
   -0.2963  -53.5266    5.1068 O   0  0  0  0  0  0  0  0  0  0  0  0
    7.3345  -47.2129   13.5123 C   0  0  0  0  0  0  0  0  0  0  0  0
    3.5415  -46.0429    9.9404 C   0  0  2  0  0  0  0  0  0  0  0  0
    4.6538  -45.4261    9.2027 N   0  0  0  0  0  0  0  0  0  0  0  0
    2.2772  -51.7356    9.6049 C   0  0  2  0  0  0  0  0  0  0  0  0
    2.5720  -53.1003    9.4802 O   0  0  0  0  0  0  0  0  0  0  0  0
    0.1363  -55.8003    8.3530 C   0  0  1  0  0  0  0  0  0  0  0  0
    0.4025  -56.6615    9.4748 O   0  0  0  0  0  0  0  0  0  0  0  0
   -2.4094  -53.2267    3.9436 C   0  0  1  0  0  0  0  0  0  0  0  0
   -1.5837  -53.8036    2.9240 O   0  0  0  0  0  0  0  0  0  0  0  0
    6.6397  -48.1895   14.5163 C   0  0  2  0  0  0  0  0  0  0  0  0
    7.4847  -49.3037   14.7858 O   0  0  0  0  0  0  0  0  0  0  0  0
    4.0036  -47.3793   10.5854 C   0  0  2  0  0  0  0  0  0  0  0  0
    3.3599  -51.0072    8.7732 C   0  0  2  0  0  0  0  0  0  0  0  0
    3.8825  -50.0690    9.7028 O   0  0  0  0  0  0  0  0  0  0  0  0
   -1.2529  -55.0394    8.6776 C   0  0  2  0  0  0  0  0  0  0  0  0
   -1.4861  -54.2067    7.5261 O   0  0  0  0  0  0  0  0  0  0  0  0
   -3.8490  -53.7676    3.7834 C   0  0  2  0  0  0  0  0  0  0  0  0
   -4.5779  -52.7385    3.0791 O   0  0  0  0  0  0  0  0  0  0  0  0
    5.2924  -48.6798   13.9128 C   0  0  2  0  0  0  0  0  0  0  0  0
    4.4400  -47.4962   13.6639 O   0  0  0  0  0  0  0  0  0  0  0  0
    2.8594  -48.1046   11.3572 C   0  0  2  0  0  0  0  0  0  0  0  0
    3.3986  -49.3468   11.8693 O   0  0  0  0  0  0  0  0  0  0  0  0
    2.8390  -50.2422    7.5616 C   0  0  0  0  0  0  0  0  0  0  0  0
    3.9692  -49.6010    6.9511 O   0  0  0  0  0  0  0  0  0  0  0  0
   -0.9615  -54.1461    9.8686 C   0  0  1  0  0  0  0  0  0  0  0  0
    0.1906  -53.2853    9.9863 O   0  0  0  0  0  0  0  0  0  0  0  0
   -4.4539  -54.1259    5.1381 C   0  0  2  0  0  0  0  0  0  0  0  0
   -3.6271  -54.9911    5.9648 O   0  0  0  0  0  0  0  0  0  0  0  0
    4.5586  -49.5927   14.8430 C   0  0  0  0  0  0  0  0  0  0  0  0
    5.1301  -50.8688   14.7391 O   0  0  0  0  0  0  0  0  0  0  0  0
    1.6396  -48.3615   10.3987 C   0  0  1  0  0  0  0  0  0  0  0  0
    0.5638  -48.9978   11.1716 O   0  0  0  0  0  0  0  0  0  0  0  0
   -2.1946  -53.2804   10.3095 C   0  0  0  0  0  0  0  0  0  0  0  0
   -2.5907  -52.2577    9.3113 N   0  0  0  0  0  0  0  0  0  0  0  0
   -5.8653  -54.6940    5.2688 C   0  0  0  0  0  0  0  0  0  0  0  0
   -6.8545  -53.6924    4.8778 O   0  0  0  0  0  0  0  0  0  0  0  0
  1  2  1  6  0  0  0
  1  8  1  0  0  0  0
  1 36  1  0  0  0  0
  3  4  1  6  0  0  0
  3 10  1  0  0  0  0
  3 47  1  0  0  0  0
  5 11  1  0  0  0  0
  5 30  1  0  0  0  0
  5 38  1  1  0  0  0
  6 21  1  6  0  0  0
  6 42  1  0  0  0  0
  7 15  1  0  0  0  0
  7 44  1  0  0  0  0
  7 32  1  1  0  0  0
  8  9  1  6  0  0  0
  8 17  1  0  0  0  0
 11 12  1  1  0  0  0
 11 20  1  0  0  0  0
 13  6  1  0  0  0  0
 13 14  1  6  0  0  0
 15 16  1  6  0  0  0
 15 24  1  0  0  0  0
 17 26  1  0  0  0  0
 18 10  1  0  0  0  0
 18 19  1  6  0  0  0
 20 21  1  1  0  0  0
 20 29  1  0  0  0  0
 22 13  1  0  0  0  0
 22 23  1  1  0  0  0
 24 25  1  6  0  0  0
 24 33  1  0  0  0  0
 26 27  1  6  0  0  0
 26 35  1  0  0  0  0
 28  2  1  1  0  0  0
 28 18  1  0  0  0  0
 29 30  1  0  0  0  0
 29 39  1  6  0  0  0
 31 22  1  0  0  0  0
 31 32  1  6  0  0  0
 31 41  1  0  0  0  0
 33 34  1  1  0  0  0
 33 43  1  0  0  0  0
 35 36  1  0  0  0  0
 35 45  1  1  0  0  0
 37 28  1  0  0  0  0
 37 38  1  6  0  0  0
 39 40  1  0  0  0  0
 41 42  1  0  0  0  0
 41 49  1  6  0  0  0
 43 44  1  0  0  0  0
 43 51  1  6  0  0  0
 45 46  1  0  0  0  0
 47 37  1  0  0  0  0
 47 48  1  1  0  0  0
 49 50  1  0  0  0  0
 51 52  1  0  0  0  0
M  END
>  <CHROM.1>
-167.48314110,-90.55610856,117.81810934,-165.73700958,89.53218853,79.02997577
177.98035346,81.29991808,-79.95294064,-74.22244228,-66.78730506,-66.71873125
1.42138002,-50.99609004,9.37634604,0.24482523,-0.83145602,-0.42342195

>  <Name>
2fd0_lig

>  <RI>
0

>  <Rbt.Current_Directory>
/home/itssahil/PROJECTS/Mol_Feturizer/New_Systems/rnas/2fd0

>  <Rbt.Executable>
rbdock ($Id: //depot/dev/client3/rdock/2013.1/src/exe/rbdock.cxx#4 $)

>  <Rbt.Library>
libRbt.so (2013.1, Build901 2013/11/27)

>  <Rbt.Parameter_File>
/export/apps/rDock/src/rDock_2013.1_src/data/scripts/dock_solv.prm

>  <Rbt.Receptor>
prm/pocket_docking_6.prm

>  <SCORE>
-24.5796

>  <SCORE.INTER>
-26.4541

>  <SCORE.INTER.CONST>
1

>  <SCORE.INTER.POLAR>
-3.95825

>  <SCORE.INTER.ROT>
12

>  <SCORE.INTER.SOLV>
18.3962

>  <SCORE.INTER.VDW>
-22.174

>  <SCORE.INTER.norm>
-0.508732

>  <SCORE.INTRA>
1.87446

>  <SCORE.INTRA.DIHEDRAL>
-0.192199

>  <SCORE.INTRA.DIHEDRAL.0>
23.9727

>  <SCORE.INTRA.POLAR>
0

>  <SCORE.INTRA.POLAR.0>
0

>  <SCORE.INTRA.REPUL>
0.00159002

>  <SCORE.INTRA.REPUL.0>
0

>  <SCORE.INTRA.SOLV>
2.19529

>  <SCORE.INTRA.SOLV.lig_0>
-115.028

>  <SCORE.INTRA.VDW>
0.864964

>  <SCORE.INTRA.VDW.0>
-6.82393

>  <SCORE.INTRA.norm>
0.0360473

>  <SCORE.RESTR>
0

>  <SCORE.RESTR.CAVITY>
0

>  <SCORE.RESTR.norm>
0

>  <SCORE.SYSTEM>
0

>  <SCORE.SYSTEM.CONST>
0

>  <SCORE.SYSTEM.DIHEDRAL>
0

>  <SCORE.SYSTEM.SOLV>
0

>  <SCORE.SYSTEM.norm>
0

>  <SCORE.heavy>
52

>  <SCORE.norm>
-0.472685

>  <RMSD>
4.820

$$$$
2fd0_lig
 OpenBabel11021811433D
libRbt.so/2013.1/901 2013/11/27
 52 56  0  0  0  0  0  0  0  0999 V2000
    4.7094  -46.0816   10.2686 C   0  0  2  0  0  0  0  0  0  0  0  0
    4.6879  -47.3243   10.9841 O   0  0  0  0  0  0  0  0  0  0  0  0
    7.0823  -48.7651   14.3133 C   0  0  2  0  0  0  0  0  0  0  0  0
    7.6492  -48.9188   15.6631 N   0  0  0  0  0  0  0  0  0  0  0  0
    2.7167  -49.1757   11.7610 C   0  0  1  0  0  0  0  0  0  0  0  0
    1.7746  -51.8638    8.1757 C   0  0  1  0  0  0  0  0  0  0  0  0
   -2.6481  -53.1128    6.4345 C   0  0  1  0  0  0  0  0  0  0  0  0
    3.7463  -45.0713   10.9920 C   0  0  2  0  0  0  0  0  0  0  0  0
    4.1097  -44.8813   12.3894 N   0  0  0  0  0  0  0  0  0  0  0  0
    7.3011  -47.2787   13.7884 C   0  0  0  0  0  0  0  0  0  0  0  0
    3.2940  -50.3265   10.9573 C   0  0  2  0  0  0  0  0  0  0  0  0
    4.2898  -49.8814    9.9938 O   0  0  0  0  0  0  0  0  0  0  0  0
    1.5104  -51.3139    6.6968 C   0  0  2  0  0  0  0  0  0  0  0  0
    0.3877  -50.3368    6.6962 N   0  0  0  0  0  0  0  0  0  0  0  0
   -3.1625  -52.8558    5.0003 C   0  0  1  0  0  0  0  0  0  0  0  0
   -2.6642  -53.8986    4.1261 O   0  0  0  0  0  0  0  0  0  0  0  0
    2.2512  -45.5407   10.8473 C   0  0  0  0  0  0  0  0  0  0  0  0
    6.6930  -47.1168   12.3142 C   0  0  2  0  0  0  0  0  0  0  0  0
    6.8800  -45.7497   11.8063 N   0  0  0  0  0  0  0  0  0  0  0  0
    2.0564  -50.9919   10.3793 C   0  0  2  0  0  0  0  0  0  0  0  0
    1.9388  -50.7496    9.0037 O   0  0  0  0  0  0  0  0  0  0  0  0
    1.3172  -52.5966    5.7333 C   0  0  1  0  0  0  0  0  0  0  0  0
    2.4921  -53.4196    5.8487 O   0  0  0  0  0  0  0  0  0  0  0  0
   -4.6987  -52.7515    4.7993 C   0  0  1  0  0  0  0  0  0  0  0  0
   -5.1878  -54.0531    4.4517 O   0  0  0  0  0  0  0  0  0  0  0  0
    1.9301  -45.7144    9.3270 C   0  0  2  0  0  0  0  0  0  0  0  0
    0.5769  -46.1220    9.1518 O   0  0  0  0  0  0  0  0  0  0  0  0
    5.1806  -47.4735   12.3450 C   0  0  2  0  0  0  0  0  0  0  0  0
    0.8031  -50.3448   11.0156 C   0  0  2  0  0  0  0  0  0  0  0  0
    1.3637  -49.5091   12.0180 O   0  0  0  0  0  0  0  0  0  0  0  0
    0.0674  -53.5131    6.1939 C   0  0  2  0  0  0  0  0  0  0  0  0
   -1.0815  -52.6576    6.0460 O   0  0  0  0  0  0  0  0  0  0  0  0
   -5.5078  -52.2216    6.0056 C   0  0  2  0  0  0  0  0  0  0  0  0
   -6.5019  -51.3329    5.4504 O   0  0  0  0  0  0  0  0  0  0  0  0
    2.8871  -46.7765    8.7141 C   0  0  2  0  0  0  0  0  0  0  0  0
    4.2781  -46.3080    8.9018 O   0  0  0  0  0  0  0  0  0  0  0  0
    4.9086  -48.9021   12.9071 C   0  0  2  0  0  0  0  0  0  0  0  0
    3.4741  -49.0967   12.9268 O   0  0  0  0  0  0  0  0  0  0  0  0
   -0.1581  -51.3196   11.6868 C   0  0  0  0  0  0  0  0  0  0  0  0
   -1.2890  -50.5557   12.1325 O   0  0  0  0  0  0  0  0  0  0  0  0
    0.2810  -53.7838    7.6712 C   0  0  1  0  0  0  0  0  0  0  0  0
    0.6307  -52.7802    8.6472 O   0  0  0  0  0  0  0  0  0  0  0  0
   -4.5930  -51.5522    7.0277 C   0  0  2  0  0  0  0  0  0  0  0  0
   -3.4494  -52.3518    7.4376 O   0  0  0  0  0  0  0  0  0  0  0  0
    2.6546  -46.9640    7.2485 C   0  0  0  0  0  0  0  0  0  0  0  0
    3.1736  -48.2142    6.8833 O   0  0  0  0  0  0  0  0  0  0  0  0
    5.5257  -49.0430   14.3466 C   0  0  1  0  0  0  0  0  0  0  0  0
    5.2957  -50.4145   14.8215 O   0  0  0  0  0  0  0  0  0  0  0  0
   -0.8702  -54.6328    8.3178 C   0  0  0  0  0  0  0  0  0  0  0  0
   -0.6199  -54.9929    9.7345 N   0  0  0  0  0  0  0  0  0  0  0  0
   -5.1322  -50.9496    8.3231 C   0  0  0  0  0  0  0  0  0  0  0  0
   -4.0555  -50.3031    9.0696 O   0  0  0  0  0  0  0  0  0  0  0  0
  1  2  1  1  0  0  0
  1  8  1  0  0  0  0
  1 36  1  0  0  0  0
  3  4  1  1  0  0  0
  3 10  1  0  0  0  0
  3 47  1  0  0  0  0
  5 11  1  0  0  0  0
  5 30  1  0  0  0  0
  5 38  1  1  0  0  0
  6 21  1  1  0  0  0
  6 42  1  0  0  0  0
  7 15  1  0  0  0  0
  7 44  1  0  0  0  0
  7 32  1  6  0  0  0
  8  9  1  1  0  0  0
  8 17  1  0  0  0  0
 11 12  1  6  0  0  0
 11 20  1  0  0  0  0
 13  6  1  0  0  0  0
 13 14  1  1  0  0  0
 15 16  1  6  0  0  0
 15 24  1  0  0  0  0
 17 26  1  0  0  0  0
 18 10  1  0  0  0  0
 18 19  1  1  0  0  0
 20 21  1  6  0  0  0
 20 29  1  0  0  0  0
 22 13  1  0  0  0  0
 22 23  1  1  0  0  0
 24 25  1  1  0  0  0
 24 33  1  0  0  0  0
 26 27  1  1  0  0  0
 26 35  1  0  0  0  0
 28  2  1  6  0  0  0
 28 18  1  0  0  0  0
 29 30  1  0  0  0  0
 29 39  1  1  0  0  0
 31 22  1  0  0  0  0
 31 32  1  1  0  0  0
 31 41  1  0  0  0  0
 33 34  1  6  0  0  0
 33 43  1  0  0  0  0
 35 36  1  0  0  0  0
 35 45  1  6  0  0  0
 37 28  1  0  0  0  0
 37 38  1  1  0  0  0
 39 40  1  0  0  0  0
 41 42  1  0  0  0  0
 41 49  1  1  0  0  0
 43 44  1  0  0  0  0
 43 51  1  1  0  0  0
 45 46  1  0  0  0  0
 47 37  1  0  0  0  0
 47 48  1  6  0  0  0
 49 50  1  0  0  0  0
 51 52  1  0  0  0  0
M  END
>  <CHROM.1>
-65.19244847,57.84041274,174.07289005,-121.41898151,127.43199105,-61.49944424
-176.17687652,-178.26820500,-159.04990774,66.90484335,175.48980506,-176.38295102
1.26373299,-50.05783887,9.35412931,0.31666397,-0.70942234,-0.23128603

>  <Name>
2fd0_lig

>  <RI>
2.00683e+07

>  <Rbt.Current_Directory>
/home/itssahil/PROJECTS/Mol_Feturizer/New_Systems/rnas/2fd0

>  <Rbt.Executable>
rbdock ($Id: //depot/dev/client3/rdock/2013.1/src/exe/rbdock.cxx#4 $)

>  <Rbt.Library>
libRbt.so (2013.1, Build901 2013/11/27)

>  <Rbt.Parameter_File>
/export/apps/rDock/src/rDock_2013.1_src/data/scripts/dock_solv.prm

>  <Rbt.Receptor>
prm/pocket_docking_4.prm

>  <SCORE>
-15.2198

>  <SCORE.INTER>
-14.328

>  <SCORE.INTER.CONST>
1

>  <SCORE.INTER.POLAR>
-1.86341

>  <SCORE.INTER.ROT>
12

>  <SCORE.INTER.SOLV>
13.2654

>  <SCORE.INTER.VDW>
-19.3624

>  <SCORE.INTER.norm>
-0.275538

>  <SCORE.INTRA>
-0.891773

>  <SCORE.INTRA.DIHEDRAL>
-6.03454

>  <SCORE.INTRA.DIHEDRAL.0>
23.9727

>  <SCORE.INTRA.POLAR>
0

>  <SCORE.INTRA.POLAR.0>
0

>  <SCORE.INTRA.REPUL>
0

>  <SCORE.INTRA.REPUL.0>
0

>  <SCORE.INTRA.SOLV>
2.04645

>  <SCORE.INTRA.SOLV.lig_0>
-115.028

>  <SCORE.INTRA.VDW>
1.10227

>  <SCORE.INTRA.VDW.0>
-6.82393

>  <SCORE.INTRA.norm>
-0.0171495

>  <SCORE.RESTR>
0

>  <SCORE.RESTR.CAVITY>
0

>  <SCORE.RESTR.norm>
0

>  <SCORE.SYSTEM>
0

>  <SCORE.SYSTEM.CONST>
0

>  <SCORE.SYSTEM.DIHEDRAL>
0

>  <SCORE.SYSTEM.SOLV>
0

>  <SCORE.SYSTEM.norm>
0

>  <SCORE.heavy>
52

>  <SCORE.norm>
-0.292688

>  <RMSD>
4.851

$$$$
2fd0_lig
 OpenBabel11021811433D
libRbt.so/2013.1/901 2013/11/27
 52 56  0  0  0  0  0  0  0  0999 V2000
    7.1595  -45.2188   13.5747 C   0  0  2  0  0  0  0  0  0  0  0  0
    6.8240  -46.5681   13.2229 O   0  0  0  0  0  0  0  0  0  0  0  0
    5.7078  -50.2208   15.2977 C   0  0  2  0  0  0  0  0  0  0  0  0
    5.0324  -51.1596   16.2086 N   0  0  0  0  0  0  0  0  0  0  0  0
    3.5683  -48.6883   11.5905 C   0  0  1  0  0  0  0  0  0  0  0  0
    0.2753  -48.8983    8.5021 C   0  0  1  0  0  0  0  0  0  0  0  0
   -2.9289  -52.4106    7.1346 C   0  0  1  0  0  0  0  0  0  0  0  0
    5.8279  -44.4213   13.8243 C   0  0  2  0  0  0  0  0  0  0  0  0
    5.0064  -45.0452   14.8522 N   0  0  0  0  0  0  0  0  0  0  0  0
    6.3761  -49.0352   16.1227 C   0  0  0  0  0  0  0  0  0  0  0  0
    2.3288  -47.8354   11.3909 C   0  0  2  0  0  0  0  0  0  0  0  0
    1.2761  -48.1615   12.3415 O   0  0  0  0  0  0  0  0  0  0  0  0
   -1.2550  -49.3204    8.7003 C   0  0  2  0  0  0  0  0  0  0  0  0
   -1.3515  -50.5750    9.4951 N   0  0  0  0  0  0  0  0  0  0  0  0
   -3.0539  -52.8024    5.6451 C   0  0  1  0  0  0  0  0  0  0  0  0
   -2.1561  -53.9061    5.3703 O   0  0  0  0  0  0  0  0  0  0  0  0
    5.0307  -44.2515   12.4781 C   0  0  0  0  0  0  0  0  0  0  0  0
    7.1202  -48.0204   15.1297 C   0  0  2  0  0  0  0  0  0  0  0  0
    7.7448  -46.9126   15.8676 N   0  0  0  0  0  0  0  0  0  0  0  0
    1.9965  -48.0566    9.9249 C   0  0  2  0  0  0  0  0  0  0  0  0
    0.8570  -48.8586    9.7725 O   0  0  0  0  0  0  0  0  0  0  0  0
   -1.9344  -49.3707    7.2350 C   0  0  1  0  0  0  0  0  0  0  0  0
   -1.7596  -48.0815    6.6200 O   0  0  0  0  0  0  0  0  0  0  0  0
   -4.4646  -53.1868    5.1225 C   0  0  1  0  0  0  0  0  0  0  0  0
   -4.6023  -54.6094    5.2291 O   0  0  0  0  0  0  0  0  0  0  0  0
    5.9679  -43.5697   11.4285 C   0  0  2  0  0  0  0  0  0  0  0  0
    5.2760  -43.3810   10.1981 O   0  0  0  0  0  0  0  0  0  0  0  0
    6.0929  -47.4670   14.1031 C   0  0  2  0  0  0  0  0  0  0  0  0
    3.1483  -48.8567    9.2711 C   0  0  2  0  0  0  0  0  0  0  0  0
    4.1241  -48.8900   10.3027 O   0  0  0  0  0  0  0  0  0  0  0  0
   -1.2050  -50.4430    6.2694 C   0  0  2  0  0  0  0  0  0  0  0  0
   -1.4200  -51.7132    6.9130 O   0  0  0  0  0  0  0  0  0  0  0  0
   -5.6605  -52.5161    5.8372 C   0  0  2  0  0  0  0  0  0  0  0  0
   -6.5958  -52.1681    4.7929 O   0  0  0  0  0  0  0  0  0  0  0  0
    7.2227  -44.4602   11.1998 C   0  0  2  0  0  0  0  0  0  0  0  0
    7.9200  -44.6172   12.4954 O   0  0  0  0  0  0  0  0  0  0  0  0
    5.3671  -48.5946   13.3076 C   0  0  2  0  0  0  0  0  0  0  0  0
    4.4124  -47.9591   12.4240 O   0  0  0  0  0  0  0  0  0  0  0  0
    3.7724  -48.2050    8.0421 C   0  0  0  0  0  0  0  0  0  0  0  0
    2.6964  -47.8606    7.1563 O   0  0  0  0  0  0  0  0  0  0  0  0
    0.2742  -50.1126    6.3348 C   0  0  1  0  0  0  0  0  0  0  0  0
    1.0067  -49.8654    7.5532 O   0  0  0  0  0  0  0  0  0  0  0  0
   -5.2020  -51.3214    6.6691 C   0  0  2  0  0  0  0  0  0  0  0  0
   -4.1000  -51.5983    7.5771 O   0  0  0  0  0  0  0  0  0  0  0  0
    8.1800  -43.8444   10.2294 C   0  0  0  0  0  0  0  0  0  0  0  0
    8.5279  -42.5741   10.7100 O   0  0  0  0  0  0  0  0  0  0  0  0
    4.6570  -49.5854   14.3010 C   0  0  1  0  0  0  0  0  0  0  0  0
    4.0294  -50.6604   13.5199 O   0  0  0  0  0  0  0  0  0  0  0  0
    1.1644  -51.0877    5.4857 C   0  0  0  0  0  0  0  0  0  0  0  0
    0.8535  -51.0663    4.0357 N   0  0  0  0  0  0  0  0  0  0  0  0
   -6.1809  -50.4828    7.4880 C   0  0  0  0  0  0  0  0  0  0  0  0
   -7.0970  -49.7646    6.6051 O   0  0  0  0  0  0  0  0  0  0  0  0
  1  2  1  6  0  0  0
  1  8  1  0  0  0  0
  1 36  1  0  0  0  0
  3  4  1  1  0  0  0
  3 10  1  0  0  0  0
  3 47  1  0  0  0  0
  5 11  1  0  0  0  0
  5 30  1  0  0  0  0
  5 38  1  1  0  0  0
  6 21  1  1  0  0  0
  6 42  1  0  0  0  0
  7 15  1  0  0  0  0
  7 44  1  0  0  0  0
  7 32  1  6  0  0  0
  8  9  1  1  0  0  0
  8 17  1  0  0  0  0
 11 12  1  1  0  0  0
 11 20  1  0  0  0  0
 13  6  1  0  0  0  0
 13 14  1  6  0  0  0
 15 16  1  1  0  0  0
 15 24  1  0  0  0  0
 17 26  1  0  0  0  0
 18 10  1  0  0  0  0
 18 19  1  1  0  0  0
 20 21  1  1  0  0  0
 20 29  1  0  0  0  0
 22 13  1  0  0  0  0
 22 23  1  6  0  0  0
 24 25  1  1  0  0  0
 24 33  1  0  0  0  0
 26 27  1  6  0  0  0
 26 35  1  0  0  0  0
 28  2  1  6  0  0  0
 28 18  1  0  0  0  0
 29 30  1  0  0  0  0
 29 39  1  6  0  0  0
 31 22  1  0  0  0  0
 31 32  1  1  0  0  0
 31 41  1  0  0  0  0
 33 34  1  6  0  0  0
 33 43  1  0  0  0  0
 35 36  1  0  0  0  0
 35 45  1  6  0  0  0
 37 28  1  0  0  0  0
 37 38  1  6  0  0  0
 39 40  1  0  0  0  0
 41 42  1  0  0  0  0
 41 49  1  1  0  0  0
 43 44  1  0  0  0  0
 43 51  1  1  0  0  0
 45 46  1  0  0  0  0
 47 37  1  0  0  0  0
 47 48  1  6  0  0  0
 49 50  1  0  0  0  0
 51 52  1  0  0  0  0
M  END
>  <CHROM.1>
-61.04572128,151.96044392,-156.62588327,74.32016311,166.37826782,-79.92498889
-50.93416911,64.16301810,56.58635819,-178.37233824,61.51260672,-66.49684523
1.80794875,-48.81633883,9.85513368,-0.16291543,-0.70984739,-0.90785133

>  <Name>
2fd0_lig

>  <RI>
1.29864e+07

>  <Rbt.Current_Directory>
/home/itssahil/PROJECTS/Mol_Feturizer/New_Systems/rnas/2fd0

>  <Rbt.Executable>
rbdock ($Id: //depot/dev/client3/rdock/2013.1/src/exe/rbdock.cxx#4 $)

>  <Rbt.Library>
libRbt.so (2013.1, Build901 2013/11/27)

>  <Rbt.Parameter_File>
/export/apps/rDock/src/rDock_2013.1_src/data/scripts/dock_solv.prm

>  <Rbt.Receptor>
prm/pocket_docking_3.prm

>  <SCORE>
-13.2075

>  <SCORE.INTER>
-9.24385

>  <SCORE.INTER.CONST>
1

>  <SCORE.INTER.POLAR>
-1.7952

>  <SCORE.INTER.ROT>
12

>  <SCORE.INTER.SOLV>
22.2775

>  <SCORE.INTER.VDW>
-19.2044

>  <SCORE.INTER.norm>
-0.177766

>  <SCORE.INTRA>
-4.23696

>  <SCORE.INTRA.DIHEDRAL>
-12.5946

>  <SCORE.INTRA.DIHEDRAL.0>
23.9727

>  <SCORE.INTRA.POLAR>
0

>  <SCORE.INTRA.POLAR.0>
0

>  <SCORE.INTRA.REPUL>
0

>  <SCORE.INTRA.REPUL.0>
0

>  <SCORE.INTRA.SOLV>
1.08339

>  <SCORE.INTRA.SOLV.lig_0>
-115.028

>  <SCORE.INTRA.VDW>
1.51866

>  <SCORE.INTRA.VDW.0>
-6.82393

>  <SCORE.INTRA.norm>
-0.0814799

>  <SCORE.RESTR>
0.273285

>  <SCORE.RESTR.CAVITY>
0.273285

>  <SCORE.RESTR.norm>
0.00525549

>  <SCORE.SYSTEM>
0

>  <SCORE.SYSTEM.CONST>
0

>  <SCORE.SYSTEM.DIHEDRAL>
0

>  <SCORE.SYSTEM.SOLV>
0

>  <SCORE.SYSTEM.norm>
0

>  <SCORE.heavy>
52

>  <SCORE.norm>
-0.253991

>  <RMSD>
4.860

$$$$
2fd0_lig
 OpenBabel11021811433D
libRbt.so/2013.1/901 2013/11/27
 52 56  0  0  0  0  0  0  0  0999 V2000
    4.7176  -46.5957   10.5194 C   0  0  2  0  0  0  0  0  0  0  0  0
    4.8966  -47.7842   11.3019 O   0  0  0  0  0  0  0  0  0  0  0  0
    7.1582  -48.7791   14.8779 C   0  0  2  0  0  0  0  0  0  0  0  0
    7.6594  -48.7684   16.2620 N   0  0  0  0  0  0  0  0  0  0  0  0
    2.9365  -49.5722   12.1766 C   0  0  1  0  0  0  0  0  0  0  0  0
    1.4357  -52.2269    8.8495 C   0  0  1  0  0  0  0  0  0  0  0  0
   -2.2514  -50.4984    5.9100 C   0  0  1  0  0  0  0  0  0  0  0  0
    3.5087  -45.7841   11.1122 C   0  0  2  0  0  0  0  0  0  0  0  0
    3.7079  -45.4640   12.5188 N   0  0  0  0  0  0  0  0  0  0  0  0
    7.3605  -47.3504   14.2064 C   0  0  0  0  0  0  0  0  0  0  0  0
    3.5750  -50.7697   11.4970 C   0  0  2  0  0  0  0  0  0  0  0  0
    4.6051  -50.3796   10.5457 O   0  0  0  0  0  0  0  0  0  0  0  0
    1.8080  -52.1486    7.2956 C   0  0  2  0  0  0  0  0  0  0  0  0
    1.8325  -50.7333    6.8356 N   0  0  0  0  0  0  0  0  0  0  0  0
   -2.5599  -51.1873    4.5617 C   0  0  1  0  0  0  0  0  0  0  0  0
   -2.9671  -52.5551    4.8126 O   0  0  0  0  0  0  0  0  0  0  0  0
    2.1614  -46.5657   10.8874 C   0  0  0  0  0  0  0  0  0  0  0  0
    6.8242  -47.3675   12.6959 C   0  0  2  0  0  0  0  0  0  0  0  0
    6.9973  -46.0568   12.0527 N   0  0  0  0  0  0  0  0  0  0  0  0
    2.3802  -51.5106   10.9207 C   0  0  2  0  0  0  0  0  0  0  0  0
    2.3219  -51.3838    9.5260 O   0  0  0  0  0  0  0  0  0  0  0  0
    0.7859  -53.1195    6.5059 C   0  0  1  0  0  0  0  0  0  0  0  0
    0.9029  -54.4390    7.0682 O   0  0  0  0  0  0  0  0  0  0  0  0
   -3.6275  -50.5261    3.6484 C   0  0  1  0  0  0  0  0  0  0  0  0
   -4.8935  -51.1320    3.9392 O   0  0  0  0  0  0  0  0  0  0  0  0
    2.0103  -46.8660    9.3604 C   0  0  2  0  0  0  0  0  0  0  0  0
    0.7909  -47.5585    9.1120 O   0  0  0  0  0  0  0  0  0  0  0  0
    5.3231  -47.7705   12.6929 C   0  0  2  0  0  0  0  0  0  0  0  0
    1.0850  -50.8454   11.4448 C   0  0  2  0  0  0  0  0  0  0  0  0
    1.5803  -49.9173   12.3992 O   0  0  0  0  0  0  0  0  0  0  0  0
   -0.7531  -52.6680    6.7101 C   0  0  2  0  0  0  0  0  0  0  0  0
   -0.8258  -51.3564    6.1199 O   0  0  0  0  0  0  0  0  0  0  0  0
   -3.7706  -48.9915    3.7706 C   0  0  2  0  0  0  0  0  0  0  0  0
   -3.9363  -48.5049    2.4207 O   0  0  0  0  0  0  0  0  0  0  0  0
    3.2150  -47.7250    8.8802 C   0  0  2  0  0  0  0  0  0  0  0  0
    4.4573  -46.9645    9.1404 O   0  0  0  0  0  0  0  0  0  0  0  0
    5.0641  -49.1396   13.3927 C   0  0  2  0  0  0  0  0  0  0  0  0
    3.6367  -49.3799   13.3647 O   0  0  0  0  0  0  0  0  0  0  0  0
    0.1145  -51.7862   12.1502 C   0  0  0  0  0  0  0  0  0  0  0  0
    0.0034  -52.9636   11.3363 O   0  0  0  0  0  0  0  0  0  0  0  0
   -0.9448  -52.5344    8.2090 C   0  0  1  0  0  0  0  0  0  0  0  0
   -0.0362  -51.8472    9.0945 O   0  0  0  0  0  0  0  0  0  0  0  0
   -2.5718  -48.3852    4.4952 C   0  0  2  0  0  0  0  0  0  0  0  0
   -2.2471  -49.0130    5.7664 O   0  0  0  0  0  0  0  0  0  0  0  0
    3.1484  -48.0177    7.4149 C   0  0  0  0  0  0  0  0  0  0  0  0
    4.1298  -48.9741    7.1185 O   0  0  0  0  0  0  0  0  0  0  0  0
    5.6106  -49.1049   14.8667 C   0  0  1  0  0  0  0  0  0  0  0  0
    5.3964  -50.4250   15.4757 O   0  0  0  0  0  0  0  0  0  0  0  0
   -2.3846  -52.0528    8.6084 C   0  0  0  0  0  0  0  0  0  0  0  0
   -2.7388  -52.3432   10.0190 N   0  0  0  0  0  0  0  0  0  0  0  0
   -2.4615  -46.8855    4.7613 C   0  0  0  0  0  0  0  0  0  0  0  0
   -3.6086  -46.4214    5.5381 O   0  0  0  0  0  0  0  0  0  0  0  0
  1  2  1  1  0  0  0
  1  8  1  0  0  0  0
  1 36  1  0  0  0  0
  3  4  1  1  0  0  0
  3 10  1  0  0  0  0
  3 47  1  0  0  0  0
  5 11  1  0  0  0  0
  5 30  1  0  0  0  0
  5 38  1  1  0  0  0
  6 21  1  1  0  0  0
  6 42  1  0  0  0  0
  7 15  1  0  0  0  0
  7 44  1  0  0  0  0
  7 32  1  6  0  0  0
  8  9  1  1  0  0  0
  8 17  1  0  0  0  0
 11 12  1  6  0  0  0
 11 20  1  0  0  0  0
 13  6  1  0  0  0  0
 13 14  1  6  0  0  0
 15 16  1  1  0  0  0
 15 24  1  0  0  0  0
 17 26  1  0  0  0  0
 18 10  1  0  0  0  0
 18 19  1  1  0  0  0
 20 21  1  6  0  0  0
 20 29  1  0  0  0  0
 22 13  1  0  0  0  0
 22 23  1  1  0  0  0
 24 25  1  1  0  0  0
 24 33  1  0  0  0  0
 26 27  1  1  0  0  0
 26 35  1  0  0  0  0
 28  2  1  6  0  0  0
 28 18  1  0  0  0  0
 29 30  1  0  0  0  0
 29 39  1  1  0  0  0
 31 22  1  0  0  0  0
 31 32  1  6  0  0  0
 31 41  1  0  0  0  0
 33 34  1  6  0  0  0
 33 43  1  0  0  0  0
 35 36  1  0  0  0  0
 35 45  1  6  0  0  0
 37 28  1  0  0  0  0
 37 38  1  1  0  0  0
 39 40  1  0  0  0  0
 41 42  1  0  0  0  0
 41 49  1  6  0  0  0
 43 44  1  0  0  0  0
 43 51  1  1  0  0  0
 45 46  1  0  0  0  0
 47 37  1  0  0  0  0
 47 48  1  6  0  0  0
 49 50  1  0  0  0  0
 51 52  1  0  0  0  0
M  END
>  <CHROM.1>
-66.55449862,58.42516652,-166.42308554,-85.36949007,167.65316585,-71.67132182
-45.75553990,172.91179876,-169.98467089,65.10082710,160.71251668,57.93479993
1.50539099,-49.65412429,9.27475293,-0.14211639,-0.79074560,-0.45674498

>  <Name>
2fd0_lig

>  <RI>
1.29864e+07

>  <Rbt.Current_Directory>
/home/itssahil/PROJECTS/Mol_Feturizer/New_Systems/rnas/2fd0

>  <Rbt.Executable>
rbdock ($Id: //depot/dev/client3/rdock/2013.1/src/exe/rbdock.cxx#4 $)

>  <Rbt.Library>
libRbt.so (2013.1, Build901 2013/11/27)

>  <Rbt.Parameter_File>
/export/apps/rDock/src/rDock_2013.1_src/data/scripts/dock_solv.prm

>  <Rbt.Receptor>
prm/pocket_docking_3.prm

>  <SCORE>
-13.2384

>  <SCORE.INTER>
-9.56286

>  <SCORE.INTER.CONST>
1

>  <SCORE.INTER.POLAR>
-1.44053

>  <SCORE.INTER.ROT>
12

>  <SCORE.INTER.SOLV>
11.8801

>  <SCORE.INTER.VDW>
-17.1335

>  <SCORE.INTER.norm>
-0.183901

>  <SCORE.INTRA>
-3.93288

>  <SCORE.INTRA.DIHEDRAL>
-14.805

>  <SCORE.INTRA.DIHEDRAL.0>
23.9727

>  <SCORE.INTRA.POLAR>
0

>  <SCORE.INTRA.POLAR.0>
0

>  <SCORE.INTRA.REPUL>
0.00201608

>  <SCORE.INTRA.REPUL.0>
0

>  <SCORE.INTRA.SOLV>
5.59777

>  <SCORE.INTRA.SOLV.lig_0>
-115.028

>  <SCORE.INTRA.VDW>
0.660634

>  <SCORE.INTRA.VDW.0>
-6.82393

>  <SCORE.INTRA.norm>
-0.0756323

>  <SCORE.RESTR>
0.257357

>  <SCORE.RESTR.CAVITY>
0.257357

>  <SCORE.RESTR.norm>
0.00494917

>  <SCORE.SYSTEM>
0

>  <SCORE.SYSTEM.CONST>
0

>  <SCORE.SYSTEM.DIHEDRAL>
0

>  <SCORE.SYSTEM.SOLV>
0

>  <SCORE.SYSTEM.norm>
0

>  <SCORE.heavy>
52

>  <SCORE.norm>
-0.254584

>  <RMSD>
4.900

$$$$
2fd0_lig
 OpenBabel11021811433D
libRbt.so/2013.1/901 2013/11/27
 52 56  0  0  0  0  0  0  0  0999 V2000
    5.1689  -45.6548   12.4500 C   0  0  2  0  0  0  0  0  0  0  0  0
    6.1328  -46.6940   12.6692 O   0  0  0  0  0  0  0  0  0  0  0  0
    7.0033  -49.9965   15.3578 C   0  0  2  0  0  0  0  0  0  0  0  0
    7.1524  -50.7982   16.5833 N   0  0  0  0  0  0  0  0  0  0  0  0
    3.0859  -48.8440   12.7449 C   0  0  1  0  0  0  0  0  0  0  0  0
    0.1988  -51.9660   11.3314 C   0  0  1  0  0  0  0  0  0  0  0  0
   -1.8094  -52.6004    6.7089 C   0  0  1  0  0  0  0  0  0  0  0  0
    5.2584  -45.1986   10.9482 C   0  0  2  0  0  0  0  0  0  0  0  0
    5.0527  -46.3104   10.0303 N   0  0  0  0  0  0  0  0  0  0  0  0
    7.8712  -48.6663   15.4590 C   0  0  0  0  0  0  0  0  0  0  0  0
    3.0922  -50.3415   12.9918 C   0  0  2  0  0  0  0  0  0  0  0  0
    4.0672  -51.0332   12.1616 O   0  0  0  0  0  0  0  0  0  0  0  0
    0.3454  -52.9748   10.0983 C   0  0  2  0  0  0  0  0  0  0  0  0
    0.9966  -52.2970    8.9443 N   0  0  0  0  0  0  0  0  0  0  0  0
   -1.3661  -51.3212    5.9641 C   0  0  1  0  0  0  0  0  0  0  0  0
    0.0509  -51.1135    6.1849 O   0  0  0  0  0  0  0  0  0  0  0  0
    6.6298  -44.4766   10.6758 C   0  0  0  0  0  0  0  0  0  0  0  0
    7.7160  -47.8004   14.1191 C   0  0  2  0  0  0  0  0  0  0  0  0
    8.5070  -46.5629   14.1880 N   0  0  0  0  0  0  0  0  0  0  0  0
    1.6386  -50.7276   12.7765 C   0  0  2  0  0  0  0  0  0  0  0  0
    1.4672  -51.4326   11.5772 O   0  0  0  0  0  0  0  0  0  0  0  0
   -1.1181  -53.5943    9.8062 C   0  0  1  0  0  0  0  0  0  0  0  0
   -1.5866  -54.2162   11.0165 O   0  0  0  0  0  0  0  0  0  0  0  0
   -1.6306  -51.2556    4.4355 C   0  0  1  0  0  0  0  0  0  0  0  0
   -0.4563  -51.7288    3.7636 O   0  0  0  0  0  0  0  0  0  0  0  0
    6.7777  -43.2935   11.6873 C   0  0  2  0  0  0  0  0  0  0  0  0
    8.0014  -42.6010   11.4612 O   0  0  0  0  0  0  0  0  0  0  0  0
    6.2144  -47.4636   13.9013 C   0  0  2  0  0  0  0  0  0  0  0  0
    0.8020  -49.4361   12.6130 C   0  0  2  0  0  0  0  0  0  0  0  0
    1.7452  -48.4182   12.9157 O   0  0  0  0  0  0  0  0  0  0  0  0
   -2.1944  -52.4470    9.4329 C   0  0  2  0  0  0  0  0  0  0  0  0
   -1.6955  -51.8672    8.2129 O   0  0  0  0  0  0  0  0  0  0  0  0
   -2.8526  -52.0517    3.9221 C   0  0  2  0  0  0  0  0  0  0  0  0
   -3.4837  -51.2070    2.9349 O   0  0  0  0  0  0  0  0  0  0  0  0
    6.7429  -43.8476   13.1404 C   0  0  2  0  0  0  0  0  0  0  0  0
    5.4521  -44.5433   13.3386 O   0  0  0  0  0  0  0  0  0  0  0  0
    5.3117  -48.7339   13.8526 C   0  0  2  0  0  0  0  0  0  0  0  0
    3.9430  -48.2899   13.6922 O   0  0  0  0  0  0  0  0  0  0  0  0
   -0.3738  -49.3010   13.5742 C   0  0  0  0  0  0  0  0  0  0  0  0
    0.1750  -49.1696   14.8943 O   0  0  0  0  0  0  0  0  0  0  0  0
   -2.0893  -51.4125   10.5376 C   0  0  1  0  0  0  0  0  0  0  0  0
   -0.8493  -50.8754   11.0437 O   0  0  0  0  0  0  0  0  0  0  0  0
   -3.7763  -52.4407    5.0732 C   0  0  2  0  0  0  0  0  0  0  0  0
   -3.1155  -53.1005    6.1882 O   0  0  0  0  0  0  0  0  0  0  0  0
    6.8442  -42.7583   14.1603 C   0  0  0  0  0  0  0  0  0  0  0  0
    7.3444  -43.3178   15.3445 O   0  0  0  0  0  0  0  0  0  0  0  0
    5.4907  -49.5748   15.1692 C   0  0  1  0  0  0  0  0  0  0  0  0
    4.6666  -50.7871   15.0651 O   0  0  0  0  0  0  0  0  0  0  0  0
   -3.0388  -50.1806   10.3245 C   0  0  0  0  0  0  0  0  0  0  0  0
   -3.0071  -49.2051   11.4411 N   0  0  0  0  0  0  0  0  0  0  0  0
   -5.0557  -53.2433    4.8475 C   0  0  0  0  0  0  0  0  0  0  0  0
   -4.7605  -54.4770    4.1225 O   0  0  0  0  0  0  0  0  0  0  0  0
  1  2  1  6  0  0  0
  1  8  1  0  0  0  0
  1 36  1  0  0  0  0
  3  4  1  1  0  0  0
  3 10  1  0  0  0  0
  3 47  1  0  0  0  0
  5 11  1  0  0  0  0
  5 30  1  0  0  0  0
  5 38  1  1  0  0  0
  6 21  1  6  0  0  0
  6 42  1  0  0  0  0
  7 15  1  0  0  0  0
  7 44  1  0  0  0  0
  7 32  1  1  0  0  0
  8  9  1  6  0  0  0
  8 17  1  0  0  0  0
 11 12  1  6  0  0  0
 11 20  1  0  0  0  0
 13  6  1  0  0  0  0
 13 14  1  6  0  0  0
 15 16  1  6  0  0  0
 15 24  1  0  0  0  0
 17 26  1  0  0  0  0
 18 10  1  0  0  0  0
 18 19  1  1  0  0  0
 20 21  1  6  0  0  0
 20 29  1  0  0  0  0
 22 13  1  0  0  0  0
 22 23  1  1  0  0  0
 24 25  1  6  0  0  0
 24 33  1  0  0  0  0
 26 27  1  6  0  0  0
 26 35  1  0  0  0  0
 28  2  1  6  0  0  0
 28 18  1  0  0  0  0
 29 30  1  0  0  0  0
 29 39  1  1  0  0  0
 31 22  1  0  0  0  0
 31 32  1  6  0  0  0
 31 41  1  0  0  0  0
 33 34  1  6  0  0  0
 33 43  1  0  0  0  0
 35 36  1  0  0  0  0
 35 45  1  1  0  0  0
 37 28  1  0  0  0  0
 37 38  1  1  0  0  0
 39 40  1  0  0  0  0
 41 42  1  0  0  0  0
 41 49  1  6  0  0  0
 43 44  1  0  0  0  0
 43 51  1  6  0  0  0
 45 46  1  0  0  0  0
 47 37  1  0  0  0  0
 47 48  1  6  0  0  0
 49 50  1  0  0  0  0
 51 52  1  0  0  0  0
M  END
>  <CHROM.1>
-172.16937353,54.22768365,-167.67098180,169.21556354,173.49654537,-146.85152024
66.02970056,75.66795397,-156.30805711,132.16948392,176.33721408,54.17430361
2.02417146,-49.45981654,10.85901983,-0.22305354,-0.78855417,-1.00965435

>  <Name>
2fd0_lig

>  <RI>
0

>  <Rbt.Current_Directory>
/home/itssahil/PROJECTS/Mol_Feturizer/New_Systems/rnas/2fd0

>  <Rbt.Executable>
rbdock ($Id: //depot/dev/client3/rdock/2013.1/src/exe/rbdock.cxx#4 $)

>  <Rbt.Library>
libRbt.so (2013.1, Build901 2013/11/27)

>  <Rbt.Parameter_File>
/export/apps/rDock/src/rDock_2013.1_src/data/scripts/dock_solv.prm

>  <Rbt.Receptor>
prm/pocket_docking_5.prm

>  <SCORE>
-9.45375

>  <SCORE.INTER>
-8.45715

>  <SCORE.INTER.CONST>
1

>  <SCORE.INTER.POLAR>
-0.938074

>  <SCORE.INTER.ROT>
12

>  <SCORE.INTER.SOLV>
14.2817

>  <SCORE.INTER.VDW>
-18.8717

>  <SCORE.INTER.norm>
-0.162637

>  <SCORE.INTRA>
-0.996602

>  <SCORE.INTRA.DIHEDRAL>
-6.56432

>  <SCORE.INTRA.DIHEDRAL.0>
23.9727

>  <SCORE.INTRA.POLAR>
0

>  <SCORE.INTRA.POLAR.0>
0

>  <SCORE.INTRA.REPUL>
0

>  <SCORE.INTRA.REPUL.0>
0

>  <SCORE.INTRA.SOLV>
0.0134212

>  <SCORE.INTRA.SOLV.lig_0>
-115.028

>  <SCORE.INTRA.VDW>
2.27885

>  <SCORE.INTRA.VDW.0>
-6.82393

>  <SCORE.INTRA.norm>
-0.0191654

>  <SCORE.RESTR>
0

>  <SCORE.RESTR.CAVITY>
0

>  <SCORE.RESTR.norm>
0

>  <SCORE.SYSTEM>
0

>  <SCORE.SYSTEM.CONST>
0

>  <SCORE.SYSTEM.DIHEDRAL>
0

>  <SCORE.SYSTEM.SOLV>
0

>  <SCORE.SYSTEM.norm>
0

>  <SCORE.heavy>
52

>  <SCORE.norm>
-0.181803

>  <RMSD>
4.904

$$$$
2fd0_lig
 OpenBabel11021811433D
libRbt.so/2013.1/901 2013/11/27
 52 56  0  0  0  0  0  0  0  0999 V2000
    3.6565  -45.3901   14.2337 C   0  0  2  0  0  0  0  0  0  0  0  0
    2.7807  -46.4949   13.9703 O   0  0  0  0  0  0  0  0  0  0  0  0
    4.4626  -49.6908   16.3889 C   0  0  2  0  0  0  0  0  0  0  0  0
    4.6149  -50.9654   17.1095 N   0  0  0  0  0  0  0  0  0  0  0  0
    2.7059  -49.4985   12.2010 C   0  0  1  0  0  0  0  0  0  0  0  0
    0.4909  -49.6687    8.5981 C   0  0  1  0  0  0  0  0  0  0  0  0
   -4.1107  -49.1174    6.8384 C   0  0  1  0  0  0  0  0  0  0  0  0
    2.9476  -44.0674   13.7654 C   0  0  2  0  0  0  0  0  0  0  0  0
    1.6575  -43.8839   14.4156 N   0  0  0  0  0  0  0  0  0  0  0  0
    3.1891  -48.9017   16.9259 C   0  0  0  0  0  0  0  0  0  0  0  0
    2.5915  -49.1795   10.7216 C   0  0  2  0  0  0  0  0  0  0  0  0
    1.7380  -48.0278   10.4701 O   0  0  0  0  0  0  0  0  0  0  0  0
   -0.8614  -48.8728    8.9099 C   0  0  2  0  0  0  0  0  0  0  0  0
   -1.9298  -49.8114    9.3490 N   0  0  0  0  0  0  0  0  0  0  0  0
   -4.7284  -50.5301    6.9410 C   0  0  1  0  0  0  0  0  0  0  0  0
   -4.3457  -51.1219    8.2071 O   0  0  0  0  0  0  0  0  0  0  0  0
    2.8078  -44.0462   12.1981 C   0  0  0  0  0  0  0  0  0  0  0  0
    3.0317  -47.5093   16.1476 C   0  0  2  0  0  0  0  0  0  0  0  0
    1.8591  -46.7607   16.6237 N   0  0  0  0  0  0  0  0  0  0  0  0
    2.1274  -50.4974   10.1246 C   0  0  2  0  0  0  0  0  0  0  0  0
    0.7842  -50.4366    9.7287 O   0  0  0  0  0  0  0  0  0  0  0  0
   -1.2087  -47.9837    7.6061 C   0  0  1  0  0  0  0  0  0  0  0  0
   -0.0800  -47.1330    7.3353 O   0  0  0  0  0  0  0  0  0  0  0  0
   -6.2701  -50.6487    6.7998 C   0  0  1  0  0  0  0  0  0  0  0  0
   -6.8389  -50.5988    8.1144 O   0  0  0  0  0  0  0  0  0  0  0  0
    4.2268  -44.2384   11.5703 C   0  0  2  0  0  0  0  0  0  0  0  0
    4.1459  -44.2068   10.1488 O   0  0  0  0  0  0  0  0  0  0  0  0
    2.9049  -47.7889   14.6240 C   0  0  2  0  0  0  0  0  0  0  0  0
    2.1792  -51.5849   11.2242 C   0  0  2  0  0  0  0  0  0  0  0  0
    2.8187  -50.9078   12.2967 O   0  0  0  0  0  0  0  0  0  0  0  0
   -1.4191  -48.9002    6.2908 C   0  0  2  0  0  0  0  0  0  0  0  0
   -2.5632  -49.7181    6.5999 O   0  0  0  0  0  0  0  0  0  0  0  0
   -6.9565  -49.5788    5.9196 C   0  0  2  0  0  0  0  0  0  0  0  0
   -7.9549  -50.2854    5.1511 O   0  0  0  0  0  0  0  0  0  0  0  0
    4.8194  -45.5987   12.0373 C   0  0  2  0  0  0  0  0  0  0  0  0
    4.9018  -45.5837   13.5146 O   0  0  0  0  0  0  0  0  0  0  0  0
    4.1031  -48.6114   14.0594 C   0  0  2  0  0  0  0  0  0  0  0  0
    3.8483  -48.8432   12.6532 O   0  0  0  0  0  0  0  0  0  0  0  0
    3.0050  -52.8183   10.8759 C   0  0  0  0  0  0  0  0  0  0  0  0
    4.3850  -52.4232   10.9070 O   0  0  0  0  0  0  0  0  0  0  0  0
   -0.1944  -49.7921    6.2134 C   0  0  1  0  0  0  0  0  0  0  0  0
    0.3578  -50.5261    7.3263 O   0  0  0  0  0  0  0  0  0  0  0  0
   -5.9353  -48.8387    5.0599 C   0  0  2  0  0  0  0  0  0  0  0  0
   -4.7962  -48.3056    5.7904 O   0  0  0  0  0  0  0  0  0  0  0  0
    6.1957  -45.8274   11.4981 C   0  0  0  0  0  0  0  0  0  0  0  0
    6.6111  -47.1056   11.8972 O   0  0  0  0  0  0  0  0  0  0  0  0
    4.2477  -49.9651   14.8462 C   0  0  1  0  0  0  0  0  0  0  0  0
    5.4153  -50.6876   14.3226 O   0  0  0  0  0  0  0  0  0  0  0  0
   -0.2371  -50.7993    5.0100 C   0  0  0  0  0  0  0  0  0  0  0  0
    0.9103  -51.7385    4.9795 N   0  0  0  0  0  0  0  0  0  0  0  0
   -6.3427  -47.7208    4.1027 C   0  0  0  0  0  0  0  0  0  0  0  0
   -5.1936  -47.2834    3.3135 O   0  0  0  0  0  0  0  0  0  0  0  0
  1  2  1  6  0  0  0
  1  8  1  0  0  0  0
  1 36  1  0  0  0  0
  3  4  1  1  0  0  0
  3 10  1  0  0  0  0
  3 47  1  0  0  0  0
  5 11  1  0  0  0  0
  5 30  1  0  0  0  0
  5 38  1  6  0  0  0
  6 21  1  1  0  0  0
  6 42  1  0  0  0  0
  7 15  1  0  0  0  0
  7 44  1  0  0  0  0
  7 32  1  6  0  0  0
  8  9  1  1  0  0  0
  8 17  1  0  0  0  0
 11 12  1  1  0  0  0
 11 20  1  0  0  0  0
 13  6  1  0  0  0  0
 13 14  1  6  0  0  0
 15 16  1  1  0  0  0
 15 24  1  0  0  0  0
 17 26  1  0  0  0  0
 18 10  1  0  0  0  0
 18 19  1  1  0  0  0
 20 21  1  1  0  0  0
 20 29  1  0  0  0  0
 22 13  1  0  0  0  0
 22 23  1  6  0  0  0
 24 25  1  1  0  0  0
 24 33  1  0  0  0  0
 26 27  1  6  0  0  0
 26 35  1  0  0  0  0
 28  2  1  6  0  0  0
 28 18  1  0  0  0  0
 29 30  1  0  0  0  0
 29 39  1  6  0  0  0
 31 22  1  0  0  0  0
 31 32  1  1  0  0  0
 31 41  1  0  0  0  0
 33 34  1  6  0  0  0
 33 43  1  0  0  0  0
 35 36  1  0  0  0  0
 35 45  1  6  0  0  0
 37 28  1  0  0  0  0
 37 38  1  6  0  0  0
 39 40  1  0  0  0  0
 41 42  1  0  0  0  0
 41 49  1  6  0  0  0
 43 44  1  0  0  0  0
 43 51  1  1  0  0  0
 45 46  1  0  0  0  0
 47 37  1  0  0  0  0
 47 48  1  6  0  0  0
 49 50  1  0  0  0  0
 51 52  1  0  0  0  0
M  END
>  <CHROM.1>
-160.36362012,163.28826726,-139.06029943,173.95290295,71.68939454,48.81304821
71.81569998,64.98581435,-176.25278839,-58.10876019,-176.02219268,-174.32175723
0.65195397,-48.67603551,10.26438644,0.16308296,-0.74733196,0.01091777

>  <Name>
2fd0_lig

>  <RI>
0

>  <Rbt.Current_Directory>
/home/itssahil/PROJECTS/Mol_Feturizer/New_Systems/rnas/2fd0

>  <Rbt.Executable>
rbdock ($Id: //depot/dev/client3/rdock/2013.1/src/exe/rbdock.cxx#4 $)

>  <Rbt.Library>
libRbt.so (2013.1, Build901 2013/11/27)

>  <Rbt.Parameter_File>
/export/apps/rDock/src/rDock_2013.1_src/data/scripts/dock_solv.prm

>  <Rbt.Receptor>
prm/pocket_docking_5.prm

>  <SCORE>
-17.0574

>  <SCORE.INTER>
-11.6018

>  <SCORE.INTER.CONST>
1

>  <SCORE.INTER.POLAR>
-2.64826

>  <SCORE.INTER.ROT>
12

>  <SCORE.INTER.SOLV>
17.9402

>  <SCORE.INTER.VDW>
-16.487

>  <SCORE.INTER.norm>
-0.223111

>  <SCORE.INTRA>
-5.45557

>  <SCORE.INTRA.DIHEDRAL>
-11.521

>  <SCORE.INTRA.DIHEDRAL.0>
23.9727

>  <SCORE.INTRA.POLAR>
0

>  <SCORE.INTRA.POLAR.0>
0

>  <SCORE.INTRA.REPUL>
0

>  <SCORE.INTRA.REPUL.0>
0

>  <SCORE.INTRA.SOLV>
-1.28986

>  <SCORE.INTRA.SOLV.lig_0>
-115.028

>  <SCORE.INTRA.VDW>
0.949859

>  <SCORE.INTRA.VDW.0>
-6.82393

>  <SCORE.INTRA.norm>
-0.104915

>  <SCORE.RESTR>
0

>  <SCORE.RESTR.CAVITY>
0

>  <SCORE.RESTR.norm>
0

>  <SCORE.SYSTEM>
0

>  <SCORE.SYSTEM.CONST>
0

>  <SCORE.SYSTEM.DIHEDRAL>
0

>  <SCORE.SYSTEM.SOLV>
0

>  <SCORE.SYSTEM.norm>
0

>  <SCORE.heavy>
52

>  <SCORE.norm>
-0.328026

>  <RMSD>
4.949

$$$$
2fd0_lig
 OpenBabel11021811433D
libRbt.so/2013.1/901 2013/11/27
 52 56  0  0  0  0  0  0  0  0999 V2000
    6.2559  -44.6065   14.1086 C   0  0  2  0  0  0  0  0  0  0  0  0
    6.2124  -45.9960   13.7561 O   0  0  0  0  0  0  0  0  0  0  0  0
    7.2361  -49.7867   15.6203 C   0  0  2  0  0  0  0  0  0  0  0  0
    7.3298  -50.8817   16.5996 N   0  0  0  0  0  0  0  0  0  0  0  0
    3.5706  -48.7194   12.7819 C   0  0  1  0  0  0  0  0  0  0  0  0
    0.4451  -48.7169    9.5216 C   0  0  1  0  0  0  0  0  0  0  0  0
   -2.0441  -52.2058    7.2318 C   0  0  1  0  0  0  0  0  0  0  0  0
    4.8137  -44.0032   13.9424 C   0  0  2  0  0  0  0  0  0  0  0  0
    3.8304  -44.7194   14.7430 N   0  0  0  0  0  0  0  0  0  0  0  0
    7.8074  -48.4383   16.2434 C   0  0  0  0  0  0  0  0  0  0  0  0
    2.1768  -48.1204   12.7382 C   0  0  2  0  0  0  0  0  0  0  0  0
    1.2111  -48.9157   13.4819 O   0  0  0  0  0  0  0  0  0  0  0  0
   -0.9848  -49.4338    9.4962 C   0  0  2  0  0  0  0  0  0  0  0  0
   -0.8653  -50.8519    9.9322 N   0  0  0  0  0  0  0  0  0  0  0  0
   -1.5020  -53.2249    6.2046 C   0  0  1  0  0  0  0  0  0  0  0  0
   -0.4546  -54.0101    6.8262 O   0  0  0  0  0  0  0  0  0  0  0  0
    4.4042  -43.9733   12.4233 C   0  0  0  0  0  0  0  0  0  0  0  0
    7.7146  -47.2501   15.1715 C   0  0  2  0  0  0  0  0  0  0  0  0
    8.2344  -45.9904   15.7239 N   0  0  0  0  0  0  0  0  0  0  0  0
    1.9159  -47.9751   11.2484 C   0  0  2  0  0  0  0  0  0  0  0  0
    0.9810  -48.9169   10.7970 O   0  0  0  0  0  0  0  0  0  0  0  0
   -1.6103  -49.2089    8.0234 C   0  0  1  0  0  0  0  0  0  0  0  0
   -1.6632  -47.7924    7.7750 O   0  0  0  0  0  0  0  0  0  0  0  0
   -2.5214  -54.2039    5.5618 C   0  0  1  0  0  0  0  0  0  0  0  0
   -2.5327  -55.4054    6.3432 O   0  0  0  0  0  0  0  0  0  0  0  0
    5.4959  -43.1836   11.6300 C   0  0  2  0  0  0  0  0  0  0  0  0
    5.1520  -43.1180   10.2495 O   0  0  0  0  0  0  0  0  0  0  0  0
    6.2335  -47.0718   14.7356 C   0  0  2  0  0  0  0  0  0  0  0  0
    3.2215  -48.2979   10.4830 C   0  0  2  0  0  0  0  0  0  0  0  0
    4.1702  -48.4237   11.5326 O   0  0  0  0  0  0  0  0  0  0  0  0
   -0.6739  -49.8432    6.8680 C   0  0  2  0  0  0  0  0  0  0  0  0
   -0.6646  -51.2561    7.1459 O   0  0  0  0  0  0  0  0  0  0  0  0
   -3.9714  -53.6841    5.4274 C   0  0  2  0  0  0  0  0  0  0  0  0
   -4.4272  -54.1262    4.1300 O   0  0  0  0  0  0  0  0  0  0  0  0
    6.8715  -43.8895   11.8006 C   0  0  2  0  0  0  0  0  0  0  0  0
    7.1982  -43.9219   13.2434 O   0  0  0  0  0  0  0  0  0  0  0  0
    5.6085  -48.3835   14.1701 C   0  0  2  0  0  0  0  0  0  0  0  0
    4.2262  -48.1023   13.8441 O   0  0  0  0  0  0  0  0  0  0  0  0
    3.7006  -47.2067    9.5322 C   0  0  0  0  0  0  0  0  0  0  0  0
    4.9130  -47.6795    8.9258 O   0  0  0  0  0  0  0  0  0  0  0  0
    0.7169  -49.2921    7.1202 C   0  0  1  0  0  0  0  0  0  0  0  0
    1.3637  -49.2555    8.4095 O   0  0  0  0  0  0  0  0  0  0  0  0
   -4.0303  -52.1702    5.6120 C   0  0  2  0  0  0  0  0  0  0  0  0
   -3.3755  -51.6771    6.8135 O   0  0  0  0  0  0  0  0  0  0  0  0
    7.9692  -43.1608   11.0926 C   0  0  0  0  0  0  0  0  0  0  0  0
    7.6943  -43.1917    9.7181 O   0  0  0  0  0  0  0  0  0  0  0  0
    5.7234  -49.5381   15.2314 C   0  0  1  0  0  0  0  0  0  0  0  0
    5.1728  -50.7681   14.6455 O   0  0  0  0  0  0  0  0  0  0  0  0
    1.7908  -49.8374    6.1133 C   0  0  0  0  0  0  0  0  0  0  0  0
    3.1203  -49.1963    6.2569 N   0  0  0  0  0  0  0  0  0  0  0  0
   -5.3453  -51.3972    5.5391 C   0  0  0  0  0  0  0  0  0  0  0  0
   -6.2935  -51.9134    6.5235 O   0  0  0  0  0  0  0  0  0  0  0  0
  1  2  1  6  0  0  0
  1  8  1  0  0  0  0
  1 36  1  0  0  0  0
  3  4  1  1  0  0  0
  3 10  1  0  0  0  0
  3 47  1  0  0  0  0
  5 11  1  0  0  0  0
  5 30  1  0  0  0  0
  5 38  1  1  0  0  0
  6 21  1  1  0  0  0
  6 42  1  0  0  0  0
  7 15  1  0  0  0  0
  7 44  1  0  0  0  0
  7 32  1  6  0  0  0
  8  9  1  1  0  0  0
  8 17  1  0  0  0  0
 11 12  1  6  0  0  0
 11 20  1  0  0  0  0
 13  6  1  0  0  0  0
 13 14  1  6  0  0  0
 15 16  1  1  0  0  0
 15 24  1  0  0  0  0
 17 26  1  0  0  0  0
 18 10  1  0  0  0  0
 18 19  1  1  0  0  0
 20 21  1  6  0  0  0
 20 29  1  0  0  0  0
 22 13  1  0  0  0  0
 22 23  1  6  0  0  0
 24 25  1  1  0  0  0
 24 33  1  0  0  0  0
 26 27  1  6  0  0  0
 26 35  1  0  0  0  0
 28  2  1  6  0  0  0
 28 18  1  0  0  0  0
 29 30  1  0  0  0  0
 29 39  1  6  0  0  0
 31 22  1  0  0  0  0
 31 32  1  1  0  0  0
 31 41  1  0  0  0  0
 33 34  1  6  0  0  0
 33 43  1  0  0  0  0
 35 36  1  0  0  0  0
 35 45  1  6  0  0  0
 37 28  1  0  0  0  0
 37 38  1  1  0  0  0
 39 40  1  0  0  0  0
 41 42  1  0  0  0  0
 41 49  1  6  0  0  0
 43 44  1  0  0  0  0
 43 51  1  1  0  0  0
 45 46  1  0  0  0  0
 47 37  1  0  0  0  0
 47 48  1  6  0  0  0
 49 50  1  0  0  0  0
 51 52  1  0  0  0  0
M  END
>  <CHROM.1>
-104.12489058,-177.68926007,-154.55744060,126.54626715,167.00273271,-79.55814510
179.73390615,57.45714198,-63.92930160,147.20827463,173.76998435,57.43181429
2.30582102,-48.72738644,10.40078811,0.06561467,-0.80891528,-0.60819289

>  <Name>
2fd0_lig

>  <RI>
2.00683e+07

>  <Rbt.Current_Directory>
/home/itssahil/PROJECTS/Mol_Feturizer/New_Systems/rnas/2fd0

>  <Rbt.Executable>
rbdock ($Id: //depot/dev/client3/rdock/2013.1/src/exe/rbdock.cxx#4 $)

>  <Rbt.Library>
libRbt.so (2013.1, Build901 2013/11/27)

>  <Rbt.Parameter_File>
/export/apps/rDock/src/rDock_2013.1_src/data/scripts/dock_solv.prm

>  <Rbt.Receptor>
prm/pocket_docking_4.prm

>  <SCORE>
-13.2275

>  <SCORE.INTER>
-13.5684

>  <SCORE.INTER.CONST>
1

>  <SCORE.INTER.POLAR>
-2.24516

>  <SCORE.INTER.ROT>
12

>  <SCORE.INTER.SOLV>
17.8021

>  <SCORE.INTER.VDW>
-19.0957

>  <SCORE.INTER.norm>
-0.26093

>  <SCORE.INTRA>
0.340901

>  <SCORE.INTRA.DIHEDRAL>
0.320328

>  <SCORE.INTRA.DIHEDRAL.0>
23.9727

>  <SCORE.INTRA.POLAR>
0

>  <SCORE.INTRA.POLAR.0>
0

>  <SCORE.INTRA.REPUL>
0.0110204

>  <SCORE.INTRA.REPUL.0>
0

>  <SCORE.INTRA.SOLV>
-0.986653

>  <SCORE.INTRA.SOLV.lig_0>
-115.028

>  <SCORE.INTRA.VDW>
0.618961

>  <SCORE.INTRA.VDW.0>
-6.82393

>  <SCORE.INTRA.norm>
0.00655579

>  <SCORE.RESTR>
0

>  <SCORE.RESTR.CAVITY>
0

>  <SCORE.RESTR.norm>
0

>  <SCORE.SYSTEM>
0

>  <SCORE.SYSTEM.CONST>
0

>  <SCORE.SYSTEM.DIHEDRAL>
0

>  <SCORE.SYSTEM.SOLV>
0

>  <SCORE.SYSTEM.norm>
0

>  <SCORE.heavy>
52

>  <SCORE.norm>
-0.254374

>  <RMSD>
4.960

$$$$
2fd0_lig
 OpenBabel11021811433D
libRbt.so/2013.1/901 2013/11/27
 52 56  0  0  0  0  0  0  0  0999 V2000
    2.8120  -50.8958   12.5221 C   0  0  2  0  0  0  0  0  0  0  0  0
    2.9216  -49.7491   11.6677 O   0  0  0  0  0  0  0  0  0  0  0  0
    4.8439  -45.8628   11.9734 C   0  0  2  0  0  0  0  0  0  0  0  0
    5.8703  -44.8213   12.1434 N   0  0  0  0  0  0  0  0  0  0  0  0
    3.6347  -48.8190    8.2596 C   0  0  1  0  0  0  0  0  0  0  0  0
   -0.6164  -49.5147    6.6798 C   0  0  1  0  0  0  0  0  0  0  0  0
   -2.7923  -49.9049    2.2422 C   0  0  1  0  0  0  0  0  0  0  0  0
    2.7566  -52.1850   11.6240 C   0  0  2  0  0  0  0  0  0  0  0  0
    3.9171  -52.2878   10.7503 N   0  0  0  0  0  0  0  0  0  0  0  0
    4.7973  -46.8064   13.2542 C   0  0  0  0  0  0  0  0  0  0  0  0
    2.3508  -49.5140    8.6747 C   0  0  2  0  0  0  0  0  0  0  0  0
    2.4026  -50.9504    8.4466 O   0  0  0  0  0  0  0  0  0  0  0  0
   -0.9586  -50.6115    5.5665 C   0  0  2  0  0  0  0  0  0  0  0  0
   -0.1570  -50.3728    4.3352 N   0  0  0  0  0  0  0  0  0  0  0  0
   -4.2880  -49.5179    2.2132 C   0  0  1  0  0  0  0  0  0  0  0  0
   -4.4122  -48.1466    1.7617 O   0  0  0  0  0  0  0  0  0  0  0  0
    1.4151  -52.2228   10.8022 C   0  0  0  0  0  0  0  0  0  0  0  0
    3.6715  -47.9327   13.0716 C   0  0  2  0  0  0  0  0  0  0  0  0
    3.6094  -48.8208   14.2417 N   0  0  0  0  0  0  0  0  0  0  0  0
    1.2872  -48.7532    7.9011 C   0  0  2  0  0  0  0  0  0  0  0  0
    0.7712  -49.5208    6.8479 O   0  0  0  0  0  0  0  0  0  0  0  0
   -2.5618  -50.6090    5.3646 C   0  0  1  0  0  0  0  0  0  0  0  0
   -3.1707  -50.8656    6.6430 O   0  0  0  0  0  0  0  0  0  0  0  0
   -5.2376  -50.3962    1.3542 C   0  0  1  0  0  0  0  0  0  0  0  0
   -5.3359  -49.7994    0.0548 O   0  0  0  0  0  0  0  0  0  0  0  0
    0.2172  -52.1181   11.8016 C   0  0  2  0  0  0  0  0  0  0  0  0
   -1.0192  -52.1672   11.0967 O   0  0  0  0  0  0  0  0  0  0  0  0
    3.9789  -48.7571   11.7904 C   0  0  2  0  0  0  0  0  0  0  0  0
    1.9473  -47.5270    7.2263 C   0  0  2  0  0  0  0  0  0  0  0  0
    3.2573  -47.5421    7.7751 O   0  0  0  0  0  0  0  0  0  0  0  0
   -3.1054  -49.1661    4.8781 C   0  0  2  0  0  0  0  0  0  0  0  0
   -2.4863  -48.9611    3.5943 O   0  0  0  0  0  0  0  0  0  0  0  0
   -4.8306  -51.8789    1.1913 C   0  0  2  0  0  0  0  0  0  0  0  0
   -6.0556  -52.6360    1.3038 O   0  0  0  0  0  0  0  0  0  0  0  0
    0.3215  -50.7850   12.5965 C   0  0  2  0  0  0  0  0  0  0  0  0
    1.6092  -50.7816   13.3255 O   0  0  0  0  0  0  0  0  0  0  0  0
    4.0923  -47.8691   10.5138 C   0  0  2  0  0  0  0  0  0  0  0  0
    4.4223  -48.7400    9.4053 O   0  0  0  0  0  0  0  0  0  0  0  0
    1.3053  -46.1839    7.5554 C   0  0  0  0  0  0  0  0  0  0  0  0
    1.4212  -45.9986    8.9744 O   0  0  0  0  0  0  0  0  0  0  0  0
   -2.5303  -48.1607    5.8578 C   0  0  1  0  0  0  0  0  0  0  0  0
   -1.1522  -48.1265    6.2844 O   0  0  0  0  0  0  0  0  0  0  0  0
   -3.7728  -52.2730    2.2186 C   0  0  2  0  0  0  0  0  0  0  0  0
   -2.6209  -51.3869    2.2775 O   0  0  0  0  0  0  0  0  0  0  0  0
   -0.7793  -50.6402   13.5985 C   0  0  0  0  0  0  0  0  0  0  0  0
   -0.6405  -51.6637   14.5466 O   0  0  0  0  0  0  0  0  0  0  0  0
    5.1910  -46.7634   10.7205 C   0  0  1  0  0  0  0  0  0  0  0  0
    5.2330  -45.9162    9.5206 O   0  0  0  0  0  0  0  0  0  0  0  0
   -2.9149  -46.6768    5.5194 C   0  0  0  0  0  0  0  0  0  0  0  0
   -4.3626  -46.3898    5.6643 N   0  0  0  0  0  0  0  0  0  0  0  0
   -3.1849  -53.6813    2.2745 C   0  0  0  0  0  0  0  0  0  0  0  0
   -2.2579  -53.8009    3.3974 O   0  0  0  0  0  0  0  0  0  0  0  0
  1  2  1  6  0  0  0
  1  8  1  0  0  0  0
  1 36  1  0  0  0  0
  3  4  1  1  0  0  0
  3 10  1  0  0  0  0
  3 47  1  0  0  0  0
  5 11  1  0  0  0  0
  5 30  1  0  0  0  0
  5 38  1  1  0  0  0
  6 21  1  6  0  0  0
  6 42  1  0  0  0  0
  7 15  1  0  0  0  0
  7 44  1  0  0  0  0
  7 32  1  1  0  0  0
  8  9  1  6  0  0  0
  8 17  1  0  0  0  0
 11 12  1  6  0  0  0
 11 20  1  0  0  0  0
 13  6  1  0  0  0  0
 13 14  1  6  0  0  0
 15 16  1  6  0  0  0
 15 24  1  0  0  0  0
 17 26  1  0  0  0  0
 18 10  1  0  0  0  0
 18 19  1  1  0  0  0
 20 21  1  6  0  0  0
 20 29  1  0  0  0  0
 22 13  1  0  0  0  0
 22 23  1  1  0  0  0
 24 25  1  6  0  0  0
 24 33  1  0  0  0  0
 26 27  1  6  0  0  0
 26 35  1  0  0  0  0
 28  2  1  6  0  0  0
 28 18  1  0  0  0  0
 29 30  1  0  0  0  0
 29 39  1  1  0  0  0
 31 22  1  0  0  0  0
 31 32  1  6  0  0  0
 31 41  1  0  0  0  0
 33 34  1  1  0  0  0
 33 43  1  0  0  0  0
 35 36  1  0  0  0  0
 35 45  1  1  0  0  0
 37 28  1  0  0  0  0
 37 38  1  6  0  0  0
 39 40  1  0  0  0  0
 41 42  1  0  0  0  0
 41 49  1  6  0  0  0
 43 44  1  0  0  0  0
 43 51  1  6  0  0  0
 45 46  1  0  0  0  0
 47 37  1  0  0  0  0
 47 48  1  6  0  0  0
 49 50  1  0  0  0  0
 51 52  1  0  0  0  0
M  END
>  <CHROM.1>
-125.33737007,-70.08190732,-172.15336405,61.69594317,135.57983738,-72.51416327
61.08175025,65.00816283,63.74385850,123.03395424,66.40985964,-176.67377552
0.13882427,-49.54147808,7.72479849,0.49164934,0.81233291,2.30960992

>  <Name>
2fd0_lig

>  <RI>
3.4301e+07

>  <Rbt.Current_Directory>
/home/itssahil/PROJECTS/Mol_Feturizer/New_Systems/rnas/2fd0

>  <Rbt.Executable>
rbdock ($Id: //depot/dev/client3/rdock/2013.1/src/exe/rbdock.cxx#4 $)

>  <Rbt.Library>
libRbt.so (2013.1, Build901 2013/11/27)

>  <Rbt.Parameter_File>
/export/apps/rDock/src/rDock_2013.1_src/data/scripts/dock_solv.prm

>  <Rbt.Receptor>
prm/pocket_docking_7.prm

>  <SCORE>
-15.9818

>  <SCORE.INTER>
-15.9211

>  <SCORE.INTER.CONST>
1

>  <SCORE.INTER.POLAR>
-2.57085

>  <SCORE.INTER.ROT>
12

>  <SCORE.INTER.SOLV>
14.6012

>  <SCORE.INTER.VDW>
-18.5117

>  <SCORE.INTER.norm>
-0.306175

>  <SCORE.INTRA>
-0.0606515

>  <SCORE.INTRA.DIHEDRAL>
-0.188717

>  <SCORE.INTRA.DIHEDRAL.0>
23.9727

>  <SCORE.INTRA.POLAR>
0

>  <SCORE.INTRA.POLAR.0>
0

>  <SCORE.INTRA.REPUL>
0

>  <SCORE.INTRA.REPUL.0>
0

>  <SCORE.INTRA.SOLV>
1.25911

>  <SCORE.INTRA.SOLV.lig_0>
-115.028

>  <SCORE.INTRA.VDW>
-0.595847

>  <SCORE.INTRA.VDW.0>
-6.82393

>  <SCORE.INTRA.norm>
-0.00116637

>  <SCORE.RESTR>
0

>  <SCORE.RESTR.CAVITY>
0

>  <SCORE.RESTR.norm>
0

>  <SCORE.SYSTEM>
0

>  <SCORE.SYSTEM.CONST>
0

>  <SCORE.SYSTEM.DIHEDRAL>
0

>  <SCORE.SYSTEM.SOLV>
0

>  <SCORE.SYSTEM.norm>
0

>  <SCORE.heavy>
52

>  <SCORE.norm>
-0.307342

>  <RMSD>
4.960

$$$$
2fd0_lig
 OpenBabel11021811433D
libRbt.so/2013.1/901 2013/11/27
 52 56  0  0  0  0  0  0  0  0999 V2000
    3.6311  -47.2668   15.5886 C   0  0  2  0  0  0  0  0  0  0  0  0
    3.6835  -46.8802   14.2085 O   0  0  0  0  0  0  0  0  0  0  0  0
    3.6232  -43.0309   12.1906 C   0  0  2  0  0  0  0  0  0  0  0  0
    4.0034  -41.6794   11.7481 N   0  0  0  0  0  0  0  0  0  0  0  0
    5.2866  -47.3183   10.7781 C   0  0  1  0  0  0  0  0  0  0  0  0
    3.2811  -51.0298    9.7102 C   0  0  1  0  0  0  0  0  0  0  0  0
    1.2012  -54.7719    6.6887 C   0  0  1  0  0  0  0  0  0  0  0  0
    3.9726  -48.7979   15.6923 C   0  0  2  0  0  0  0  0  0  0  0  0
    5.2707  -49.1049   15.1079 N   0  0  0  0  0  0  0  0  0  0  0  0
    3.4909  -43.0761   13.7759 C   0  0  0  0  0  0  0  0  0  0  0  0
    4.3431  -48.4425   11.1646 C   0  0  2  0  0  0  0  0  0  0  0  0
    5.0513  -49.6026   11.6847 O   0  0  0  0  0  0  0  0  0  0  0  0
    4.1877  -52.2577    9.2309 C   0  0  2  0  0  0  0  0  0  0  0  0
    4.4377  -52.1810    7.7657 N   0  0  0  0  0  0  0  0  0  0  0  0
    1.9710  -54.3189    5.4278 C   0  0  1  0  0  0  0  0  0  0  0  0
    3.2585  -54.9833    5.3965 O   0  0  0  0  0  0  0  0  0  0  0  0
    2.8306  -49.6594   15.0366 C   0  0  0  0  0  0  0  0  0  0  0  0
    3.0662  -44.5458   14.2545 C   0  0  2  0  0  0  0  0  0  0  0  0
    2.9395  -44.6154   15.7177 N   0  0  0  0  0  0  0  0  0  0  0  0
    3.5405  -48.6646    9.8937 C   0  0  2  0  0  0  0  0  0  0  0  0
    3.9031  -49.8615    9.2607 O   0  0  0  0  0  0  0  0  0  0  0  0
    3.4739  -53.6131    9.7451 C   0  0  1  0  0  0  0  0  0  0  0  0
    3.3234  -53.5214   11.1734 O   0  0  0  0  0  0  0  0  0  0  0  0
    1.2829  -54.5362    4.0529 C   0  0  1  0  0  0  0  0  0  0  0  0
    1.7192  -55.7996    3.5357 O   0  0  0  0  0  0  0  0  0  0  0  0
    1.4734  -49.2851   15.7168 C   0  0  2  0  0  0  0  0  0  0  0  0
    0.4138  -50.0586   15.1625 O   0  0  0  0  0  0  0  0  0  0  0  0
    4.1268  -45.5688   13.7604 C   0  0  2  0  0  0  0  0  0  0  0  0
    3.8926  -47.5465    8.8836 C   0  0  2  0  0  0  0  0  0  0  0  0
    4.7013  -46.6742    9.6599 O   0  0  0  0  0  0  0  0  0  0  0  0
    1.9852  -53.7782    9.1361 C   0  0  2  0  0  0  0  0  0  0  0  0
    2.1865  -53.8829    7.7141 O   0  0  0  0  0  0  0  0  0  0  0  0
   -0.2630  -54.5060    4.0541 C   0  0  2  0  0  0  0  0  0  0  0  0
   -0.6413  -53.7731    2.8682 O   0  0  0  0  0  0  0  0  0  0  0  0
    1.1898  -47.7701   15.5066 C   0  0  2  0  0  0  0  0  0  0  0  0
    2.3027  -47.0039   16.1097 O   0  0  0  0  0  0  0  0  0  0  0  0
    4.3358  -45.5235   12.2160 C   0  0  2  0  0  0  0  0  0  0  0  0
    5.3705  -46.4816   11.8881 O   0  0  0  0  0  0  0  0  0  0  0  0
    2.7024  -46.7535    8.3556 C   0  0  0  0  0  0  0  0  0  0  0  0
    3.1724  -45.9823    7.2396 O   0  0  0  0  0  0  0  0  0  0  0  0
    1.2761  -52.4694    9.4285 C   0  0  1  0  0  0  0  0  0  0  0  0
    1.8373  -51.1613    9.1917 O   0  0  0  0  0  0  0  0  0  0  0  0
   -0.7984  -53.8949    5.3462 C   0  0  2  0  0  0  0  0  0  0  0  0
   -0.2560  -54.4748    6.5648 O   0  0  0  0  0  0  0  0  0  0  0  0
   -0.0814  -47.3391   16.1665 C   0  0  0  0  0  0  0  0  0  0  0  0
   -0.0018  -47.6780   17.5246 O   0  0  0  0  0  0  0  0  0  0  0  0
    4.7373  -44.0708   11.7675 C   0  0  1  0  0  0  0  0  0  0  0  0
    4.8745  -44.0545   10.3045 O   0  0  0  0  0  0  0  0  0  0  0  0
   -0.1885  -52.4196    8.8655 C   0  0  0  0  0  0  0  0  0  0  0  0
   -0.9491  -51.2200    9.2918 N   0  0  0  0  0  0  0  0  0  0  0  0
   -2.2950  -53.7530    5.6142 C   0  0  0  0  0  0  0  0  0  0  0  0
   -2.8791  -55.0528    5.9363 O   0  0  0  0  0  0  0  0  0  0  0  0
  1  2  1  6  0  0  0
  1  8  1  0  0  0  0
  1 36  1  0  0  0  0
  3  4  1  1  0  0  0
  3 10  1  0  0  0  0
  3 47  1  0  0  0  0
  5 11  1  0  0  0  0
  5 30  1  0  0  0  0
  5 38  1  1  0  0  0
  6 21  1  6  0  0  0
  6 42  1  0  0  0  0
  7 15  1  0  0  0  0
  7 44  1  0  0  0  0
  7 32  1  1  0  0  0
  8  9  1  6  0  0  0
  8 17  1  0  0  0  0
 11 12  1  6  0  0  0
 11 20  1  0  0  0  0
 13  6  1  0  0  0  0
 13 14  1  6  0  0  0
 15 16  1  6  0  0  0
 15 24  1  0  0  0  0
 17 26  1  0  0  0  0
 18 10  1  0  0  0  0
 18 19  1  1  0  0  0
 20 21  1  6  0  0  0
 20 29  1  0  0  0  0
 22 13  1  0  0  0  0
 22 23  1  1  0  0  0
 24 25  1  1  0  0  0
 24 33  1  0  0  0  0
 26 27  1  6  0  0  0
 26 35  1  0  0  0  0
 28  2  1  6  0  0  0
 28 18  1  0  0  0  0
 29 30  1  0  0  0  0
 29 39  1  1  0  0  0
 31 22  1  0  0  0  0
 31 32  1  6  0  0  0
 31 41  1  0  0  0  0
 33 34  1  6  0  0  0
 33 43  1  0  0  0  0
 35 36  1  0  0  0  0
 35 45  1  1  0  0  0
 37 28  1  0  0  0  0
 37 38  1  1  0  0  0
 39 40  1  0  0  0  0
 41 42  1  0  0  0  0
 41 49  1  6  0  0  0
 43 44  1  0  0  0  0
 43 51  1  1  0  0  0
 45 46  1  0  0  0  0
 47 37  1  0  0  0  0
 47 48  1  6  0  0  0
 49 50  1  0  0  0  0
 51 52  1  0  0  0  0
M  END
>  <CHROM.1>
-146.08026861,-78.53007560,-160.72329276,176.40700393,84.62551557,-67.06519804
-167.64956965,148.66211977,55.97853459,138.46394244,172.63552416,74.42380493
2.46308709,-49.68278852,10.41061521,1.09868151,1.06135103,1.20053980

>  <Name>
2fd0_lig

>  <RI>
0

>  <Rbt.Current_Directory>
/home/itssahil/PROJECTS/Mol_Feturizer/New_Systems/rnas/2fd0

>  <Rbt.Executable>
rbdock ($Id: //depot/dev/client3/rdock/2013.1/src/exe/rbdock.cxx#4 $)

>  <Rbt.Library>
libRbt.so (2013.1, Build901 2013/11/27)

>  <Rbt.Parameter_File>
/export/apps/rDock/src/rDock_2013.1_src/data/scripts/dock_solv.prm

>  <Rbt.Receptor>
prm/pocket_docking_6.prm

>  <SCORE>
-20.6664

>  <SCORE.INTER>
-20.6607

>  <SCORE.INTER.CONST>
1

>  <SCORE.INTER.POLAR>
-2.55031

>  <SCORE.INTER.ROT>
12

>  <SCORE.INTER.SOLV>
19.504

>  <SCORE.INTER.VDW>
-23.3741

>  <SCORE.INTER.norm>
-0.397321

>  <SCORE.INTRA>
-0.00568272

>  <SCORE.INTRA.DIHEDRAL>
-1.12686

>  <SCORE.INTRA.DIHEDRAL.0>
23.9727

>  <SCORE.INTRA.POLAR>
0

>  <SCORE.INTRA.POLAR.0>
0

>  <SCORE.INTRA.REPUL>
0

>  <SCORE.INTRA.REPUL.0>
0

>  <SCORE.INTRA.SOLV>
-0.635451

>  <SCORE.INTRA.SOLV.lig_0>
-115.028

>  <SCORE.INTRA.VDW>
0.875473

>  <SCORE.INTRA.VDW.0>
-6.82393

>  <SCORE.INTRA.norm>
-0.000109283

>  <SCORE.RESTR>
0

>  <SCORE.RESTR.CAVITY>
0

>  <SCORE.RESTR.norm>
0

>  <SCORE.SYSTEM>
0

>  <SCORE.SYSTEM.CONST>
0

>  <SCORE.SYSTEM.DIHEDRAL>
0

>  <SCORE.SYSTEM.SOLV>
0

>  <SCORE.SYSTEM.norm>
0

>  <SCORE.heavy>
52

>  <SCORE.norm>
-0.39743

>  <RMSD>
4.961

$$$$
2fd0_lig
 OpenBabel11021811433D
libRbt.so/2013.1/901 2013/11/27
 52 56  0  0  0  0  0  0  0  0999 V2000
    0.5465  -45.0291   13.2862 C   0  0  2  0  0  0  0  0  0  0  0  0
    0.9331  -43.6590   13.4603 O   0  0  0  0  0  0  0  0  0  0  0  0
    4.0938  -41.2217   11.7393 C   0  0  2  0  0  0  0  0  0  0  0  0
    5.4209  -40.6509   11.4564 N   0  0  0  0  0  0  0  0  0  0  0  0
    2.4900  -45.3572   10.1765 C   0  0  1  0  0  0  0  0  0  0  0  0
    2.4476  -49.3570    8.0803 C   0  0  1  0  0  0  0  0  0  0  0  0
   -0.1022  -51.8404    4.6299 C   0  0  1  0  0  0  0  0  0  0  0  0
   -0.9580  -45.1826   13.7157 C   0  0  2  0  0  0  0  0  0  0  0  0
   -1.8301  -44.2895   12.9655 N   0  0  0  0  0  0  0  0  0  0  0  0
    3.7360  -41.0500   13.2805 C   0  0  0  0  0  0  0  0  0  0  0  0
    2.8246  -46.8329   10.2933 C   0  0  2  0  0  0  0  0  0  0  0  0
    4.2132  -47.1117    9.9581 O   0  0  0  0  0  0  0  0  0  0  0  0
    3.2851  -49.6345    6.7458 C   0  0  2  0  0  0  0  0  0  0  0  0
    2.6815  -48.9139    5.5917 N   0  0  0  0  0  0  0  0  0  0  0  0
    0.2730  -51.4047    3.1957 C   0  0  1  0  0  0  0  0  0  0  0  0
    1.2118  -52.3599    2.6424 O   0  0  0  0  0  0  0  0  0  0  0  0
   -1.1100  -44.9631   15.2665 C   0  0  0  0  0  0  0  0  0  0  0  0
    2.2859  -41.6622   13.5839 C   0  0  2  0  0  0  0  0  0  0  0  0
    1.9318  -41.5186   15.0037 N   0  0  0  0  0  0  0  0  0  0  0  0
    1.7793  -47.4896    9.4074 C   0  0  2  0  0  0  0  0  0  0  0  0
    2.3436  -47.9699    8.2176 O   0  0  0  0  0  0  0  0  0  0  0  0
    3.4080  -51.2369    6.5786 C   0  0  1  0  0  0  0  0  0  0  0  0
    4.0191  -51.7622    7.7709 O   0  0  0  0  0  0  0  0  0  0  0  0
   -0.8851  -51.2219    2.1777 C   0  0  1  0  0  0  0  0  0  0  0  0
   -1.0495  -52.4571    1.4695 O   0  0  0  0  0  0  0  0  0  0  0  0
   -0.1557  -45.9576   16.0048 C   0  0  2  0  0  0  0  0  0  0  0  0
   -0.2773  -45.8030   17.4153 O   0  0  0  0  0  0  0  0  0  0  0  0
    2.2714  -43.1625   13.1783 C   0  0  2  0  0  0  0  0  0  0  0  0
    0.7561  -46.4149    8.9684 C   0  0  2  0  0  0  0  0  0  0  0  0
    1.1433  -45.2877    9.7412 O   0  0  0  0  0  0  0  0  0  0  0  0
    1.9584  -51.9427    6.4563 C   0  0  2  0  0  0  0  0  0  0  0  0
    1.3947  -51.4023    5.2464 O   0  0  0  0  0  0  0  0  0  0  0  0
   -2.2505  -50.8019    2.7693 C   0  0  2  0  0  0  0  0  0  0  0  0
   -2.7878  -49.8202    1.8560 O   0  0  0  0  0  0  0  0  0  0  0  0
    1.3122  -45.6878   15.5666 C   0  0  2  0  0  0  0  0  0  0  0  0
    1.3985  -45.8747   14.1013 O   0  0  0  0  0  0  0  0  0  0  0  0
    2.6723  -43.3892   11.6887 C   0  0  2  0  0  0  0  0  0  0  0  0
    2.6648  -44.8168   11.4480 O   0  0  0  0  0  0  0  0  0  0  0  0
   -0.6990  -46.7382    9.2884 C   0  0  0  0  0  0  0  0  0  0  0  0
   -1.4971  -45.6843    8.7285 O   0  0  0  0  0  0  0  0  0  0  0  0
    1.1531  -51.4301    7.6353 C   0  0  1  0  0  0  0  0  0  0  0  0
    1.0713  -50.0456    8.0334 O   0  0  0  0  0  0  0  0  0  0  0  0
   -2.0938  -50.2861    4.1972 C   0  0  2  0  0  0  0  0  0  0  0  0
   -1.3542  -51.1684    5.0859 O   0  0  0  0  0  0  0  0  0  0  0  0
    2.2747  -46.6331   16.2124 C   0  0  0  0  0  0  0  0  0  0  0  0
    3.5743  -46.2070   15.9039 O   0  0  0  0  0  0  0  0  0  0  0  0
    4.0901  -42.7686   11.4104 C   0  0  1  0  0  0  0  0  0  0  0  0
    4.4109  -42.9551    9.9885 O   0  0  0  0  0  0  0  0  0  0  0  0
   -0.3187  -51.9756    7.6637 C   0  0  0  0  0  0  0  0  0  0  0  0
   -1.1181  -51.4710    8.8064 N   0  0  0  0  0  0  0  0  0  0  0  0
   -3.2890  -49.8139    5.0221 C   0  0  0  0  0  0  0  0  0  0  0  0
   -4.2554  -50.8977    5.1831 O   0  0  0  0  0  0  0  0  0  0  0  0
  1  2  1  1  0  0  0
  1  8  1  0  0  0  0
  1 36  1  0  0  0  0
  3  4  1  1  0  0  0
  3 10  1  0  0  0  0
  3 47  1  0  0  0  0
  5 11  1  0  0  0  0
  5 30  1  0  0  0  0
  5 38  1  1  0  0  0
  6 21  1  6  0  0  0
  6 42  1  0  0  0  0
  7 15  1  0  0  0  0
  7 44  1  0  0  0  0
  7 32  1  1  0  0  0
  8  9  1  6  0  0  0
  8 17  1  0  0  0  0
 11 12  1  6  0  0  0
 11 20  1  0  0  0  0
 13  6  1  0  0  0  0
 13 14  1  6  0  0  0
 15 16  1  6  0  0  0
 15 24  1  0  0  0  0
 17 26  1  0  0  0  0
 18 10  1  0  0  0  0
 18 19  1  1  0  0  0
 20 21  1  6  0  0  0
 20 29  1  0  0  0  0
 22 13  1  0  0  0  0
 22 23  1  1  0  0  0
 24 25  1  1  0  0  0
 24 33  1  0  0  0  0
 26 27  1  1  0  0  0
 26 35  1  0  0  0  0
 28  2  1  6  0  0  0
 28 18  1  0  0  0  0
 29 30  1  0  0  0  0
 29 39  1  1  0  0  0
 31 22  1  0  0  0  0
 31 32  1  6  0  0  0
 31 41  1  0  0  0  0
 33 34  1  6  0  0  0
 33 43  1  0  0  0  0
 35 36  1  0  0  0  0
 35 45  1  1  0  0  0
 37 28  1  0  0  0  0
 37 38  1  1  0  0  0
 39 40  1  0  0  0  0
 41 42  1  0  0  0  0
 41 49  1  6  0  0  0
 43 44  1  0  0  0  0
 43 51  1  1  0  0  0
 45 46  1  0  0  0  0
 47 37  1  0  0  0  0
 47 48  1  6  0  0  0
 49 50  1  0  0  0  0
 51 52  1  0  0  0  0
M  END
>  <CHROM.1>
178.97924158,168.67730327,-172.76762206,-157.11791752,108.92354090,-176.47278173
-176.01912109,178.36823350,-172.25241709,155.90233230,-179.50199986,59.82736434
1.06295180,-47.39224958,9.36218562,1.33929826,0.52257266,1.02504977

>  <Name>
2fd0_lig

>  <RI>
0

>  <Rbt.Current_Directory>
/home/itssahil/PROJECTS/Mol_Feturizer/New_Systems/rnas/2fd0

>  <Rbt.Executable>
rbdock ($Id: //depot/dev/client3/rdock/2013.1/src/exe/rbdock.cxx#4 $)

>  <Rbt.Library>
libRbt.so (2013.1, Build901 2013/11/27)

>  <Rbt.Parameter_File>
/export/apps/rDock/src/rDock_2013.1_src/data/scripts/dock_solv.prm

>  <Rbt.Receptor>
prm/pocket_docking_8.prm

>  <SCORE>
-15.2556

>  <SCORE.INTER>
-8.71572

>  <SCORE.INTER.CONST>
1

>  <SCORE.INTER.POLAR>
-0.916515

>  <SCORE.INTER.ROT>
12

>  <SCORE.INTER.SOLV>
20.2786

>  <SCORE.INTER.VDW>
-21.115

>  <SCORE.INTER.norm>
-0.16761

>  <SCORE.INTRA>
-6.55194

>  <SCORE.INTRA.DIHEDRAL>
-9.69735

>  <SCORE.INTRA.DIHEDRAL.0>
23.9727

>  <SCORE.INTRA.POLAR>
0

>  <SCORE.INTRA.POLAR.0>
0

>  <SCORE.INTRA.REPUL>
0

>  <SCORE.INTRA.REPUL.0>
0

>  <SCORE.INTRA.SOLV>
-4.93808

>  <SCORE.INTRA.SOLV.lig_0>
-115.028

>  <SCORE.INTRA.VDW>
0.765775

>  <SCORE.INTRA.VDW.0>
-6.82393

>  <SCORE.INTRA.norm>
-0.125999

>  <SCORE.RESTR>
0.0120891

>  <SCORE.RESTR.CAVITY>
0.0120891

>  <SCORE.RESTR.norm>
0.000232482

>  <SCORE.SYSTEM>
0

>  <SCORE.SYSTEM.CONST>
0

>  <SCORE.SYSTEM.DIHEDRAL>
0

>  <SCORE.SYSTEM.SOLV>
0

>  <SCORE.SYSTEM.norm>
0

>  <SCORE.heavy>
52

>  <SCORE.norm>
-0.293376

>  <RMSD>
4.962

$$$$
2fd0_lig
 OpenBabel11021811433D
libRbt.so/2013.1/901 2013/11/27
 52 56  0  0  0  0  0  0  0  0999 V2000
    0.9862  -49.4156   12.2057 C   0  0  2  0  0  0  0  0  0  0  0  0
    1.8210  -48.8258   11.1996 O   0  0  0  0  0  0  0  0  0  0  0  0
    4.2760  -45.2584   11.5726 C   0  0  2  0  0  0  0  0  0  0  0  0
    5.3935  -44.3601   11.9061 N   0  0  0  0  0  0  0  0  0  0  0  0
    3.2999  -48.8842    8.2724 C   0  0  1  0  0  0  0  0  0  0  0  0
   -0.2573  -51.5074    7.1935 C   0  0  1  0  0  0  0  0  0  0  0  0
   -4.1266  -51.6625    3.8561 C   0  0  1  0  0  0  0  0  0  0  0  0
    1.7804  -50.5866   12.8909 C   0  0  2  0  0  0  0  0  0  0  0  0
    3.0424  -50.1288   13.4552 N   0  0  0  0  0  0  0  0  0  0  0  0
    3.7132  -45.9521   12.8898 C   0  0  0  0  0  0  0  0  0  0  0  0
    2.3871  -49.9828    8.7858 C   0  0  2  0  0  0  0  0  0  0  0  0
    2.9709  -51.3060    8.6227 O   0  0  0  0  0  0  0  0  0  0  0  0
   -0.1726  -52.6393    6.0661 C   0  0  2  0  0  0  0  0  0  0  0  0
    0.0117  -52.0251    4.7229 N   0  0  0  0  0  0  0  0  0  0  0  0
   -3.6067  -50.2088    3.9220 C   0  0  1  0  0  0  0  0  0  0  0  0
   -2.4861  -50.0666    3.0143 O   0  0  0  0  0  0  0  0  0  0  0  0
    2.0017  -51.7669   11.8739 C   0  0  0  0  0  0  0  0  0  0  0  0
    2.4894  -46.9212   12.5256 C   0  0  2  0  0  0  0  0  0  0  0  0
    1.9521  -47.5776   13.7265 N   0  0  0  0  0  0  0  0  0  0  0  0
    1.0917  -49.7273    8.0340 C   0  0  2  0  0  0  0  0  0  0  0  0
    0.8721  -50.6972    7.0461 O   0  0  0  0  0  0  0  0  0  0  0  0
   -1.4767  -53.5795    6.2284 C   0  0  1  0  0  0  0  0  0  0  0  0
   -1.4885  -54.0942    7.5723 O   0  0  0  0  0  0  0  0  0  0  0  0
   -4.6201  -49.0722    3.6187 C   0  0  1  0  0  0  0  0  0  0  0  0
   -4.5253  -48.7569    2.2238 O   0  0  0  0  0  0  0  0  0  0  0  0
    0.6095  -52.2113   11.3181 C   0  0  2  0  0  0  0  0  0  0  0  0
    0.7651  -53.2932   10.4051 O   0  0  0  0  0  0  0  0  0  0  0  0
    2.9713  -47.9882   11.5034 C   0  0  2  0  0  0  0  0  0  0  0  0
    1.2186  -48.3881    7.2692 C   0  0  2  0  0  0  0  0  0  0  0  0
    2.4534  -47.8756    7.7490 O   0  0  0  0  0  0  0  0  0  0  0  0
   -2.8485  -52.7437    6.0446 C   0  0  2  0  0  0  0  0  0  0  0  0
   -2.8005  -52.2651    4.6873 O   0  0  0  0  0  0  0  0  0  0  0  0
   -6.0980  -49.3694    3.9624 C   0  0  2  0  0  0  0  0  0  0  0  0
   -6.6169  -48.1535    4.5444 O   0  0  0  0  0  0  0  0  0  0  0  0
   -0.0703  -51.0084   10.6035 C   0  0  2  0  0  0  0  0  0  0  0  0
   -0.2280  -49.9153   11.5883 O   0  0  0  0  0  0  0  0  0  0  0  0
    3.5857  -47.3574   10.2167 C   0  0  2  0  0  0  0  0  0  0  0  0
    4.0339  -48.4433    9.3705 O   0  0  0  0  0  0  0  0  0  0  0  0
    0.1271  -47.3665    7.5682 C   0  0  0  0  0  0  0  0  0  0  0  0
    0.1961  -47.0759    8.9725 O   0  0  0  0  0  0  0  0  0  0  0  0
   -2.7320  -51.5552    6.9803 C   0  0  1  0  0  0  0  0  0  0  0  0
   -1.5691  -50.7080    7.0898 O   0  0  0  0  0  0  0  0  0  0  0  0
   -6.2139  -50.5834    4.8802 C   0  0  2  0  0  0  0  0  0  0  0  0
   -5.5053  -51.7664    4.4180 O   0  0  0  0  0  0  0  0  0  0  0  0
   -1.4262  -51.3592   10.0786 C   0  0  0  0  0  0  0  0  0  0  0  0
   -1.3788  -52.6762    9.6001 O   0  0  0  0  0  0  0  0  0  0  0  0
    4.7736  -46.4004   10.5983 C   0  0  1  0  0  0  0  0  0  0  0  0
    5.2924  -45.7861    9.3683 O   0  0  0  0  0  0  0  0  0  0  0  0
   -3.9663  -50.5879    6.9089 C   0  0  0  0  0  0  0  0  0  0  0  0
   -3.6070  -49.1894    6.5704 N   0  0  0  0  0  0  0  0  0  0  0  0
   -7.5648  -51.1031    5.3670 C   0  0  0  0  0  0  0  0  0  0  0  0
   -7.3957  -51.9012    6.5790 O   0  0  0  0  0  0  0  0  0  0  0  0
  1  2  1  6  0  0  0
  1  8  1  0  0  0  0
  1 36  1  0  0  0  0
  3  4  1  1  0  0  0
  3 10  1  0  0  0  0
  3 47  1  0  0  0  0
  5 11  1  0  0  0  0
  5 30  1  0  0  0  0
  5 38  1  1  0  0  0
  6 21  1  6  0  0  0
  6 42  1  0  0  0  0
  7 15  1  0  0  0  0
  7 44  1  0  0  0  0
  7 32  1  1  0  0  0
  8  9  1  6  0  0  0
  8 17  1  0  0  0  0
 11 12  1  6  0  0  0
 11 20  1  0  0  0  0
 13  6  1  0  0  0  0
 13 14  1  6  0  0  0
 15 16  1  6  0  0  0
 15 24  1  0  0  0  0
 17 26  1  0  0  0  0
 18 10  1  0  0  0  0
 18 19  1  1  0  0  0
 20 21  1  6  0  0  0
 20 29  1  0  0  0  0
 22 13  1  0  0  0  0
 22 23  1  1  0  0  0
 24 25  1  6  0  0  0
 24 33  1  0  0  0  0
 26 27  1  6  0  0  0
 26 35  1  0  0  0  0
 28  2  1  6  0  0  0
 28 18  1  0  0  0  0
 29 30  1  0  0  0  0
 29 39  1  1  0  0  0
 31 22  1  0  0  0  0
 31 32  1  6  0  0  0
 31 41  1  0  0  0  0
 33 34  1  1  0  0  0
 33 43  1  0  0  0  0
 35 36  1  0  0  0  0
 35 45  1  1  0  0  0
 37 28  1  0  0  0  0
 37 38  1  6  0  0  0
 39 40  1  0  0  0  0
 41 42  1  0  0  0  0
 41 49  1  6  0  0  0
 43 44  1  0  0  0  0
 43 51  1  6  0  0  0
 45 46  1  0  0  0  0
 47 37  1  0  0  0  0
 47 48  1  6  0  0  0
 49 50  1  0  0  0  0
 51 52  1  0  0  0  0
M  END
>  <CHROM.1>
-72.60730241,-90.66688850,-172.57710703,107.96821295,116.74650676,-49.65121788
60.32102822,164.44950137,-37.31761020,101.02020296,-122.99640887,-158.56927514
-0.39093649,-49.86388439,8.18773961,0.09359733,0.73342515,2.56523805

>  <Name>
2fd0_lig

>  <RI>
2.89522e+07

>  <Rbt.Current_Directory>
/home/itssahil/PROJECTS/Mol_Feturizer/New_Systems/rnas/2fd0

>  <Rbt.Executable>
rbdock ($Id: //depot/dev/client3/rdock/2013.1/src/exe/rbdock.cxx#4 $)

>  <Rbt.Library>
libRbt.so (2013.1, Build901 2013/11/27)

>  <Rbt.Parameter_File>
/export/apps/rDock/src/rDock_2013.1_src/data/scripts/dock_solv.prm

>  <Rbt.Receptor>
prm/pocket_docking_2.prm

>  <SCORE>
18.8642

>  <SCORE.INTER>
-4.05155

>  <SCORE.INTER.CONST>
1

>  <SCORE.INTER.POLAR>
-1.75203

>  <SCORE.INTER.ROT>
12

>  <SCORE.INTER.SOLV>
5.98521

>  <SCORE.INTER.VDW>
-10.456

>  <SCORE.INTER.norm>
-0.0779144

>  <SCORE.INTRA>
12.9952

>  <SCORE.INTRA.DIHEDRAL>
9.58469

>  <SCORE.INTRA.DIHEDRAL.0>
23.9727

>  <SCORE.INTRA.POLAR>
0

>  <SCORE.INTRA.POLAR.0>
0

>  <SCORE.INTRA.REPUL>
0.23498

>  <SCORE.INTRA.REPUL.0>
0

>  <SCORE.INTRA.SOLV>
11.3756

>  <SCORE.INTRA.SOLV.lig_0>
-115.028

>  <SCORE.INTRA.VDW>
1.34009

>  <SCORE.INTRA.VDW.0>
-6.82393

>  <SCORE.INTRA.norm>
0.249907

>  <SCORE.RESTR>
9.9206

>  <SCORE.RESTR.CAVITY>
9.9206

>  <SCORE.RESTR.norm>
0.190781

>  <SCORE.SYSTEM>
0

>  <SCORE.SYSTEM.CONST>
0

>  <SCORE.SYSTEM.DIHEDRAL>
0

>  <SCORE.SYSTEM.SOLV>
0

>  <SCORE.SYSTEM.norm>
0

>  <SCORE.heavy>
52

>  <SCORE.norm>
0.362773

>  <RMSD>
4.979

$$$$
2fd0_lig
 OpenBabel11021811433D
libRbt.so/2013.1/901 2013/11/27
 52 56  0  0  0  0  0  0  0  0999 V2000
    4.5931  -45.6440   14.1096 C   0  0  2  0  0  0  0  0  0  0  0  0
    3.8049  -46.7946   13.7753 O   0  0  0  0  0  0  0  0  0  0  0  0
    4.8915  -49.7434   16.7781 C   0  0  2  0  0  0  0  0  0  0  0  0
    4.8314  -50.9015   17.6848 N   0  0  0  0  0  0  0  0  0  0  0  0
    3.5607  -50.1114   12.4800 C   0  0  1  0  0  0  0  0  0  0  0  0
    0.1366  -49.2103   10.2711 C   0  0  1  0  0  0  0  0  0  0  0  0
   -1.9813  -48.7365    6.0042 C   0  0  1  0  0  0  0  0  0  0  0  0
    4.4929  -44.6095   12.9301 C   0  0  2  0  0  0  0  0  0  0  0  0
    3.1129  -44.2393   12.6488 N   0  0  0  0  0  0  0  0  0  0  0  0
    3.6827  -48.7502   17.0702 C   0  0  0  0  0  0  0  0  0  0  0  0
    2.8207  -49.1732   11.5443 C   0  0  2  0  0  0  0  0  0  0  0  0
    1.7871  -48.4121   12.2303 O   0  0  0  0  0  0  0  0  0  0  0  0
   -1.3739  -49.7362   10.3073 C   0  0  2  0  0  0  0  0  0  0  0  0
   -1.5483  -50.8861    9.3784 N   0  0  0  0  0  0  0  0  0  0  0  0
   -3.2257  -49.5558    5.5946 C   0  0  1  0  0  0  0  0  0  0  0  0
   -4.4074  -48.7332    5.7583 O   0  0  0  0  0  0  0  0  0  0  0  0
    5.2087  -45.1716   11.6463 C   0  0  0  0  0  0  0  0  0  0  0  0
    3.7565  -47.4846   16.0892 C   0  0  2  0  0  0  0  0  0  0  0  0
    2.6477  -46.5513   16.3370 N   0  0  0  0  0  0  0  0  0  0  0  0
    2.3441  -50.1012   10.4396 C   0  0  2  0  0  0  0  0  0  0  0  0
    0.9604  -50.3140   10.5096 O   0  0  0  0  0  0  0  0  0  0  0  0
   -2.3331  -48.4658   10.0300 C   0  0  1  0  0  0  0  0  0  0  0  0
   -2.0401  -47.4637   11.0205 O   0  0  0  0  0  0  0  0  0  0  0  0
   -3.2488  -50.1532    4.1615 C   0  0  1  0  0  0  0  0  0  0  0  0
   -3.9162  -49.2184    3.3043 O   0  0  0  0  0  0  0  0  0  0  0  0
    6.6824  -45.5376   12.0193 C   0  0  2  0  0  0  0  0  0  0  0  0
    7.3718  -46.0345   10.8766 O   0  0  0  0  0  0  0  0  0  0  0  0
    3.7201  -47.9790   14.6162 C   0  0  2  0  0  0  0  0  0  0  0  0
    2.9821  -51.4947   10.6535 C   0  0  2  0  0  0  0  0  0  0  0  0
    3.8967  -51.2548   11.7134 O   0  0  0  0  0  0  0  0  0  0  0  0
   -2.0368  -47.7900    8.5913 C   0  0  2  0  0  0  0  0  0  0  0  0
   -2.3587  -48.8184    7.6362 O   0  0  0  0  0  0  0  0  0  0  0  0
   -1.8728  -50.4980    3.5464 C   0  0  2  0  0  0  0  0  0  0  0  0
   -2.0526  -51.7601    2.8671 O   0  0  0  0  0  0  0  0  0  0  0  0
    6.6798  -46.6111   13.1451 C   0  0  2  0  0  0  0  0  0  0  0  0
    5.9706  -46.0503   14.3164 O   0  0  0  0  0  0  0  0  0  0  0  0
    4.8525  -49.0013   14.2944 C   0  0  2  0  0  0  0  0  0  0  0  0
    4.6856  -49.4171   12.9177 O   0  0  0  0  0  0  0  0  0  0  0  0
    3.7617  -52.0390    9.4617 C   0  0  0  0  0  0  0  0  0  0  0  0
    4.6073  -50.9780    8.9921 O   0  0  0  0  0  0  0  0  0  0  0  0
   -0.5397  -47.5474    8.5538 C   0  0  1  0  0  0  0  0  0  0  0  0
    0.4585  -48.5174    8.9344 O   0  0  0  0  0  0  0  0  0  0  0  0
   -0.7861  -50.5306    4.6176 C   0  0  2  0  0  0  0  0  0  0  0  0
   -0.7321  -49.3509    5.4666 O   0  0  0  0  0  0  0  0  0  0  0  0
    8.0645  -46.9796   13.5739 C   0  0  0  0  0  0  0  0  0  0  0  0
    7.9633  -47.9549   14.5760 O   0  0  0  0  0  0  0  0  0  0  0  0
    4.7699  -50.2262   15.2769 C   0  0  1  0  0  0  0  0  0  0  0  0
    5.8808  -51.1406   14.9782 O   0  0  0  0  0  0  0  0  0  0  0  0
   -0.0466  -46.9292    7.1977 C   0  0  0  0  0  0  0  0  0  0  0  0
    1.1815  -46.1084    7.3300 N   0  0  0  0  0  0  0  0  0  0  0  0
    0.6717  -50.8366    4.2815 C   0  0  0  0  0  0  0  0  0  0  0  0
    1.4866  -50.8224    5.4941 O   0  0  0  0  0  0  0  0  0  0  0  0
  1  2  1  6  0  0  0
  1  8  1  0  0  0  0
  1 36  1  0  0  0  0
  3  4  1  1  0  0  0
  3 10  1  0  0  0  0
  3 47  1  0  0  0  0
  5 11  1  0  0  0  0
  5 30  1  0  0  0  0
  5 38  1  6  0  0  0
  6 21  1  6  0  0  0
  6 42  1  0  0  0  0
  7 15  1  0  0  0  0
  7 44  1  0  0  0  0
  7 32  1  1  0  0  0
  8  9  1  6  0  0  0
  8 17  1  0  0  0  0
 11 12  1  1  0  0  0
 11 20  1  0  0  0  0
 13  6  1  0  0  0  0
 13 14  1  6  0  0  0
 15 16  1  6  0  0  0
 15 24  1  0  0  0  0
 17 26  1  0  0  0  0
 18 10  1  0  0  0  0
 18 19  1  1  0  0  0
 20 21  1  1  0  0  0
 20 29  1  0  0  0  0
 22 13  1  0  0  0  0
 22 23  1  1  0  0  0
 24 25  1  6  0  0  0
 24 33  1  0  0  0  0
 26 27  1  6  0  0  0
 26 35  1  0  0  0  0
 28  2  1  6  0  0  0
 28 18  1  0  0  0  0
 29 30  1  0  0  0  0
 29 39  1  6  0  0  0
 31 22  1  0  0  0  0
 31 32  1  6  0  0  0
 31 41  1  0  0  0  0
 33 34  1  1  0  0  0
 33 43  1  0  0  0  0
 35 36  1  0  0  0  0
 35 45  1  1  0  0  0
 37 28  1  0  0  0  0
 37 38  1  6  0  0  0
 39 40  1  0  0  0  0
 41 42  1  0  0  0  0
 41 49  1  6  0  0  0
 43 44  1  0  0  0  0
 43 51  1  6  0  0  0
 45 46  1  0  0  0  0
 47 37  1  0  0  0  0
 47 48  1  6  0  0  0
 49 50  1  0  0  0  0
 51 52  1  0  0  0  0
M  END
>  <CHROM.1>
177.03249707,112.88235190,176.08451022,-148.60217974,65.85723580,35.96767816
46.83909948,-168.97369668,-179.47650408,-63.77716614,152.29592151,-179.10498515
1.99923934,-48.71687976,10.49566044,0.51526392,-0.77542087,0.48617342

>  <Name>
2fd0_lig

>  <RI>
2.00683e+07

>  <Rbt.Current_Directory>
/home/itssahil/PROJECTS/Mol_Feturizer/New_Systems/rnas/2fd0

>  <Rbt.Executable>
rbdock ($Id: //depot/dev/client3/rdock/2013.1/src/exe/rbdock.cxx#4 $)

>  <Rbt.Library>
libRbt.so (2013.1, Build901 2013/11/27)

>  <Rbt.Parameter_File>
/export/apps/rDock/src/rDock_2013.1_src/data/scripts/dock_solv.prm

>  <Rbt.Receptor>
prm/pocket_docking_4.prm

>  <SCORE>
-14.5135

>  <SCORE.INTER>
-12.8158

>  <SCORE.INTER.CONST>
1

>  <SCORE.INTER.POLAR>
-1.9408

>  <SCORE.INTER.ROT>
12

>  <SCORE.INTER.SOLV>
22.9567

>  <SCORE.INTER.VDW>
-21.3268

>  <SCORE.INTER.norm>
-0.246458

>  <SCORE.INTRA>
-1.90929

>  <SCORE.INTRA.DIHEDRAL>
-5.95371

>  <SCORE.INTRA.DIHEDRAL.0>
23.9727

>  <SCORE.INTRA.POLAR>
0

>  <SCORE.INTRA.POLAR.0>
0

>  <SCORE.INTRA.REPUL>
0.00865123

>  <SCORE.INTRA.REPUL.0>
0

>  <SCORE.INTRA.SOLV>
-3.13499

>  <SCORE.INTRA.SOLV.lig_0>
-115.028

>  <SCORE.INTRA.VDW>
2.5918

>  <SCORE.INTRA.VDW.0>
-6.82393

>  <SCORE.INTRA.norm>
-0.0367171

>  <SCORE.RESTR>
0.211616

>  <SCORE.RESTR.CAVITY>
0.211616

>  <SCORE.RESTR.norm>
0.00406953

>  <SCORE.SYSTEM>
0

>  <SCORE.SYSTEM.CONST>
0

>  <SCORE.SYSTEM.DIHEDRAL>
0

>  <SCORE.SYSTEM.SOLV>
0

>  <SCORE.SYSTEM.norm>
0

>  <SCORE.heavy>
52

>  <SCORE.norm>
-0.279105

>  <RMSD>
4.982

$$$$
2fd0_lig
 OpenBabel11021811433D
libRbt.so/2013.1/901 2013/11/27
 52 56  0  0  0  0  0  0  0  0999 V2000
    1.5977  -48.3114   14.9808 C   0  0  2  0  0  0  0  0  0  0  0  0
    2.1749  -47.0657   15.3958 O   0  0  0  0  0  0  0  0  0  0  0  0
    1.0544  -42.8781   15.0778 C   0  0  2  0  0  0  0  0  0  0  0  0
    0.7554  -41.5507   14.5161 N   0  0  0  0  0  0  0  0  0  0  0  0
   -0.4304  -46.7219   13.1383 C   0  0  1  0  0  0  0  0  0  0  0  0
   -2.4321  -49.4263   10.5282 C   0  0  1  0  0  0  0  0  0  0  0  0
   -4.1582  -51.6598    6.3420 C   0  0  1  0  0  0  0  0  0  0  0  0
    1.9638  -49.4107   16.0433 C   0  0  2  0  0  0  0  0  0  0  0  0
    1.5183  -49.0428   17.3801 N   0  0  0  0  0  0  0  0  0  0  0  0
    2.5403  -43.3122   14.7080 C   0  0  0  0  0  0  0  0  0  0  0  0
   -1.5567  -47.7097   12.8950 C   0  0  2  0  0  0  0  0  0  0  0  0
   -1.1130  -49.0911   13.0095 O   0  0  0  0  0  0  0  0  0  0  0  0
   -1.8646  -50.2786    9.2990 C   0  0  2  0  0  0  0  0  0  0  0  0
   -1.9276  -49.4856    8.0410 N   0  0  0  0  0  0  0  0  0  0  0  0
   -4.6790  -50.4684    5.5071 C   0  0  1  0  0  0  0  0  0  0  0  0
   -3.6861  -49.4130    5.5199 O   0  0  0  0  0  0  0  0  0  0  0  0
    3.5092  -49.7064   16.0152 C   0  0  0  0  0  0  0  0  0  0  0  0
    2.8673  -44.7529   15.3299 C   0  0  2  0  0  0  0  0  0  0  0  0
    4.2353  -45.1792   15.0001 N   0  0  0  0  0  0  0  0  0  0  0  0
   -2.0891  -47.2900   11.5353 C   0  0  2  0  0  0  0  0  0  0  0  0
   -1.7385  -48.2127   10.5400 O   0  0  0  0  0  0  0  0  0  0  0  0
   -2.6634  -51.6831    9.2772 C   0  0  1  0  0  0  0  0  0  0  0  0
   -2.4849  -52.3153   10.5576 O   0  0  0  0  0  0  0  0  0  0  0  0
   -5.0683  -50.7462    4.0298 C   0  0  1  0  0  0  0  0  0  0  0  0
   -3.9239  -50.4699    3.2123 O   0  0  0  0  0  0  0  0  0  0  0  0
    3.9127  -50.1022   14.5574 C   0  0  2  0  0  0  0  0  0  0  0  0
    5.3047  -50.3964   14.4933 O   0  0  0  0  0  0  0  0  0  0  0  0
    1.8402  -45.7864   14.7888 C   0  0  2  0  0  0  0  0  0  0  0  0
   -1.4040  -45.9654   11.1223 C   0  0  2  0  0  0  0  0  0  0  0  0
   -0.6858  -45.6117   12.2956 O   0  0  0  0  0  0  0  0  0  0  0  0
   -4.2549  -51.4680    9.0890 C   0  0  2  0  0  0  0  0  0  0  0  0
   -4.3852  -50.8519    7.7940 O   0  0  0  0  0  0  0  0  0  0  0  0
   -5.5709  -52.1744    3.7162 C   0  0  2  0  0  0  0  0  0  0  0  0
   -6.6793  -52.0082    2.8049 O   0  0  0  0  0  0  0  0  0  0  0  0
    3.5733  -48.9318   13.5907 C   0  0  2  0  0  0  0  0  0  0  0  0
    2.1194  -48.6699   13.6752 O   0  0  0  0  0  0  0  0  0  0  0  0
    0.3634  -45.3769   15.0757 C   0  0  2  0  0  0  0  0  0  0  0  0
   -0.4909  -46.3877   14.4887 O   0  0  0  0  0  0  0  0  0  0  0  0
   -2.3555  -44.8242   10.7807 C   0  0  0  0  0  0  0  0  0  0  0  0
   -3.1478  -44.5723   11.9511 O   0  0  0  0  0  0  0  0  0  0  0  0
   -4.6592  -50.4588   10.1470 C   0  0  1  0  0  0  0  0  0  0  0  0
   -3.9552  -49.2291   10.4198 O   0  0  0  0  0  0  0  0  0  0  0  0
   -5.9394  -52.9193    4.9964 C   0  0  2  0  0  0  0  0  0  0  0  0
   -4.9110  -52.9086    6.0248 O   0  0  0  0  0  0  0  0  0  0  0  0
    3.9034  -49.2622   12.1698 C   0  0  0  0  0  0  0  0  0  0  0  0
    5.2991  -49.3229   12.0515 O   0  0  0  0  0  0  0  0  0  0  0  0
    0.0693  -43.9559   14.4700 C   0  0  1  0  0  0  0  0  0  0  0  0
   -1.3121  -43.5822   14.8041 O   0  0  0  0  0  0  0  0  0  0  0  0
   -6.1822  -50.0820   10.0931 C   0  0  0  0  0  0  0  0  0  0  0  0
   -7.0809  -51.1721   10.5442 N   0  0  0  0  0  0  0  0  0  0  0  0
   -6.4556  -54.3563    4.9757 C   0  0  0  0  0  0  0  0  0  0  0  0
   -5.4920  -55.2331    4.3144 O   0  0  0  0  0  0  0  0  0  0  0  0
  1  2  1  1  0  0  0
  1  8  1  0  0  0  0
  1 36  1  0  0  0  0
  3  4  1  6  0  0  0
  3 10  1  0  0  0  0
  3 47  1  0  0  0  0
  5 11  1  0  0  0  0
  5 30  1  0  0  0  0
  5 38  1  1  0  0  0
  6 21  1  6  0  0  0
  6 42  1  0  0  0  0
  7 15  1  0  0  0  0
  7 44  1  0  0  0  0
  7 32  1  1  0  0  0
  8  9  1  1  0  0  0
  8 17  1  0  0  0  0
 11 12  1  6  0  0  0
 11 20  1  0  0  0  0
 13  6  1  0  0  0  0
 13 14  1  6  0  0  0
 15 16  1  6  0  0  0
 15 24  1  0  0  0  0
 17 26  1  0  0  0  0
 18 10  1  0  0  0  0
 18 19  1  6  0  0  0
 20 21  1  6  0  0  0
 20 29  1  0  0  0  0
 22 13  1  0  0  0  0
 22 23  1  1  0  0  0
 24 25  1  6  0  0  0
 24 33  1  0  0  0  0
 26 27  1  1  0  0  0
 26 35  1  0  0  0  0
 28  2  1  1  0  0  0
 28 18  1  0  0  0  0
 29 30  1  0  0  0  0
 29 39  1  1  0  0  0
 31 22  1  0  0  0  0
 31 32  1  6  0  0  0
 31 41  1  0  0  0  0
 33 34  1  6  0  0  0
 33 43  1  0  0  0  0
 35 36  1  0  0  0  0
 35 45  1  6  0  0  0
 37 28  1  0  0  0  0
 37 38  1  6  0  0  0
 39 40  1  0  0  0  0
 41 42  1  0  0  0  0
 41 49  1  6  0  0  0
 43 44  1  0  0  0  0
 43 51  1  6  0  0  0
 45 46  1  0  0  0  0
 47 37  1  0  0  0  0
 47 48  1  1  0  0  0
 49 50  1  0  0  0  0
 51 52  1  0  0  0  0
M  END
>  <CHROM.1>
-168.35916708,-174.77172426,179.17583467,171.35871408,74.30619208,-169.37676091
59.76283215,72.80815407,-69.14450442,-56.58307030,71.04666593,57.25312056
-1.28886483,-48.71414738,10.97837049,-0.79502440,0.64408482,-2.65517024

>  <Name>
2fd0_lig

>  <RI>
0

>  <Rbt.Current_Directory>
/home/itssahil/PROJECTS/Mol_Feturizer/New_Systems/rnas/2fd0

>  <Rbt.Executable>
rbdock ($Id: //depot/dev/client3/rdock/2013.1/src/exe/rbdock.cxx#4 $)

>  <Rbt.Library>
libRbt.so (2013.1, Build901 2013/11/27)

>  <Rbt.Parameter_File>
/export/apps/rDock/src/rDock_2013.1_src/data/scripts/dock_solv.prm

>  <Rbt.Receptor>
prm/pocket_docking_8.prm

>  <SCORE>
-16.5378

>  <SCORE.INTER>
-7.04674

>  <SCORE.INTER.CONST>
1

>  <SCORE.INTER.POLAR>
-0.938083

>  <SCORE.INTER.ROT>
12

>  <SCORE.INTER.SOLV>
22.0001

>  <SCORE.INTER.VDW>
-20.5043

>  <SCORE.INTER.norm>
-0.135514

>  <SCORE.INTRA>
-9.49102

>  <SCORE.INTRA.DIHEDRAL>
-18.2703

>  <SCORE.INTRA.DIHEDRAL.0>
23.9727

>  <SCORE.INTRA.POLAR>
0

>  <SCORE.INTRA.POLAR.0>
0

>  <SCORE.INTRA.REPUL>
0

>  <SCORE.INTRA.REPUL.0>
0

>  <SCORE.INTRA.SOLV>
-2.77302

>  <SCORE.INTRA.SOLV.lig_0>
-115.028

>  <SCORE.INTRA.VDW>
1.03062

>  <SCORE.INTRA.VDW.0>
-6.82393

>  <SCORE.INTRA.norm>
-0.18252

>  <SCORE.RESTR>
0

>  <SCORE.RESTR.CAVITY>
0

>  <SCORE.RESTR.norm>
0

>  <SCORE.SYSTEM>
0

>  <SCORE.SYSTEM.CONST>
0

>  <SCORE.SYSTEM.DIHEDRAL>
0

>  <SCORE.SYSTEM.SOLV>
0

>  <SCORE.SYSTEM.norm>
0

>  <SCORE.heavy>
52

>  <SCORE.norm>
-0.318034

>  <RMSD>
5.024

$$$$
2fd0_lig
 OpenBabel11021811433D
libRbt.so/2013.1/901 2013/11/27
 52 56  0  0  0  0  0  0  0  0999 V2000
    3.3770  -47.6768   15.7083 C   0  0  2  0  0  0  0  0  0  0  0  0
    3.6923  -47.9441   14.3350 O   0  0  0  0  0  0  0  0  0  0  0  0
    7.8453  -46.6987   14.0288 C   0  0  2  0  0  0  0  0  0  0  0  0
    9.2022  -46.4769   13.5027 N   0  0  0  0  0  0  0  0  0  0  0  0
    4.4943  -45.4940   11.4300 C   0  0  1  0  0  0  0  0  0  0  0  0
    4.0980  -48.1402    7.8711 C   0  0  1  0  0  0  0  0  0  0  0  0
    0.9942  -51.6199    9.6415 C   0  0  1  0  0  0  0  0  0  0  0  0
    1.8757  -48.0683   15.9620 C   0  0  2  0  0  0  0  0  0  0  0  0
    1.6131  -49.4598   15.6222 N   0  0  0  0  0  0  0  0  0  0  0  0
    7.5012  -48.2526   14.0311 C   0  0  0  0  0  0  0  0  0  0  0  0
    4.2519  -46.8960   10.9015 C   0  0  2  0  0  0  0  0  0  0  0  0
    5.4869  -47.6525   10.7581 O   0  0  0  0  0  0  0  0  0  0  0  0
    2.6595  -48.1432    7.1710 C   0  0  2  0  0  0  0  0  0  0  0  0
    1.6020  -47.7711    8.1501 N   0  0  0  0  0  0  0  0  0  0  0  0
    0.1603  -52.5154    8.6978 C   0  0  1  0  0  0  0  0  0  0  0  0
    1.0588  -53.2769    7.8536 O   0  0  0  0  0  0  0  0  0  0  0  0
    0.9165  -47.0964   15.1798 C   0  0  0  0  0  0  0  0  0  0  0  0
    6.0276  -48.4925   14.6145 C   0  0  2  0  0  0  0  0  0  0  0  0
    5.6834  -49.9220   14.6251 N   0  0  0  0  0  0  0  0  0  0  0  0
    3.4695  -46.6467    9.6231 C   0  0  2  0  0  0  0  0  0  0  0  0
    4.2514  -46.8945    8.4865 O   0  0  0  0  0  0  0  0  0  0  0  0
    2.4734  -49.5816    6.4587 C   0  0  1  0  0  0  0  0  0  0  0  0
    3.5682  -49.7688    5.5436 O   0  0  0  0  0  0  0  0  0  0  0  0
   -0.8420  -53.5050    9.3513 C   0  0  1  0  0  0  0  0  0  0  0  0
   -0.1760  -54.7633    9.5163 O   0  0  0  0  0  0  0  0  0  0  0  0
    1.2478  -45.6272   15.5999 C   0  0  2  0  0  0  0  0  0  0  0  0
    0.3866  -44.7150   14.9258 O   0  0  0  0  0  0  0  0  0  0  0  0
    5.0036  -47.7024   13.7527 C   0  0  2  0  0  0  0  0  0  0  0  0
    3.1075  -45.1440    9.5489 C   0  0  2  0  0  0  0  0  0  0  0  0
    3.5197  -44.6651   10.8210 O   0  0  0  0  0  0  0  0  0  0  0  0
    2.5521  -50.7958    7.5236 C   0  0  2  0  0  0  0  0  0  0  0  0
    1.4334  -50.5773    8.4036 O   0  0  0  0  0  0  0  0  0  0  0  0
   -1.4342  -53.0730   10.7127 C   0  0  2  0  0  0  0  0  0  0  0  0
   -2.8308  -53.4389   10.6661 O   0  0  0  0  0  0  0  0  0  0  0  0
    2.7308  -45.3115   15.2521 C   0  0  2  0  0  0  0  0  0  0  0  0
    3.5904  -46.2682   15.9836 O   0  0  0  0  0  0  0  0  0  0  0  0
    5.3305  -46.1801   13.6712 C   0  0  2  0  0  0  0  0  0  0  0  0
    4.3396  -45.5671   12.8120 O   0  0  0  0  0  0  0  0  0  0  0  0
    1.6220  -44.8440    9.3823 C   0  0  0  0  0  0  0  0  0  0  0  0
    0.9449  -45.4373   10.5006 O   0  0  0  0  0  0  0  0  0  0  0  0
    3.8327  -50.5717    8.3056 C   0  0  1  0  0  0  0  0  0  0  0  0
    4.2413  -49.3064    8.8660 O   0  0  0  0  0  0  0  0  0  0  0  0
   -1.2007  -51.5859   10.9650 C   0  0  2  0  0  0  0  0  0  0  0  0
    0.1763  -51.1485   10.7973 O   0  0  0  0  0  0  0  0  0  0  0  0
    3.1225  -43.9278   15.6630 C   0  0  0  0  0  0  0  0  0  0  0  0
    2.4577  -43.0217   14.8248 O   0  0  0  0  0  0  0  0  0  0  0  0
    6.7844  -45.9689   13.1106 C   0  0  1  0  0  0  0  0  0  0  0  0
    7.0754  -44.5285   13.0971 O   0  0  0  0  0  0  0  0  0  0  0  0
    4.0640  -51.6388    9.4335 C   0  0  0  0  0  0  0  0  0  0  0  0
    4.2552  -53.0164    8.9187 N   0  0  0  0  0  0  0  0  0  0  0  0
   -1.6757  -50.8982   12.2430 C   0  0  0  0  0  0  0  0  0  0  0  0
   -1.0092  -51.4748   13.4083 O   0  0  0  0  0  0  0  0  0  0  0  0
  1  2  1  6  0  0  0
  1  8  1  0  0  0  0
  1 36  1  0  0  0  0
  3  4  1  6  0  0  0
  3 10  1  0  0  0  0
  3 47  1  0  0  0  0
  5 11  1  0  0  0  0
  5 30  1  0  0  0  0
  5 38  1  1  0  0  0
  6 21  1  1  0  0  0
  6 42  1  0  0  0  0
  7 15  1  0  0  0  0
  7 44  1  0  0  0  0
  7 32  1  6  0  0  0
  8  9  1  6  0  0  0
  8 17  1  0  0  0  0
 11 12  1  6  0  0  0
 11 20  1  0  0  0  0
 13  6  1  0  0  0  0
 13 14  1  1  0  0  0
 15 16  1  1  0  0  0
 15 24  1  0  0  0  0
 17 26  1  0  0  0  0
 18 10  1  0  0  0  0
 18 19  1  6  0  0  0
 20 21  1  6  0  0  0
 20 29  1  0  0  0  0
 22 13  1  0  0  0  0
 22 23  1  6  0  0  0
 24 25  1  1  0  0  0
 24 33  1  0  0  0  0
 26 27  1  6  0  0  0
 26 35  1  0  0  0  0
 28  2  1  1  0  0  0
 28 18  1  0  0  0  0
 29 30  1  0  0  0  0
 29 39  1  1  0  0  0
 31 22  1  0  0  0  0
 31 32  1  1  0  0  0
 31 41  1  0  0  0  0
 33 34  1  6  0  0  0
 33 43  1  0  0  0  0
 35 36  1  0  0  0  0
 35 45  1  1  0  0  0
 37 28  1  0  0  0  0
 37 38  1  6  0  0  0
 39 40  1  0  0  0  0
 41 42  1  0  0  0  0
 41 49  1  1  0  0  0
 43 44  1  0  0  0  0
 43 51  1  1  0  0  0
 45 46  1  0  0  0  0
 47 37  1  0  0  0  0
 47 48  1  1  0  0  0
 49 50  1  0  0  0  0
 51 52  1  0  0  0  0
M  END
>  <CHROM.1>
-179.79004306,73.91977993,70.87236440,-85.12002113,97.95270270,55.79165183
58.47808161,175.86862149,-69.84664692,-87.53209629,64.27797403,62.51144862
2.83535024,-48.44006919,11.49657056,0.96945504,0.67503100,1.08991385

>  <Name>
2fd0_lig

>  <RI>
0

>  <Rbt.Current_Directory>
/home/itssahil/PROJECTS/Mol_Feturizer/New_Systems/rnas/2fd0

>  <Rbt.Executable>
rbdock ($Id: //depot/dev/client3/rdock/2013.1/src/exe/rbdock.cxx#4 $)

>  <Rbt.Library>
libRbt.so (2013.1, Build901 2013/11/27)

>  <Rbt.Parameter_File>
/export/apps/rDock/src/rDock_2013.1_src/data/scripts/dock_solv.prm

>  <Rbt.Receptor>
prm/pocket_docking_6.prm

>  <SCORE>
-25.7686

>  <SCORE.INTER>
-24.4952

>  <SCORE.INTER.CONST>
1

>  <SCORE.INTER.POLAR>
-2.83635

>  <SCORE.INTER.ROT>
12

>  <SCORE.INTER.SOLV>
20.8739

>  <SCORE.INTER.VDW>
-25.4336

>  <SCORE.INTER.norm>
-0.471061

>  <SCORE.INTRA>
-1.27344

>  <SCORE.INTRA.DIHEDRAL>
-9.37319

>  <SCORE.INTRA.DIHEDRAL.0>
23.9727

>  <SCORE.INTRA.POLAR>
0

>  <SCORE.INTRA.POLAR.0>
0

>  <SCORE.INTRA.REPUL>
0.0313944

>  <SCORE.INTRA.REPUL.0>
0

>  <SCORE.INTRA.SOLV>
2.17358

>  <SCORE.INTRA.SOLV.lig_0>
-115.028

>  <SCORE.INTRA.VDW>
2.16939

>  <SCORE.INTRA.VDW.0>
-6.82393

>  <SCORE.INTRA.norm>
-0.0244893

>  <SCORE.RESTR>
0

>  <SCORE.RESTR.CAVITY>
0

>  <SCORE.RESTR.norm>
0

>  <SCORE.SYSTEM>
0

>  <SCORE.SYSTEM.CONST>
0

>  <SCORE.SYSTEM.DIHEDRAL>
0

>  <SCORE.SYSTEM.SOLV>
0

>  <SCORE.SYSTEM.norm>
0

>  <SCORE.heavy>
52

>  <SCORE.norm>
-0.49555

>  <RMSD>
5.040

$$$$
2fd0_lig
 OpenBabel11021811433D
libRbt.so/2013.1/901 2013/11/27
 52 56  0  0  0  0  0  0  0  0999 V2000
    2.9851  -44.4400   12.3749 C   0  0  2  0  0  0  0  0  0  0  0  0
    4.0227  -45.1946   13.0161 O   0  0  0  0  0  0  0  0  0  0  0  0
    4.6450  -48.2573   16.0368 C   0  0  2  0  0  0  0  0  0  0  0  0
    4.4154  -49.4009   16.9349 N   0  0  0  0  0  0  0  0  0  0  0  0
    3.3747  -48.2895   11.6547 C   0  0  1  0  0  0  0  0  0  0  0  0
    1.0616  -50.4825    8.3790 C   0  0  1  0  0  0  0  0  0  0  0  0
   -3.6423  -50.7480    7.7027 C   0  0  1  0  0  0  0  0  0  0  0  0
    3.6360  -43.5401   11.2623 C   0  0  2  0  0  0  0  0  0  0  0  0
    4.3870  -44.3298   10.2964 N   0  0  0  0  0  0  0  0  0  0  0  0
    3.5561  -47.1255   16.2947 C   0  0  0  0  0  0  0  0  0  0  0  0
    3.6011  -48.5573   10.1780 C   0  0  2  0  0  0  0  0  0  0  0  0
    3.3114  -47.3921    9.3555 O   0  0  0  0  0  0  0  0  0  0  0  0
   -0.1523  -49.8393    7.5590 C   0  0  2  0  0  0  0  0  0  0  0  0
   -1.1049  -49.1634    8.4816 N   0  0  0  0  0  0  0  0  0  0  0  0
   -4.4962  -50.9038    8.9811 C   0  0  1  0  0  0  0  0  0  0  0  0
   -3.9141  -50.1018   10.0384 O   0  0  0  0  0  0  0  0  0  0  0  0
    4.5357  -42.4264   11.9155 C   0  0  0  0  0  0  0  0  0  0  0  0
    3.8147  -45.8768   15.3235 C   0  0  2  0  0  0  0  0  0  0  0  0
    2.8193  -44.8165   15.5399 N   0  0  0  0  0  0  0  0  0  0  0  0
    2.7451  -49.7859    9.9203 C   0  0  2  0  0  0  0  0  0  0  0  0
    1.6024  -49.4676    9.1736 O   0  0  0  0  0  0  0  0  0  0  0  0
   -0.7847  -51.0075    6.6390 C   0  0  1  0  0  0  0  0  0  0  0  0
    0.2652  -51.5361    5.8087 O   0  0  0  0  0  0  0  0  0  0  0  0
   -6.0045  -50.5488    8.8815 C   0  0  1  0  0  0  0  0  0  0  0  0
   -6.1618  -49.1778    9.2687 O   0  0  0  0  0  0  0  0  0  0  0  0
    3.6646  -41.6158   12.9298 C   0  0  2  0  0  0  0  0  0  0  0  0
    4.4396  -40.5832   13.5309 O   0  0  0  0  0  0  0  0  0  0  0  0
    3.7676  -46.3612   13.8474 C   0  0  2  0  0  0  0  0  0  0  0  0
    2.2133  -50.3121   11.2748 C   0  0  2  0  0  0  0  0  0  0  0  0
    2.9115  -49.5065   12.2134 O   0  0  0  0  0  0  0  0  0  0  0  0
   -1.3340  -52.2423    7.5266 C   0  0  2  0  0  0  0  0  0  0  0  0
   -2.3887  -51.6723    8.3244 O   0  0  0  0  0  0  0  0  0  0  0  0
   -6.6611  -50.7532    7.4967 C   0  0  2  0  0  0  0  0  0  0  0  0
   -7.9611  -51.3252    7.7602 O   0  0  0  0  0  0  0  0  0  0  0  0
    3.1191  -42.5754   14.0258 C   0  0  2  0  0  0  0  0  0  0  0  0
    2.3083  -43.6206   13.3627 O   0  0  0  0  0  0  0  0  0  0  0  0
    4.7781  -47.5125   13.5572 C   0  0  2  0  0  0  0  0  0  0  0  0
    4.6078  -47.9032   12.1736 O   0  0  0  0  0  0  0  0  0  0  0  0
    2.5290  -51.7742   11.5697 C   0  0  0  0  0  0  0  0  0  0  0  0
    1.6798  -52.1775   12.6548 O   0  0  0  0  0  0  0  0  0  0  0  0
   -0.1890  -52.6280    8.4439 C   0  0  1  0  0  0  0  0  0  0  0  0
    0.5993  -51.6933    9.2101 O   0  0  0  0  0  0  0  0  0  0  0  0
   -5.7840  -51.6195    6.5967 C   0  0  2  0  0  0  0  0  0  0  0  0
   -4.4001  -51.1842    6.4934 O   0  0  0  0  0  0  0  0  0  0  0  0
    2.2454  -41.8656   15.0107 C   0  0  0  0  0  0  0  0  0  0  0  0
    2.6950  -42.1861   16.2994 O   0  0  0  0  0  0  0  0  0  0  0  0
    4.5157  -48.7198   14.5300 C   0  0  1  0  0  0  0  0  0  0  0  0
    5.5171  -49.7615   14.2628 O   0  0  0  0  0  0  0  0  0  0  0  0
   -0.5508  -53.7965    9.4279 C   0  0  0  0  0  0  0  0  0  0  0  0
   -0.7381  -55.1045    8.7545 N   0  0  0  0  0  0  0  0  0  0  0  0
   -6.1904  -51.9705    5.1671 C   0  0  0  0  0  0  0  0  0  0  0  0
   -6.3722  -50.7549    4.3774 O   0  0  0  0  0  0  0  0  0  0  0  0
  1  2  1  1  0  0  0
  1  8  1  0  0  0  0
  1 36  1  0  0  0  0
  3  4  1  1  0  0  0
  3 10  1  0  0  0  0
  3 47  1  0  0  0  0
  5 11  1  0  0  0  0
  5 30  1  0  0  0  0
  5 38  1  1  0  0  0
  6 21  1  1  0  0  0
  6 42  1  0  0  0  0
  7 15  1  0  0  0  0
  7 44  1  0  0  0  0
  7 32  1  1  0  0  0
  8  9  1  6  0  0  0
  8 17  1  0  0  0  0
 11 12  1  6  0  0  0
 11 20  1  0  0  0  0
 13  6  1  0  0  0  0
 13 14  1  1  0  0  0
 15 16  1  1  0  0  0
 15 24  1  0  0  0  0
 17 26  1  0  0  0  0
 18 10  1  0  0  0  0
 18 19  1  6  0  0  0
 20 21  1  6  0  0  0
 20 29  1  0  0  0  0
 22 13  1  0  0  0  0
 22 23  1  6  0  0  0
 24 25  1  6  0  0  0
 24 33  1  0  0  0  0
 26 27  1  1  0  0  0
 26 35  1  0  0  0  0
 28  2  1  6  0  0  0
 28 18  1  0  0  0  0
 29 30  1  0  0  0  0
 29 39  1  1  0  0  0
 31 22  1  0  0  0  0
 31 32  1  1  0  0  0
 31 41  1  0  0  0  0
 33 34  1  1  0  0  0
 33 43  1  0  0  0  0
 35 36  1  0  0  0  0
 35 45  1  1  0  0  0
 37 28  1  0  0  0  0
 37 38  1  6  0  0  0
 39 40  1  0  0  0  0
 41 42  1  0  0  0  0
 41 49  1  1  0  0  0
 43 44  1  0  0  0  0
 43 51  1  6  0  0  0
 45 46  1  0  0  0  0
 47 37  1  0  0  0  0
 47 48  1  6  0  0  0
 49 50  1  0  0  0  0
 51 52  1  0  0  0  0
M  END
>  <CHROM.1>
-163.99452063,177.55313810,-175.93528635,163.87177990,152.46866676,-98.94661592
-164.94896894,50.42372899,-129.44837745,-55.11148316,68.85247594,59.03407396
0.69144955,-48.53523436,10.78997372,0.71568017,-0.53905384,0.25167865

>  <Name>
2fd0_lig

>  <RI>
0

>  <Rbt.Current_Directory>
/home/itssahil/PROJECTS/Mol_Feturizer/New_Systems/rnas/2fd0

>  <Rbt.Executable>
rbdock ($Id: //depot/dev/client3/rdock/2013.1/src/exe/rbdock.cxx#4 $)

>  <Rbt.Library>
libRbt.so (2013.1, Build901 2013/11/27)

>  <Rbt.Parameter_File>
/export/apps/rDock/src/rDock_2013.1_src/data/scripts/dock_solv.prm

>  <Rbt.Receptor>
prm/pocket_docking_8.prm

>  <SCORE>
-15.337

>  <SCORE.INTER>
-14.7262

>  <SCORE.INTER.CONST>
1

>  <SCORE.INTER.POLAR>
-2.49462

>  <SCORE.INTER.ROT>
12

>  <SCORE.INTER.SOLV>
14.6357

>  <SCORE.INTER.VDW>
-17.9806

>  <SCORE.INTER.norm>
-0.283196

>  <SCORE.INTRA>
-0.610849

>  <SCORE.INTRA.DIHEDRAL>
-5.10735

>  <SCORE.INTRA.DIHEDRAL.0>
23.9727

>  <SCORE.INTRA.POLAR>
0

>  <SCORE.INTRA.POLAR.0>
0

>  <SCORE.INTRA.REPUL>
0.000277849

>  <SCORE.INTRA.REPUL.0>
0

>  <SCORE.INTRA.SOLV>
1.73704

>  <SCORE.INTRA.SOLV.lig_0>
-115.028

>  <SCORE.INTRA.VDW>
1.07292

>  <SCORE.INTRA.VDW.0>
-6.82393

>  <SCORE.INTRA.norm>
-0.0117471

>  <SCORE.RESTR>
0

>  <SCORE.RESTR.CAVITY>
0

>  <SCORE.RESTR.norm>
0

>  <SCORE.SYSTEM>
0

>  <SCORE.SYSTEM.CONST>
0

>  <SCORE.SYSTEM.DIHEDRAL>
0

>  <SCORE.SYSTEM.SOLV>
0

>  <SCORE.SYSTEM.norm>
0

>  <SCORE.heavy>
52

>  <SCORE.norm>
-0.294943

>  <RMSD>
5.061

$$$$
2fd0_lig
 OpenBabel11021811433D
libRbt.so/2013.1/901 2013/11/27
 52 56  0  0  0  0  0  0  0  0999 V2000
    4.5825  -44.9658   11.8444 C   0  0  2  0  0  0  0  0  0  0  0  0
    4.0744  -45.4650   13.0892 O   0  0  0  0  0  0  0  0  0  0  0  0
    6.9740  -48.4432   14.3603 C   0  0  2  0  0  0  0  0  0  0  0  0
    7.8008  -49.3136   15.2122 N   0  0  0  0  0  0  0  0  0  0  0  0
    2.3151  -48.7152   12.9975 C   0  0  1  0  0  0  0  0  0  0  0  0
   -0.2939  -51.9190   11.5012 C   0  0  1  0  0  0  0  0  0  0  0  0
   -1.6677  -53.2206    6.8559 C   0  0  1  0  0  0  0  0  0  0  0  0
    3.6347  -43.8164   11.3424 C   0  0  2  0  0  0  0  0  0  0  0  0
    3.5078  -42.7496   12.3256 N   0  0  0  0  0  0  0  0  0  0  0  0
    7.2232  -46.9145   14.7262 C   0  0  0  0  0  0  0  0  0  0  0  0
    2.5215  -50.2044   13.2053 C   0  0  2  0  0  0  0  0  0  0  0  0
    3.5381  -50.7494   12.3178 O   0  0  0  0  0  0  0  0  0  0  0  0
   -0.1098  -53.1332   10.4760 C   0  0  2  0  0  0  0  0  0  0  0  0
    0.7471  -52.7232    9.3301 N   0  0  0  0  0  0  0  0  0  0  0  0
   -1.0178  -52.1392    5.9638 C   0  0  1  0  0  0  0  0  0  0  0  0
    0.3487  -51.9281    6.3974 O   0  0  0  0  0  0  0  0  0  0  0  0
    2.2283  -44.4003   10.9454 C   0  0  0  0  0  0  0  0  0  0  0  0
    6.3302  -45.9683   13.7899 C   0  0  2  0  0  0  0  0  0  0  0  0
    6.5401  -44.5486   14.1098 N   0  0  0  0  0  0  0  0  0  0  0  0
    1.1201  -50.7679   13.0410 C   0  0  2  0  0  0  0  0  0  0  0  0
    0.9859  -51.4648   11.8321 O   0  0  0  0  0  0  0  0  0  0  0  0
   -1.5859  -53.6629   10.0866 C   0  0  1  0  0  0  0  0  0  0  0  0
   -2.2633  -54.0245   11.3037 O   0  0  0  0  0  0  0  0  0  0  0  0
   -1.0041  -52.3894    4.4314 C   0  0  1  0  0  0  0  0  0  0  0  0
    0.2367  -53.0250    4.0989 O   0  0  0  0  0  0  0  0  0  0  0  0
    2.4408  -45.5291    9.8845 C   0  0  2  0  0  0  0  0  0  0  0  0
    1.1867  -46.0725    9.4844 O   0  0  0  0  0  0  0  0  0  0  0  0
    4.8321  -46.3411   13.9699 C   0  0  2  0  0  0  0  0  0  0  0  0
    0.1206  -49.5905   12.9457 C   0  0  2  0  0  0  0  0  0  0  0  0
    0.9403  -48.4671   13.2348 O   0  0  0  0  0  0  0  0  0  0  0  0
   -2.4768  -52.5066    9.3912 C   0  0  2  0  0  0  0  0  0  0  0  0
   -1.7729  -52.1907    8.1753 O   0  0  0  0  0  0  0  0  0  0  0  0
   -2.1659  -53.2422    3.8714 C   0  0  2  0  0  0  0  0  0  0  0  0
   -2.5569  -52.6073    2.6343 O   0  0  0  0  0  0  0  0  0  0  0  0
    3.3340  -46.6485   10.4917 C   0  0  2  0  0  0  0  0  0  0  0  0
    4.6296  -46.0470   10.8779 O   0  0  0  0  0  0  0  0  0  0  0  0
    4.5452  -47.8456   13.6785 C   0  0  2  0  0  0  0  0  0  0  0  0
    3.1367  -48.0757   13.9222 O   0  0  0  0  0  0  0  0  0  0  0  0
   -1.0187  -49.6256   13.9581 C   0  0  0  0  0  0  0  0  0  0  0  0
   -1.7211  -50.8617   13.7584 O   0  0  0  0  0  0  0  0  0  0  0  0
   -2.3941  -51.3113   10.3216 C   0  0  1  0  0  0  0  0  0  0  0  0
   -1.1736  -50.8063   10.9024 O   0  0  0  0  0  0  0  0  0  0  0  0
   -3.3012  -53.3552    4.8852 C   0  0  2  0  0  0  0  0  0  0  0  0
   -2.8915  -53.7834    6.2134 O   0  0  0  0  0  0  0  0  0  0  0  0
    3.6054  -47.7451    9.5115 C   0  0  0  0  0  0  0  0  0  0  0  0
    4.5814  -48.5876   10.0623 O   0  0  0  0  0  0  0  0  0  0  0  0
    5.4415  -48.7544   14.5968 C   0  0  1  0  0  0  0  0  0  0  0  0
    5.1822  -50.1607   14.2584 O   0  0  0  0  0  0  0  0  0  0  0  0
   -3.1701  -50.0558    9.7869 C   0  0  0  0  0  0  0  0  0  0  0  0
   -4.6422  -50.2329    9.7611 N   0  0  0  0  0  0  0  0  0  0  0  0
   -4.5704  -54.1523    4.5925 C   0  0  0  0  0  0  0  0  0  0  0  0
   -5.2212  -53.6468    3.3861 O   0  0  0  0  0  0  0  0  0  0  0  0
  1  2  1  1  0  0  0
  1  8  1  0  0  0  0
  1 36  1  0  0  0  0
  3  4  1  1  0  0  0
  3 10  1  0  0  0  0
  3 47  1  0  0  0  0
  5 11  1  0  0  0  0
  5 30  1  0  0  0  0
  5 38  1  1  0  0  0
  6 21  1  6  0  0  0
  6 42  1  0  0  0  0
  7 15  1  0  0  0  0
  7 44  1  0  0  0  0
  7 32  1  1  0  0  0
  8  9  1  1  0  0  0
  8 17  1  0  0  0  0
 11 12  1  6  0  0  0
 11 20  1  0  0  0  0
 13  6  1  0  0  0  0
 13 14  1  6  0  0  0
 15 16  1  1  0  0  0
 15 24  1  0  0  0  0
 17 26  1  0  0  0  0
 18 10  1  0  0  0  0
 18 19  1  1  0  0  0
 20 21  1  6  0  0  0
 20 29  1  0  0  0  0
 22 13  1  0  0  0  0
 22 23  1  1  0  0  0
 24 25  1  1  0  0  0
 24 33  1  0  0  0  0
 26 27  1  1  0  0  0
 26 35  1  0  0  0  0
 28  2  1  6  0  0  0
 28 18  1  0  0  0  0
 29 30  1  0  0  0  0
 29 39  1  1  0  0  0
 31 22  1  0  0  0  0
 31 32  1  6  0  0  0
 31 41  1  0  0  0  0
 33 34  1  6  0  0  0
 33 43  1  0  0  0  0
 35 36  1  0  0  0  0
 35 45  1  6  0  0  0
 37 28  1  0  0  0  0
 37 38  1  1  0  0  0
 39 40  1  0  0  0  0
 41 42  1  0  0  0  0
 41 49  1  6  0  0  0
 43 44  1  0  0  0  0
 43 51  1  6  0  0  0
 45 46  1  0  0  0  0
 47 37  1  0  0  0  0
 47 48  1  6  0  0  0
 49 50  1  0  0  0  0
 51 52  1  0  0  0  0
M  END
>  <CHROM.1>
-167.36317818,82.70963403,-157.28665168,171.47350991,-173.86556142,31.24571437
-58.30366016,69.88567593,170.54626288,129.72322841,67.88057488,-57.52907265
1.15213485,-49.74329700,10.42658601,-0.35719417,-0.85164161,-1.17967032

>  <Name>
2fd0_lig

>  <RI>
0

>  <Rbt.Current_Directory>
/home/itssahil/PROJECTS/Mol_Feturizer/New_Systems/rnas/2fd0

>  <Rbt.Executable>
rbdock ($Id: //depot/dev/client3/rdock/2013.1/src/exe/rbdock.cxx#4 $)

>  <Rbt.Library>
libRbt.so (2013.1, Build901 2013/11/27)

>  <Rbt.Parameter_File>
/export/apps/rDock/src/rDock_2013.1_src/data/scripts/dock_solv.prm

>  <Rbt.Receptor>
prm/pocket_docking_5.prm

>  <SCORE>
-14.0504

>  <SCORE.INTER>
-12.8162

>  <SCORE.INTER.CONST>
1

>  <SCORE.INTER.POLAR>
-1.63919

>  <SCORE.INTER.ROT>
12

>  <SCORE.INTER.SOLV>
12.2142

>  <SCORE.INTER.VDW>
-18.7516

>  <SCORE.INTER.norm>
-0.246466

>  <SCORE.INTRA>
-1.23417

>  <SCORE.INTRA.DIHEDRAL>
-5.51234

>  <SCORE.INTRA.DIHEDRAL.0>
23.9727

>  <SCORE.INTRA.POLAR>
0

>  <SCORE.INTRA.POLAR.0>
0

>  <SCORE.INTRA.REPUL>
0

>  <SCORE.INTRA.REPUL.0>
0

>  <SCORE.INTRA.SOLV>
-0.680322

>  <SCORE.INTRA.SOLV.lig_0>
-115.028

>  <SCORE.INTRA.VDW>
1.86216

>  <SCORE.INTRA.VDW.0>
-6.82393

>  <SCORE.INTRA.norm>
-0.023734

>  <SCORE.RESTR>
0

>  <SCORE.RESTR.CAVITY>
0

>  <SCORE.RESTR.norm>
0

>  <SCORE.SYSTEM>
0

>  <SCORE.SYSTEM.CONST>
0

>  <SCORE.SYSTEM.DIHEDRAL>
0

>  <SCORE.SYSTEM.SOLV>
0

>  <SCORE.SYSTEM.norm>
0

>  <SCORE.heavy>
52

>  <SCORE.norm>
-0.2702

>  <RMSD>
5.085

$$$$
2fd0_lig
 OpenBabel11021811433D
libRbt.so/2013.1/901 2013/11/27
 52 56  0  0  0  0  0  0  0  0999 V2000
    1.9215  -48.3425   14.8459 C   0  0  2  0  0  0  0  0  0  0  0  0
    2.5328  -47.1216   15.2848 O   0  0  0  0  0  0  0  0  0  0  0  0
    1.5206  -42.8975   15.1288 C   0  0  2  0  0  0  0  0  0  0  0  0
    1.2340  -41.5475   14.6165 N   0  0  0  0  0  0  0  0  0  0  0  0
   -0.1626  -46.6475   13.1654 C   0  0  1  0  0  0  0  0  0  0  0  0
   -2.3859  -49.2287   10.5367 C   0  0  1  0  0  0  0  0  0  0  0  0
   -4.4396  -51.0239    6.2898 C   0  0  1  0  0  0  0  0  0  0  0  0
    2.1667  -49.4456   15.9388 C   0  0  2  0  0  0  0  0  0  0  0  0
    1.6584  -49.0405   17.2420 N   0  0  0  0  0  0  0  0  0  0  0  0
    2.9741  -43.3625   14.6770 C   0  0  0  0  0  0  0  0  0  0  0  0
   -1.3075  -47.6216   12.9562 C   0  0  2  0  0  0  0  0  0  0  0  0
   -0.8695  -49.0083   13.0152 O   0  0  0  0  0  0  0  0  0  0  0  0
   -1.9324  -50.0204    9.2225 C   0  0  2  0  0  0  0  0  0  0  0  0
   -1.9976  -49.1322    8.0299 N   0  0  0  0  0  0  0  0  0  0  0  0
   -5.8134  -51.7179    6.4268 C   0  0  1  0  0  0  0  0  0  0  0  0
   -6.8593  -50.7215    6.3110 O   0  0  0  0  0  0  0  0  0  0  0  0
    3.6944  -49.8166   16.0095 C   0  0  0  0  0  0  0  0  0  0  0  0
    3.2882  -44.8280   15.2452 C   0  0  2  0  0  0  0  0  0  0  0  0
    4.6261  -45.2830   14.8392 N   0  0  0  0  0  0  0  0  0  0  0  0
   -1.9047  -47.1657   11.6356 C   0  0  2  0  0  0  0  0  0  0  0  0
   -1.6122  -48.0665   10.6021 O   0  0  0  0  0  0  0  0  0  0  0  0
   -2.8243  -51.3651    9.1383 C   0  0  1  0  0  0  0  0  0  0  0  0
   -2.6322  -52.1025   10.3591 O   0  0  0  0  0  0  0  0  0  0  0  0
   -6.1342  -52.8708    5.4374 C   0  0  1  0  0  0  0  0  0  0  0  0
   -6.8316  -52.3103    4.3176 O   0  0  0  0  0  0  0  0  0  0  0  0
    4.1670  -50.2490   14.5831 C   0  0  2  0  0  0  0  0  0  0  0  0
    5.5440  -50.6114   14.6083 O   0  0  0  0  0  0  0  0  0  0  0  0
    2.2071  -45.8175   14.7278 C   0  0  2  0  0  0  0  0  0  0  0  0
   -1.2310  -45.8361   11.2200 C   0  0  2  0  0  0  0  0  0  0  0  0
   -0.4516  -45.5156   12.3634 O   0  0  0  0  0  0  0  0  0  0  0  0
   -4.4044  -51.0351    9.0449 C   0  0  2  0  0  0  0  0  0  0  0  0
   -4.5503  -50.3157    7.8060 O   0  0  0  0  0  0  0  0  0  0  0  0
   -4.9219  -53.6764    4.9161 C   0  0  2  0  0  0  0  0  0  0  0  0
   -5.3422  -55.0584    4.9127 O   0  0  0  0  0  0  0  0  0  0  0  0
    3.9460  -49.0750   13.5868 C   0  0  2  0  0  0  0  0  0  0  0  0
    2.5043  -48.7416   13.5785 O   0  0  0  0  0  0  0  0  0  0  0  0
    0.7580  -45.3750   15.0957 C   0  0  2  0  0  0  0  0  0  0  0  0
   -0.1520  -46.3455   14.5247 O   0  0  0  0  0  0  0  0  0  0  0  0
   -2.1896  -44.6807   10.9543 C   0  0  0  0  0  0  0  0  0  0  0  0
   -1.3933  -43.5599   10.5407 O   0  0  0  0  0  0  0  0  0  0  0  0
   -4.6924  -50.0849   10.1919 C   0  0  1  0  0  0  0  0  0  0  0  0
   -3.8956  -48.9269   10.5181 O   0  0  0  0  0  0  0  0  0  0  0  0
   -3.6834  -53.4171    5.7696 C   0  0  2  0  0  0  0  0  0  0  0  0
   -3.3672  -52.0121    5.9731 O   0  0  0  0  0  0  0  0  0  0  0  0
    4.3463  -49.4381   12.1922 C   0  0  0  0  0  0  0  0  0  0  0  0
    4.2159  -48.2944   11.3917 O   0  0  0  0  0  0  0  0  0  0  0  0
    0.4770  -43.9305   14.5416 C   0  0  1  0  0  0  0  0  0  0  0  0
   -0.8756  -43.5278   14.9512 O   0  0  0  0  0  0  0  0  0  0  0  0
   -6.1874  -49.6084   10.2406 C   0  0  0  0  0  0  0  0  0  0  0  0
   -6.4418  -48.5501   11.2478 N   0  0  0  0  0  0  0  0  0  0  0  0
   -2.3408  -54.0796    5.4689 C   0  0  0  0  0  0  0  0  0  0  0  0
   -1.3905  -53.8145    6.5465 O   0  0  0  0  0  0  0  0  0  0  0  0
  1  2  1  1  0  0  0
  1  8  1  0  0  0  0
  1 36  1  0  0  0  0
  3  4  1  6  0  0  0
  3 10  1  0  0  0  0
  3 47  1  0  0  0  0
  5 11  1  0  0  0  0
  5 30  1  0  0  0  0
  5 38  1  1  0  0  0
  6 21  1  6  0  0  0
  6 42  1  0  0  0  0
  7 15  1  0  0  0  0
  7 44  1  0  0  0  0
  7 32  1  1  0  0  0
  8  9  1  1  0  0  0
  8 17  1  0  0  0  0
 11 12  1  6  0  0  0
 11 20  1  0  0  0  0
 13  6  1  0  0  0  0
 13 14  1  6  0  0  0
 15 16  1  6  0  0  0
 15 24  1  0  0  0  0
 17 26  1  0  0  0  0
 18 10  1  0  0  0  0
 18 19  1  6  0  0  0
 20 21  1  6  0  0  0
 20 29  1  0  0  0  0
 22 13  1  0  0  0  0
 22 23  1  1  0  0  0
 24 25  1  6  0  0  0
 24 33  1  0  0  0  0
 26 27  1  1  0  0  0
 26 35  1  0  0  0  0
 28  2  1  1  0  0  0
 28 18  1  0  0  0  0
 29 30  1  0  0  0  0
 29 39  1  1  0  0  0
 31 22  1  0  0  0  0
 31 32  1  6  0  0  0
 31 41  1  0  0  0  0
 33 34  1  1  0  0  0
 33 43  1  0  0  0  0
 35 36  1  0  0  0  0
 35 45  1  6  0  0  0
 37 28  1  0  0  0  0
 37 38  1  6  0  0  0
 39 40  1  0  0  0  0
 41 42  1  0  0  0  0
 41 49  1  6  0  0  0
 43 44  1  0  0  0  0
 43 51  1  6  0  0  0
 45 46  1  0  0  0  0
 47 37  1  0  0  0  0
 47 48  1  1  0  0  0
 49 50  1  0  0  0  0
 51 52  1  0  0  0  0
M  END
>  <CHROM.1>
-162.49901969,-176.09676469,175.77946235,73.20835740,79.07709878,-167.97666276
-178.03018873,72.66682154,-175.28793325,-56.39109553,-172.65430147,-171.64605703
-1.00595671,-48.72073962,11.16666605,-0.83722583,0.54487799,-2.64089819

>  <Name>
2fd0_lig

>  <RI>
0

>  <Rbt.Current_Directory>
/home/itssahil/PROJECTS/Mol_Feturizer/New_Systems/rnas/2fd0

>  <Rbt.Executable>
rbdock ($Id: //depot/dev/client3/rdock/2013.1/src/exe/rbdock.cxx#4 $)

>  <Rbt.Library>
libRbt.so (2013.1, Build901 2013/11/27)

>  <Rbt.Parameter_File>
/export/apps/rDock/src/rDock_2013.1_src/data/scripts/dock_solv.prm

>  <Rbt.Receptor>
prm/pocket_docking_8.prm

>  <SCORE>
-20.6905

>  <SCORE.INTER>
-11.2382

>  <SCORE.INTER.CONST>
1

>  <SCORE.INTER.POLAR>
-0.938083

>  <SCORE.INTER.ROT>
12

>  <SCORE.INTER.SOLV>
19.282

>  <SCORE.INTER.VDW>
-22.3925

>  <SCORE.INTER.norm>
-0.216119

>  <SCORE.INTRA>
-9.45234

>  <SCORE.INTRA.DIHEDRAL>
-16.3207

>  <SCORE.INTRA.DIHEDRAL.0>
23.9727

>  <SCORE.INTRA.POLAR>
0

>  <SCORE.INTRA.POLAR.0>
0

>  <SCORE.INTRA.REPUL>
0

>  <SCORE.INTRA.REPUL.0>
0

>  <SCORE.INTRA.SOLV>
-4.03938

>  <SCORE.INTRA.SOLV.lig_0>
-115.028

>  <SCORE.INTRA.VDW>
0.727703

>  <SCORE.INTRA.VDW.0>
-6.82393

>  <SCORE.INTRA.norm>
-0.181776

>  <SCORE.RESTR>
0

>  <SCORE.RESTR.CAVITY>
0

>  <SCORE.RESTR.norm>
0

>  <SCORE.SYSTEM>
0

>  <SCORE.SYSTEM.CONST>
0

>  <SCORE.SYSTEM.DIHEDRAL>
0

>  <SCORE.SYSTEM.SOLV>
0

>  <SCORE.SYSTEM.norm>
0

>  <SCORE.heavy>
52

>  <SCORE.norm>
-0.397895

>  <RMSD>
5.088

$$$$
2fd0_lig
 OpenBabel11021811433D
libRbt.so/2013.1/901 2013/11/27
 52 56  0  0  0  0  0  0  0  0999 V2000
    6.5309  -45.1128   14.4835 C   0  0  2  0  0  0  0  0  0  0  0  0
    6.2367  -46.5081   14.6365 O   0  0  0  0  0  0  0  0  0  0  0  0
    6.9992  -49.5136   17.6826 C   0  0  2  0  0  0  0  0  0  0  0  0
    7.0342  -50.2127   18.9776 N   0  0  0  0  0  0  0  0  0  0  0  0
    3.5422  -48.7312   14.2553 C   0  0  1  0  0  0  0  0  0  0  0  0
    1.2562  -51.9108   11.9533 C   0  0  1  0  0  0  0  0  0  0  0  0
    0.3593  -51.9717    7.2071 C   0  0  1  0  0  0  0  0  0  0  0  0
    5.5156  -44.4979   13.4526 C   0  0  2  0  0  0  0  0  0  0  0  0
    4.1338  -44.7031   13.8638 N   0  0  0  0  0  0  0  0  0  0  0  0
    7.7060  -48.0927   17.8028 C   0  0  0  0  0  0  0  0  0  0  0  0
    3.4726  -50.2419   14.3831 C   0  0  2  0  0  0  0  0  0  0  0  0
    4.6481  -50.8971   13.8290 O   0  0  0  0  0  0  0  0  0  0  0  0
    1.7499  -52.5665   10.5801 C   0  0  2  0  0  0  0  0  0  0  0  0
    2.3317  -51.5286    9.6859 N   0  0  0  0  0  0  0  0  0  0  0  0
    0.2338  -50.5485    6.6184 C   0  0  1  0  0  0  0  0  0  0  0  0
    1.2245  -49.6920    7.2387 O   0  0  0  0  0  0  0  0  0  0  0  0
    5.7776  -45.0779   12.0133 C   0  0  0  0  0  0  0  0  0  0  0  0
    7.6764  -47.3381   16.3890 C   0  0  2  0  0  0  0  0  0  0  0  0
    8.3218  -46.0196   16.4735 N   0  0  0  0  0  0  0  0  0  0  0  0
    2.1468  -50.5782   13.7214 C   0  0  2  0  0  0  0  0  0  0  0  0
    2.3363  -51.1944   12.4768 O   0  0  0  0  0  0  0  0  0  0  0  0
    0.5055  -53.3950    9.9671 C   0  0  1  0  0  0  0  0  0  0  0  0
    0.0821  -54.3543   10.9528 O   0  0  0  0  0  0  0  0  0  0  0  0
    0.3621  -50.3976    5.0784 C   0  0  1  0  0  0  0  0  0  0  0  0
    1.7332  -50.1096    4.7758 O   0  0  0  0  0  0  0  0  0  0  0  0
    7.2719  -44.8143   11.6361 C   0  0  2  0  0  0  0  0  0  0  0  0
    7.5457  -45.3095   10.3292 O   0  0  0  0  0  0  0  0  0  0  0  0
    6.2011  -47.1824   15.9254 C   0  0  2  0  0  0  0  0  0  0  0  0
    1.3983  -49.2594   13.4133 C   0  0  2  0  0  0  0  0  0  0  0  0
    2.2118  -48.2871   14.0539 O   0  0  0  0  0  0  0  0  0  0  0  0
   -0.7681  -52.4422    9.6768 C   0  0  2  0  0  0  0  0  0  0  0  0
   -0.3047  -51.5145    8.6777 O   0  0  0  0  0  0  0  0  0  0  0  0
   -0.0887  -51.6133    4.2362 C   0  0  2  0  0  0  0  0  0  0  0  0
   -0.8016  -51.0642    3.1062 O   0  0  0  0  0  0  0  0  0  0  0  0
    8.1981  -45.5129   12.6723 C   0  0  2  0  0  0  0  0  0  0  0  0
    7.8940  -44.9595   14.0105 O   0  0  0  0  0  0  0  0  0  0  0  0
    5.4461  -48.5443   15.8469 C   0  0  2  0  0  0  0  0  0  0  0  0
    4.0820  -48.2640   15.4509 O   0  0  0  0  0  0  0  0  0  0  0  0
   -0.0088  -49.1637   13.9925 C   0  0  0  0  0  0  0  0  0  0  0  0
    0.1311  -48.8891   15.3947 O   0  0  0  0  0  0  0  0  0  0  0  0
   -1.0121  -51.6812   10.9664 C   0  0  1  0  0  0  0  0  0  0  0  0
    0.0150  -51.0252   11.7390 O   0  0  0  0  0  0  0  0  0  0  0  0
   -0.9220  -52.5807    5.0723 C   0  0  2  0  0  0  0  0  0  0  0  0
   -0.3135  -52.9766    6.3327 O   0  0  0  0  0  0  0  0  0  0  0  0
    9.6459  -45.2684   12.3873 C   0  0  0  0  0  0  0  0  0  0  0  0
   10.4006  -46.0339   13.2874 O   0  0  0  0  0  0  0  0  0  0  0  0
    5.5002  -49.2731   17.2393 C   0  0  1  0  0  0  0  0  0  0  0  0
    4.8254  -50.5724   17.1132 O   0  0  0  0  0  0  0  0  0  0  0  0
   -2.1978  -50.6573   10.8661 C   0  0  0  0  0  0  0  0  0  0  0  0
   -1.9318  -49.5281    9.9421 N   0  0  0  0  0  0  0  0  0  0  0  0
   -1.4873  -53.8738    4.4889 C   0  0  0  0  0  0  0  0  0  0  0  0
   -2.3428  -54.5414    5.4672 O   0  0  0  0  0  0  0  0  0  0  0  0
  1  2  1  6  0  0  0
  1  8  1  0  0  0  0
  1 36  1  0  0  0  0
  3  4  1  1  0  0  0
  3 10  1  0  0  0  0
  3 47  1  0  0  0  0
  5 11  1  0  0  0  0
  5 30  1  0  0  0  0
  5 38  1  1  0  0  0
  6 21  1  6  0  0  0
  6 42  1  0  0  0  0
  7 15  1  0  0  0  0
  7 44  1  0  0  0  0
  7 32  1  1  0  0  0
  8  9  1  1  0  0  0
  8 17  1  0  0  0  0
 11 12  1  6  0  0  0
 11 20  1  0  0  0  0
 13  6  1  0  0  0  0
 13 14  1  6  0  0  0
 15 16  1  1  0  0  0
 15 24  1  0  0  0  0
 17 26  1  0  0  0  0
 18 10  1  0  0  0  0
 18 19  1  1  0  0  0
 20 21  1  6  0  0  0
 20 29  1  0  0  0  0
 22 13  1  0  0  0  0
 22 23  1  1  0  0  0
 24 25  1  1  0  0  0
 24 33  1  0  0  0  0
 26 27  1  6  0  0  0
 26 35  1  0  0  0  0
 28  2  1  6  0  0  0
 28 18  1  0  0  0  0
 29 30  1  0  0  0  0
 29 39  1  1  0  0  0
 31 22  1  0  0  0  0
 31 32  1  6  0  0  0
 31 41  1  0  0  0  0
 33 34  1  6  0  0  0
 33 43  1  0  0  0  0
 35 36  1  0  0  0  0
 35 45  1  6  0  0  0
 37 28  1  0  0  0  0
 37 38  1  1  0  0  0
 39 40  1  0  0  0  0
 41 42  1  0  0  0  0
 41 49  1  6  0  0  0
 43 44  1  0  0  0  0
 43 51  1  6  0  0  0
 45 46  1  0  0  0  0
 47 37  1  0  0  0  0
 47 48  1  6  0  0  0
 49 50  1  0  0  0  0
 51 52  1  0  0  0  0
M  END
>  <CHROM.1>
-136.19757988,66.60599606,-177.27655897,166.09841368,161.11629486,-73.75809182
76.44105637,55.38083970,-174.46238524,116.77526146,-66.57890216,-174.73522784
3.06986142,-49.43716357,11.72869401,-0.62954058,-0.72948769,-1.37986654

>  <Name>
2fd0_lig

>  <RI>
2.00683e+07

>  <Rbt.Current_Directory>
/home/itssahil/PROJECTS/Mol_Feturizer/New_Systems/rnas/2fd0

>  <Rbt.Executable>
rbdock ($Id: //depot/dev/client3/rdock/2013.1/src/exe/rbdock.cxx#4 $)

>  <Rbt.Library>
libRbt.so (2013.1, Build901 2013/11/27)

>  <Rbt.Parameter_File>
/export/apps/rDock/src/rDock_2013.1_src/data/scripts/dock_solv.prm

>  <Rbt.Receptor>
prm/pocket_docking_4.prm

>  <SCORE>
-9.89292

>  <SCORE.INTER>
-10.2447

>  <SCORE.INTER.CONST>
1

>  <SCORE.INTER.POLAR>
-0.785876

>  <SCORE.INTER.ROT>
12

>  <SCORE.INTER.SOLV>
15.6778

>  <SCORE.INTER.VDW>
-21.0361

>  <SCORE.INTER.norm>
-0.197013

>  <SCORE.INTRA>
0.316179

>  <SCORE.INTRA.DIHEDRAL>
-4.16008

>  <SCORE.INTRA.DIHEDRAL.0>
23.9727

>  <SCORE.INTRA.POLAR>
0

>  <SCORE.INTRA.POLAR.0>
0

>  <SCORE.INTRA.REPUL>
0.0251199

>  <SCORE.INTRA.REPUL.0>
0

>  <SCORE.INTRA.SOLV>
1.81682

>  <SCORE.INTRA.SOLV.lig_0>
-115.028

>  <SCORE.INTRA.VDW>
1.36221

>  <SCORE.INTRA.VDW.0>
-6.82393

>  <SCORE.INTRA.norm>
0.00608036

>  <SCORE.RESTR>
0.0355641

>  <SCORE.RESTR.CAVITY>
0.0355641

>  <SCORE.RESTR.norm>
0.000683925

>  <SCORE.SYSTEM>
0

>  <SCORE.SYSTEM.CONST>
0

>  <SCORE.SYSTEM.DIHEDRAL>
0

>  <SCORE.SYSTEM.SOLV>
0

>  <SCORE.SYSTEM.norm>
0

>  <SCORE.heavy>
52

>  <SCORE.norm>
-0.190249

>  <RMSD>
5.093

$$$$
2fd0_lig
 OpenBabel11021811433D
libRbt.so/2013.1/901 2013/11/27
 52 56  0  0  0  0  0  0  0  0999 V2000
    3.1381  -46.0752   13.5071 C   0  0  2  0  0  0  0  0  0  0  0  0
    2.4599  -47.3328   13.3823 O   0  0  0  0  0  0  0  0  0  0  0  0
    4.3309  -49.7582   16.4660 C   0  0  2  0  0  0  0  0  0  0  0  0
    4.6210  -50.8735   17.3820 N   0  0  0  0  0  0  0  0  0  0  0  0
    3.3517  -50.4736   12.0944 C   0  0  1  0  0  0  0  0  0  0  0  0
   -0.2683  -50.5207    9.9439 C   0  0  1  0  0  0  0  0  0  0  0  0
   -4.0809  -52.0405    7.2450 C   0  0  1  0  0  0  0  0  0  0  0  0
    2.5205  -45.0689   12.4690 C   0  0  2  0  0  0  0  0  0  0  0  0
    1.0842  -44.9137   12.6524 N   0  0  0  0  0  0  0  0  0  0  0  0
    2.8457  -49.2318   16.6899 C   0  0  0  0  0  0  0  0  0  0  0  0
    2.3112  -49.7355   11.2721 C   0  0  2  0  0  0  0  0  0  0  0  0
    1.1182  -49.4225   12.0447 O   0  0  0  0  0  0  0  0  0  0  0  0
   -1.5295  -51.5027   10.0108 C   0  0  2  0  0  0  0  0  0  0  0  0
   -1.3594  -52.6358    9.0608 N   0  0  0  0  0  0  0  0  0  0  0  0
   -3.4342  -52.7049    6.0088 C   0  0  1  0  0  0  0  0  0  0  0  0
   -2.2717  -53.4593    6.4322 O   0  0  0  0  0  0  0  0  0  0  0  0
    2.8659  -45.5164   11.0004 C   0  0  0  0  0  0  0  0  0  0  0  0
    2.5359  -48.0104   15.6992 C   0  0  2  0  0  0  0  0  0  0  0  0
    1.1671  -47.5064   15.8841 N   0  0  0  0  0  0  0  0  0  0  0  0
    2.1109  -50.6513   10.0763 C   0  0  2  0  0  0  0  0  0  0  0  0
    0.8726  -51.3057   10.1330 O   0  0  0  0  0  0  0  0  0  0  0  0
   -2.8532  -50.6026    9.7907 C   0  0  1  0  0  0  0  0  0  0  0  0
   -2.8618  -49.5725   10.7956 O   0  0  0  0  0  0  0  0  0  0  0  0
   -4.3283  -53.6391    5.1491 C   0  0  1  0  0  0  0  0  0  0  0  0
   -4.1523  -54.9794    5.6252 O   0  0  0  0  0  0  0  0  0  0  0  0
    4.4184  -45.6532   10.8749 C   0  0  2  0  0  0  0  0  0  0  0  0
    4.7743  -46.0402    9.5514 O   0  0  0  0  0  0  0  0  0  0  0  0
    2.7387  -48.4807   14.2318 C   0  0  2  0  0  0  0  0  0  0  0  0
    3.1701  -51.7779   10.1322 C   0  0  2  0  0  0  0  0  0  0  0  0
    4.0036  -51.3636   11.2051 O   0  0  0  0  0  0  0  0  0  0  0  0
   -2.8381  -49.8489    8.3604 C   0  0  2  0  0  0  0  0  0  0  0  0
   -2.8474  -50.9137    7.3911 O   0  0  0  0  0  0  0  0  0  0  0  0
   -5.8390  -53.3103    5.1349 C   0  0  2  0  0  0  0  0  0  0  0  0
   -6.2675  -53.4958    3.7680 O   0  0  0  0  0  0  0  0  0  0  0  0
    4.9283  -46.7137   11.8923 C   0  0  2  0  0  0  0  0  0  0  0  0
    4.5535  -46.2666   13.2522 O   0  0  0  0  0  0  0  0  0  0  0  0
    4.1633  -49.0601   13.9749 C   0  0  2  0  0  0  0  0  0  0  0  0
    4.2123  -49.5009   12.5967 O   0  0  0  0  0  0  0  0  0  0  0  0
    4.0320  -51.9180    8.8824 C   0  0  0  0  0  0  0  0  0  0  0  0
    3.1409  -51.9381    7.7569 O   0  0  0  0  0  0  0  0  0  0  0  0
   -1.4992  -49.1395    8.2859 C   0  0  1  0  0  0  0  0  0  0  0  0
   -0.2309  -49.7438    8.6151 O   0  0  0  0  0  0  0  0  0  0  0  0
   -6.0993  -51.9051    5.6709 C   0  0  2  0  0  0  0  0  0  0  0  0
   -5.4836  -51.6201    6.9575 O   0  0  0  0  0  0  0  0  0  0  0  0
    6.4154  -46.8666   11.8476 C   0  0  0  0  0  0  0  0  0  0  0  0
    6.7783  -47.8532   12.7753 O   0  0  0  0  0  0  0  0  0  0  0  0
    4.4511  -50.2461   14.9664 C   0  0  1  0  0  0  0  0  0  0  0  0
    5.8179  -50.7314   14.7304 O   0  0  0  0  0  0  0  0  0  0  0  0
   -1.2765  -48.3783    6.9311 C   0  0  0  0  0  0  0  0  0  0  0  0
   -1.6832  -49.1581    5.7370 N   0  0  0  0  0  0  0  0  0  0  0  0
   -7.5092  -51.3282    5.7768 C   0  0  0  0  0  0  0  0  0  0  0  0
   -8.2493  -51.9886    6.8494 O   0  0  0  0  0  0  0  0  0  0  0  0
  1  2  1  6  0  0  0
  1  8  1  0  0  0  0
  1 36  1  0  0  0  0
  3  4  1  1  0  0  0
  3 10  1  0  0  0  0
  3 47  1  0  0  0  0
  5 11  1  0  0  0  0
  5 30  1  0  0  0  0
  5 38  1  6  0  0  0
  6 21  1  6  0  0  0
  6 42  1  0  0  0  0
  7 15  1  0  0  0  0
  7 44  1  0  0  0  0
  7 32  1  6  0  0  0
  8  9  1  6  0  0  0
  8 17  1  0  0  0  0
 11 12  1  1  0  0  0
 11 20  1  0  0  0  0
 13  6  1  0  0  0  0
 13 14  1  6  0  0  0
 15 16  1  1  0  0  0
 15 24  1  0  0  0  0
 17 26  1  0  0  0  0
 18 10  1  0  0  0  0
 18 19  1  6  0  0  0
 20 21  1  1  0  0  0
 20 29  1  0  0  0  0
 22 13  1  0  0  0  0
 22 23  1  1  0  0  0
 24 25  1  1  0  0  0
 24 33  1  0  0  0  0
 26 27  1  6  0  0  0
 26 35  1  0  0  0  0
 28  2  1  6  0  0  0
 28 18  1  0  0  0  0
 29 30  1  0  0  0  0
 29 39  1  6  0  0  0
 31 22  1  0  0  0  0
 31 32  1  6  0  0  0
 31 41  1  0  0  0  0
 33 34  1  6  0  0  0
 33 43  1  0  0  0  0
 35 36  1  0  0  0  0
 35 45  1  1  0  0  0
 37 28  1  0  0  0  0
 37 38  1  6  0  0  0
 39 40  1  0  0  0  0
 41 42  1  0  0  0  0
 41 49  1  6  0  0  0
 43 44  1  0  0  0  0
 43 51  1  1  0  0  0
 45 46  1  0  0  0  0
 47 37  1  0  0  0  0
 47 48  1  1  0  0  0
 49 50  1  0  0  0  0
 51 52  1  0  0  0  0
M  END
>  <CHROM.1>
-177.33717519,103.90530339,178.31301353,176.06820829,69.51136948,56.27057398
-49.06154427,61.43063510,-178.98709194,-59.68263338,-43.91048164,71.20868078
0.52768720,-49.88767808,10.32402905,0.48374123,-0.61127454,0.23699350

>  <Name>
2fd0_lig

>  <RI>
0

>  <Rbt.Current_Directory>
/home/itssahil/PROJECTS/Mol_Feturizer/New_Systems/rnas/2fd0

>  <Rbt.Executable>
rbdock ($Id: //depot/dev/client3/rdock/2013.1/src/exe/rbdock.cxx#4 $)

>  <Rbt.Library>
libRbt.so (2013.1, Build901 2013/11/27)

>  <Rbt.Parameter_File>
/export/apps/rDock/src/rDock_2013.1_src/data/scripts/dock_solv.prm

>  <Rbt.Receptor>
prm/pocket_docking_5.prm

>  <SCORE>
-24.6184

>  <SCORE.INTER>
-18.4315

>  <SCORE.INTER.CONST>
1

>  <SCORE.INTER.POLAR>
-2.63224

>  <SCORE.INTER.ROT>
12

>  <SCORE.INTER.SOLV>
18.6465

>  <SCORE.INTER.VDW>
-21.329

>  <SCORE.INTER.norm>
-0.354452

>  <SCORE.INTRA>
-6.18688

>  <SCORE.INTRA.DIHEDRAL>
-14.3894

>  <SCORE.INTRA.DIHEDRAL.0>
23.9727

>  <SCORE.INTRA.POLAR>
0

>  <SCORE.INTRA.POLAR.0>
0

>  <SCORE.INTRA.REPUL>
0

>  <SCORE.INTRA.REPUL.0>
0

>  <SCORE.INTRA.SOLV>
0.51451

>  <SCORE.INTRA.SOLV.lig_0>
-115.028

>  <SCORE.INTRA.VDW>
0.75054

>  <SCORE.INTRA.VDW.0>
-6.82393

>  <SCORE.INTRA.norm>
-0.118978

>  <SCORE.RESTR>
0

>  <SCORE.RESTR.CAVITY>
0

>  <SCORE.RESTR.norm>
0

>  <SCORE.SYSTEM>
0

>  <SCORE.SYSTEM.CONST>
0

>  <SCORE.SYSTEM.DIHEDRAL>
0

>  <SCORE.SYSTEM.SOLV>
0

>  <SCORE.SYSTEM.norm>
0

>  <SCORE.heavy>
52

>  <SCORE.norm>
-0.47343

>  <RMSD>
5.158

$$$$
2fd0_lig
 OpenBabel11021811433D
libRbt.so/2013.1/901 2013/11/27
 52 56  0  0  0  0  0  0  0  0999 V2000
    6.0531  -46.1206   12.2184 C   0  0  2  0  0  0  0  0  0  0  0  0
    5.2849  -45.0849   12.8463 O   0  0  0  0  0  0  0  0  0  0  0  0
    3.4117  -41.3146   11.7653 C   0  0  2  0  0  0  0  0  0  0  0  0
    3.2161  -39.9466   11.2579 N   0  0  0  0  0  0  0  0  0  0  0  0
    3.7658  -45.4126    9.3147 C   0  0  1  0  0  0  0  0  0  0  0  0
    2.6745  -49.5850    9.2065 C   0  0  1  0  0  0  0  0  0  0  0  0
    1.3915  -53.7845    6.5652 C   0  0  1  0  0  0  0  0  0  0  0  0
    5.8416  -47.4561   13.0204 C   0  0  2  0  0  0  0  0  0  0  0  0
    4.4343  -47.8211   13.1047 N   0  0  0  0  0  0  0  0  0  0  0  0
    4.5252  -41.3279   12.9024 C   0  0  0  0  0  0  0  0  0  0  0  0
    3.8567  -46.7993    9.9249 C   0  0  2  0  0  0  0  0  0  0  0  0
    4.8594  -47.6256    9.2693 O   0  0  0  0  0  0  0  0  0  0  0  0
    3.7122  -50.0693    8.0893 C   0  0  2  0  0  0  0  0  0  0  0  0
    3.1276  -49.9094    6.7299 N   0  0  0  0  0  0  0  0  0  0  0  0
    2.5242  -54.8309    6.4670 C   0  0  1  0  0  0  0  0  0  0  0  0
    2.8738  -55.2749    7.8013 O   0  0  0  0  0  0  0  0  0  0  0  0
    6.4918  -47.3458   14.4492 C   0  0  0  0  0  0  0  0  0  0  0  0
    4.7285  -42.8165   13.4609 C   0  0  2  0  0  0  0  0  0  0  0  0
    5.7555  -42.8570   14.5124 N   0  0  0  0  0  0  0  0  0  0  0  0
    2.4242  -47.2997    9.8467 C   0  0  2  0  0  0  0  0  0  0  0  0
    2.2792  -48.2888    8.8641 O   0  0  0  0  0  0  0  0  0  0  0  0
    4.1725  -51.5688    8.4771 C   0  0  1  0  0  0  0  0  0  0  0  0
    4.7207  -51.5350    9.8073 O   0  0  0  0  0  0  0  0  0  0  0  0
    2.2631  -56.0878    5.5935 C   0  0  1  0  0  0  0  0  0  0  0  0
    1.7510  -57.1195    6.4465 O   0  0  0  0  0  0  0  0  0  0  0  0
    7.9982  -46.9619   14.2810 C   0  0  2  0  0  0  0  0  0  0  0  0
    8.6290  -46.8698   15.5545 O   0  0  0  0  0  0  0  0  0  0  0  0
    5.1295  -43.7512   12.2857 C   0  0  2  0  0  0  0  0  0  0  0  0
    1.5164  -46.1335    9.3880 C   0  0  2  0  0  0  0  0  0  0  0  0
    2.4056  -45.0260    9.4063 O   0  0  0  0  0  0  0  0  0  0  0  0
    2.9203  -52.5907    8.5222 C   0  0  2  0  0  0  0  0  0  0  0  0
    2.4174  -52.6052    7.1729 O   0  0  0  0  0  0  0  0  0  0  0  0
    1.2942  -55.8994    4.4034 C   0  0  2  0  0  0  0  0  0  0  0  0
    1.8762  -56.6341    3.3044 O   0  0  0  0  0  0  0  0  0  0  0  0
    8.1051  -45.6001   13.5368 C   0  0  2  0  0  0  0  0  0  0  0  0
    7.4542  -45.7434   12.2158 O   0  0  0  0  0  0  0  0  0  0  0  0
    4.0969  -43.7296   11.1177 C   0  0  2  0  0  0  0  0  0  0  0  0
    4.6010  -44.5976   10.0744 O   0  0  0  0  0  0  0  0  0  0  0  0
    0.3452  -45.8230   10.3132 C   0  0  0  0  0  0  0  0  0  0  0  0
    0.9003  -45.4351   11.5791 O   0  0  0  0  0  0  0  0  0  0  0  0
    1.8866  -51.9317    9.4159 C   0  0  1  0  0  0  0  0  0  0  0  0
    1.4805  -50.5504    9.3207 O   0  0  0  0  0  0  0  0  0  0  0  0
    1.0779  -54.4190    4.1017 C   0  0  2  0  0  0  0  0  0  0  0  0
    0.7043  -53.6111    5.2519 O   0  0  0  0  0  0  0  0  0  0  0  0
    9.5265  -45.1923   13.3119 C   0  0  0  0  0  0  0  0  0  0  0  0
   10.1889  -46.2564   12.6837 O   0  0  0  0  0  0  0  0  0  0  0  0
    3.9024  -42.2592   10.5955 C   0  0  1  0  0  0  0  0  0  0  0  0
    2.8868  -42.2709    9.5335 O   0  0  0  0  0  0  0  0  0  0  0  0
    0.5617  -52.7635    9.5475 C   0  0  0  0  0  0  0  0  0  0  0  0
   -0.4366  -52.4629    8.4928 N   0  0  0  0  0  0  0  0  0  0  0  0
    0.1561  -53.9488    2.9787 C   0  0  0  0  0  0  0  0  0  0  0  0
    0.6444  -54.4259    1.6870 O   0  0  0  0  0  0  0  0  0  0  0  0
  1  2  1  1  0  0  0
  1  8  1  0  0  0  0
  1 36  1  0  0  0  0
  3  4  1  6  0  0  0
  3 10  1  0  0  0  0
  3 47  1  0  0  0  0
  5 11  1  0  0  0  0
  5 30  1  0  0  0  0
  5 38  1  1  0  0  0
  6 21  1  6  0  0  0
  6 42  1  0  0  0  0
  7 15  1  0  0  0  0
  7 44  1  0  0  0  0
  7 32  1  6  0  0  0
  8  9  1  1  0  0  0
  8 17  1  0  0  0  0
 11 12  1  6  0  0  0
 11 20  1  0  0  0  0
 13  6  1  0  0  0  0
 13 14  1  6  0  0  0
 15 16  1  1  0  0  0
 15 24  1  0  0  0  0
 17 26  1  0  0  0  0
 18 10  1  0  0  0  0
 18 19  1  1  0  0  0
 20 21  1  6  0  0  0
 20 29  1  0  0  0  0
 22 13  1  0  0  0  0
 22 23  1  1  0  0  0
 24 25  1  1  0  0  0
 24 33  1  0  0  0  0
 26 27  1  1  0  0  0
 26 35  1  0  0  0  0
 28  2  1  1  0  0  0
 28 18  1  0  0  0  0
 29 30  1  0  0  0  0
 29 39  1  1  0  0  0
 31 22  1  0  0  0  0
 31 32  1  6  0  0  0
 31 41  1  0  0  0  0
 33 34  1  6  0  0  0
 33 43  1  0  0  0  0
 35 36  1  0  0  0  0
 35 45  1  6  0  0  0
 37 28  1  0  0  0  0
 37 38  1  6  0  0  0
 39 40  1  0  0  0  0
 41 42  1  0  0  0  0
 41 49  1  6  0  0  0
 43 44  1  0  0  0  0
 43 51  1  6  0  0  0
 45 46  1  0  0  0  0
 47 37  1  0  0  0  0
 47 48  1  6  0  0  0
 49 50  1  0  0  0  0
 51 52  1  0  0  0  0
M  END
>  <CHROM.1>
-173.08230564,-99.17659087,-126.18939752,-74.71600743,80.30088475,-158.75360097
61.81202092,163.19130138,52.70478287,142.23258958,-87.93523927,-61.98818818
3.62334117,-48.59393513,9.62548197,-1.16276486,0.68718818,-2.81899803

>  <Name>
2fd0_lig

>  <RI>
3.4301e+07

>  <Rbt.Current_Directory>
/home/itssahil/PROJECTS/Mol_Feturizer/New_Systems/rnas/2fd0

>  <Rbt.Executable>
rbdock ($Id: //depot/dev/client3/rdock/2013.1/src/exe/rbdock.cxx#4 $)

>  <Rbt.Library>
libRbt.so (2013.1, Build901 2013/11/27)

>  <Rbt.Parameter_File>
/export/apps/rDock/src/rDock_2013.1_src/data/scripts/dock_solv.prm

>  <Rbt.Receptor>
prm/pocket_docking_7.prm

>  <SCORE>
-17.1688

>  <SCORE.INTER>
-19.7993

>  <SCORE.INTER.CONST>
1

>  <SCORE.INTER.POLAR>
-2.38769

>  <SCORE.INTER.ROT>
12

>  <SCORE.INTER.SOLV>
19.1842

>  <SCORE.INTER.VDW>
-23.2353

>  <SCORE.INTER.norm>
-0.380755

>  <SCORE.INTRA>
2.63048

>  <SCORE.INTRA.DIHEDRAL>
3.08942

>  <SCORE.INTRA.DIHEDRAL.0>
23.9727

>  <SCORE.INTRA.POLAR>
0

>  <SCORE.INTRA.POLAR.0>
0

>  <SCORE.INTRA.REPUL>
0

>  <SCORE.INTRA.REPUL.0>
0

>  <SCORE.INTRA.SOLV>
1.58249

>  <SCORE.INTRA.SOLV.lig_0>
-115.028

>  <SCORE.INTRA.VDW>
0.294529

>  <SCORE.INTRA.VDW.0>
-6.82393

>  <SCORE.INTRA.norm>
0.0505862

>  <SCORE.RESTR>
0

>  <SCORE.RESTR.CAVITY>
0

>  <SCORE.RESTR.norm>
0

>  <SCORE.SYSTEM>
0

>  <SCORE.SYSTEM.CONST>
0

>  <SCORE.SYSTEM.DIHEDRAL>
0

>  <SCORE.SYSTEM.SOLV>
0

>  <SCORE.SYSTEM.norm>
0

>  <SCORE.heavy>
52

>  <SCORE.norm>
-0.330169

>  <RMSD>
5.186

$$$$
2fd0_lig
 OpenBabel11021811433D
libRbt.so/2013.1/901 2013/11/27
 52 56  0  0  0  0  0  0  0  0999 V2000
    4.5379  -42.4933   13.2345 C   0  0  2  0  0  0  0  0  0  0  0  0
    3.6086  -43.3915   12.6127 O   0  0  0  0  0  0  0  0  0  0  0  0
    2.1227  -45.7294   15.9621 C   0  0  2  0  0  0  0  0  0  0  0  0
    1.3252  -46.6726   16.7629 N   0  0  0  0  0  0  0  0  0  0  0  0
    3.6326  -46.9745   11.9261 C   0  0  1  0  0  0  0  0  0  0  0  0
    3.5692  -50.4643    8.9892 C   0  0  1  0  0  0  0  0  0  0  0  0
    0.4684  -51.8564    5.4235 C   0  0  1  0  0  0  0  0  0  0  0  0
    5.1929  -41.6003   12.1187 C   0  0  2  0  0  0  0  0  0  0  0  0
    4.1929  -40.8740   11.3486 N   0  0  0  0  0  0  0  0  0  0  0  0
    1.1807  -44.6240   15.3112 C   0  0  0  0  0  0  0  0  0  0  0  0
    4.6519  -47.5710   10.9728 C   0  0  2  0  0  0  0  0  0  0  0  0
    4.8102  -46.7740    9.7653 O   0  0  0  0  0  0  0  0  0  0  0  0
    3.3617  -50.3457    7.4073 C   0  0  2  0  0  0  0  0  0  0  0  0
    2.1693  -49.5100    7.0987 N   0  0  0  0  0  0  0  0  0  0  0  0
   -0.9461  -51.3664    5.8068 C   0  0  1  0  0  0  0  0  0  0  0  0
   -0.8515  -50.0227    6.3411 O   0  0  0  0  0  0  0  0  0  0  0  0
    6.1109  -42.4745   11.1861 C   0  0  0  0  0  0  0  0  0  0  0  0
    2.0526  -43.5916   14.4488 C   0  0  2  0  0  0  0  0  0  0  0  0
    1.2046  -42.5600   13.8334 N   0  0  0  0  0  0  0  0  0  0  0  0
    4.1432  -48.9889   10.7750 C   0  0  2  0  0  0  0  0  0  0  0  0
    3.5917  -49.1626    9.4980 O   0  0  0  0  0  0  0  0  0  0  0  0
    3.3323  -51.8473    6.8114 C   0  0  1  0  0  0  0  0  0  0  0  0
    4.5570  -52.5001    7.1920 O   0  0  0  0  0  0  0  0  0  0  0  0
   -2.0294  -51.3677    4.6944 C   0  0  1  0  0  0  0  0  0  0  0  0
   -2.0387  -50.0702    4.0857 O   0  0  0  0  0  0  0  0  0  0  0  0
    7.1617  -43.2148   12.0764 C   0  0  2  0  0  0  0  0  0  0  0  0
    8.0260  -44.0049   11.2658 O   0  0  0  0  0  0  0  0  0  0  0  0
    2.8270  -44.3723   13.3504 C   0  0  2  0  0  0  0  0  0  0  0  0
    2.9763  -49.2386   11.7601 C   0  0  2  0  0  0  0  0  0  0  0  0
    2.9973  -48.0683   12.5648 O   0  0  0  0  0  0  0  0  0  0  0  0
    2.1292  -52.7230    7.4441 C   0  0  2  0  0  0  0  0  0  0  0  0
    0.9300  -52.0450    7.0247 O   0  0  0  0  0  0  0  0  0  0  0  0
   -1.8664  -52.4353    3.5879 C   0  0  2  0  0  0  0  0  0  0  0  0
   -3.1963  -52.9353    3.3271 O   0  0  0  0  0  0  0  0  0  0  0  0
    6.4235  -44.1204   13.1033 C   0  0  2  0  0  0  0  0  0  0  0  0
    5.5513  -43.2609   13.9339 O   0  0  0  0  0  0  0  0  0  0  0  0
    3.7224  -45.5074   13.9342 C   0  0  2  0  0  0  0  0  0  0  0  0
    4.3511  -46.1834   12.8189 O   0  0  0  0  0  0  0  0  0  0  0  0
    3.1464  -50.4494   12.6708 C   0  0  0  0  0  0  0  0  0  0  0  0
    4.4372  -50.3331   13.2887 O   0  0  0  0  0  0  0  0  0  0  0  0
    2.2651  -52.5784    8.9481 C   0  0  1  0  0  0  0  0  0  0  0  0
    2.4708  -51.3272    9.6369 O   0  0  0  0  0  0  0  0  0  0  0  0
   -0.8792  -53.5190    4.0130 C   0  0  2  0  0  0  0  0  0  0  0  0
    0.4001  -53.0226    4.4948 O   0  0  0  0  0  0  0  0  0  0  0  0
    7.3752  -44.8315   14.0121 C   0  0  0  0  0  0  0  0  0  0  0  0
    7.9844  -43.8751   14.8366 O   0  0  0  0  0  0  0  0  0  0  0  0
    2.8500  -46.4990   14.7874 C   0  0  1  0  0  0  0  0  0  0  0  0
    3.7336  -47.5227   15.3625 O   0  0  0  0  0  0  0  0  0  0  0  0
    1.1426  -53.3316    9.7463 C   0  0  0  0  0  0  0  0  0  0  0  0
    1.2205  -54.8082    9.6319 N   0  0  0  0  0  0  0  0  0  0  0  0
   -0.5245  -54.6921    3.1020 C   0  0  0  0  0  0  0  0  0  0  0  0
    0.2343  -54.2251    1.9441 O   0  0  0  0  0  0  0  0  0  0  0  0
  1  2  1  6  0  0  0
  1  8  1  0  0  0  0
  1 36  1  0  0  0  0
  3  4  1  6  0  0  0
  3 10  1  0  0  0  0
  3 47  1  0  0  0  0
  5 11  1  0  0  0  0
  5 30  1  0  0  0  0
  5 38  1  1  0  0  0
  6 21  1  1  0  0  0
  6 42  1  0  0  0  0
  7 15  1  0  0  0  0
  7 44  1  0  0  0  0
  7 32  1  1  0  0  0
  8  9  1  6  0  0  0
  8 17  1  0  0  0  0
 11 12  1  6  0  0  0
 11 20  1  0  0  0  0
 13  6  1  0  0  0  0
 13 14  1  1  0  0  0
 15 16  1  6  0  0  0
 15 24  1  0  0  0  0
 17 26  1  0  0  0  0
 18 10  1  0  0  0  0
 18 19  1  6  0  0  0
 20 21  1  6  0  0  0
 20 29  1  0  0  0  0
 22 13  1  0  0  0  0
 22 23  1  1  0  0  0
 24 25  1  6  0  0  0
 24 33  1  0  0  0  0
 26 27  1  6  0  0  0
 26 35  1  0  0  0  0
 28  2  1  1  0  0  0
 28 18  1  0  0  0  0
 29 30  1  0  0  0  0
 29 39  1  1  0  0  0
 31 22  1  0  0  0  0
 31 32  1  6  0  0  0
 31 41  1  0  0  0  0
 33 34  1  1  0  0  0
 33 43  1  0  0  0  0
 35 36  1  0  0  0  0
 35 45  1  1  0  0  0
 37 28  1  0  0  0  0
 37 38  1  6  0  0  0
 39 40  1  0  0  0  0
 41 42  1  0  0  0  0
 41 49  1  1  0  0  0
 43 44  1  0  0  0  0
 43 51  1  6  0  0  0
 45 46  1  0  0  0  0
 47 37  1  0  0  0  0
 47 48  1  1  0  0  0
 49 50  1  0  0  0  0
 51 52  1  0  0  0  0
M  END
>  <CHROM.1>
179.53974976,-176.31265849,-161.83980581,168.59021412,155.69225623,55.21094238
51.29307519,62.51009556,67.90217647,-69.36798948,67.30408025,68.15004045
2.73585386,-48.33515259,10.08965347,0.22558123,-1.18454232,-0.54403511

>  <Name>
2fd0_lig

>  <RI>
0

>  <Rbt.Current_Directory>
/home/itssahil/PROJECTS/Mol_Feturizer/New_Systems/rnas/2fd0

>  <Rbt.Executable>
rbdock ($Id: //depot/dev/client3/rdock/2013.1/src/exe/rbdock.cxx#4 $)

>  <Rbt.Library>
libRbt.so (2013.1, Build901 2013/11/27)

>  <Rbt.Parameter_File>
/export/apps/rDock/src/rDock_2013.1_src/data/scripts/dock_solv.prm

>  <Rbt.Receptor>
prm/pocket_docking_6.prm

>  <SCORE>
-13.5993

>  <SCORE.INTER>
-5.13513

>  <SCORE.INTER.CONST>
1

>  <SCORE.INTER.POLAR>
-0.986288

>  <SCORE.INTER.ROT>
12

>  <SCORE.INTER.SOLV>
14.1745

>  <SCORE.INTER.VDW>
-16.4606

>  <SCORE.INTER.norm>
-0.0987526

>  <SCORE.INTRA>
-8.47552

>  <SCORE.INTRA.DIHEDRAL>
-16.1451

>  <SCORE.INTRA.DIHEDRAL.0>
23.9727

>  <SCORE.INTRA.POLAR>
0

>  <SCORE.INTRA.POLAR.0>
0

>  <SCORE.INTRA.REPUL>
0

>  <SCORE.INTRA.REPUL.0>
0

>  <SCORE.INTRA.SOLV>
-2.50015

>  <SCORE.INTRA.SOLV.lig_0>
-115.028

>  <SCORE.INTRA.VDW>
0.847126

>  <SCORE.INTRA.VDW.0>
-6.82393

>  <SCORE.INTRA.norm>
-0.162991

>  <SCORE.RESTR>
0.0113187

>  <SCORE.RESTR.CAVITY>
0.0113187

>  <SCORE.RESTR.norm>
0.000217667

>  <SCORE.SYSTEM>
0

>  <SCORE.SYSTEM.CONST>
0

>  <SCORE.SYSTEM.DIHEDRAL>
0

>  <SCORE.SYSTEM.SOLV>
0

>  <SCORE.SYSTEM.norm>
0

>  <SCORE.heavy>
52

>  <SCORE.norm>
-0.261526

>  <RMSD>
5.188

$$$$
2fd0_lig
 OpenBabel11021811433D
libRbt.so/2013.1/901 2013/11/27
 52 56  0  0  0  0  0  0  0  0999 V2000
    6.9364  -44.3496   13.5197 C   0  0  2  0  0  0  0  0  0  0  0  0
    7.1416  -45.7249   13.8710 O   0  0  0  0  0  0  0  0  0  0  0  0
    5.1394  -49.1316   15.6816 C   0  0  2  0  0  0  0  0  0  0  0  0
    4.2751  -49.9416   16.5556 N   0  0  0  0  0  0  0  0  0  0  0  0
    4.6116  -46.0094   11.8115 C   0  0  1  0  0  0  0  0  0  0  0  0
    4.0750  -48.0282    7.9343 C   0  0  1  0  0  0  0  0  0  0  0  0
   -0.1918  -51.1996    8.0504 C   0  0  1  0  0  0  0  0  0  0  0  0
    8.0139  -43.9406   12.4505 C   0  0  2  0  0  0  0  0  0  0  0  0
    7.9638  -44.7980   11.2745 N   0  0  0  0  0  0  0  0  0  0  0  0
    6.1674  -48.2848   16.5530 C   0  0  0  0  0  0  0  0  0  0  0  0
    4.1860  -47.2531   11.0528 C   0  0  2  0  0  0  0  0  0  0  0  0
    5.2998  -48.1569   10.8063 O   0  0  0  0  0  0  0  0  0  0  0  0
    2.6778  -47.8553    7.1745 C   0  0  2  0  0  0  0  0  0  0  0  0
    1.6017  -47.4938    8.1371 N   0  0  0  0  0  0  0  0  0  0  0  0
   -0.7338  -50.5972    9.3661 C   0  0  1  0  0  0  0  0  0  0  0  0
   -1.1479  -49.2298    9.1239 O   0  0  0  0  0  0  0  0  0  0  0  0
    9.4497  -43.9341   13.0945 C   0  0  0  0  0  0  0  0  0  0  0  0
    7.1147  -47.4121   15.5988 C   0  0  2  0  0  0  0  0  0  0  0  0
    8.0734  -46.6172   16.3803 N   0  0  0  0  0  0  0  0  0  0  0  0
    3.5039  -46.6827    9.8207 C   0  0  2  0  0  0  0  0  0  0  0  0
    4.2874  -46.8602    8.6721 O   0  0  0  0  0  0  0  0  0  0  0  0
    2.4238  -49.2033    6.3205 C   0  0  1  0  0  0  0  0  0  0  0  0
    3.5473  -49.3899    5.4408 O   0  0  0  0  0  0  0  0  0  0  0  0
   -1.9059  -51.3396   10.0632 C   0  0  1  0  0  0  0  0  0  0  0  0
   -3.1324  -50.7555    9.6065 O   0  0  0  0  0  0  0  0  0  0  0  0
    9.4309  -42.9896   14.3404 C   0  0  2  0  0  0  0  0  0  0  0  0
   10.7205  -42.9417   14.9428 O   0  0  0  0  0  0  0  0  0  0  0  0
    6.2338  -46.4778   14.7232 C   0  0  2  0  0  0  0  0  0  0  0  0
    3.3727  -45.1504    9.9917 C   0  0  2  0  0  0  0  0  0  0  0  0
    3.7975  -44.9531   11.3327 O   0  0  0  0  0  0  0  0  0  0  0  0
    2.3589  -50.5126    7.2669 C   0  0  2  0  0  0  0  0  0  0  0  0
    1.2157  -50.2898    8.1136 O   0  0  0  0  0  0  0  0  0  0  0  0
   -1.9700  -52.8685    9.8416 C   0  0  2  0  0  0  0  0  0  0  0  0
   -2.3271  -53.4351   11.1214 O   0  0  0  0  0  0  0  0  0  0  0  0
    8.3849  -43.5091   15.3679 C   0  0  2  0  0  0  0  0  0  0  0  0
    7.0601  -43.5276   14.7090 O   0  0  0  0  0  0  0  0  0  0  0  0
    5.1693  -47.2565   13.8916 C   0  0  2  0  0  0  0  0  0  0  0  0
    4.3897  -46.2808   13.1592 O   0  0  0  0  0  0  0  0  0  0  0  0
    1.9566  -44.6029    9.8523 C   0  0  0  0  0  0  0  0  0  0  0  0
    1.1774  -45.1764   10.9129 O   0  0  0  0  0  0  0  0  0  0  0  0
    3.6108  -50.4615    8.1223 C   0  0  1  0  0  0  0  0  0  0  0  0
    4.0816  -49.2886    8.8186 O   0  0  0  0  0  0  0  0  0  0  0  0
   -0.6504  -53.3977    9.2864 C   0  0  2  0  0  0  0  0  0  0  0  0
   -0.1541  -52.6900    8.1167 O   0  0  0  0  0  0  0  0  0  0  0  0
    8.2922  -42.6260   16.5715 C   0  0  0  0  0  0  0  0  0  0  0  0
    7.8214  -41.3728   16.1549 O   0  0  0  0  0  0  0  0  0  0  0  0
    4.2615  -48.1160   14.8454 C   0  0  1  0  0  0  0  0  0  0  0  0
    3.3069  -48.8738   14.0245 O   0  0  0  0  0  0  0  0  0  0  0  0
    3.7054  -51.6425    9.1522 C   0  0  0  0  0  0  0  0  0  0  0  0
    4.9609  -51.6440    9.9417 N   0  0  0  0  0  0  0  0  0  0  0  0
   -0.4432  -54.8761    8.9650 C   0  0  0  0  0  0  0  0  0  0  0  0
   -1.3771  -55.3063    7.9270 O   0  0  0  0  0  0  0  0  0  0  0  0
  1  2  1  1  0  0  0
  1  8  1  0  0  0  0
  1 36  1  0  0  0  0
  3  4  1  1  0  0  0
  3 10  1  0  0  0  0
  3 47  1  0  0  0  0
  5 11  1  0  0  0  0
  5 30  1  0  0  0  0
  5 38  1  1  0  0  0
  6 21  1  1  0  0  0
  6 42  1  0  0  0  0
  7 15  1  0  0  0  0
  7 44  1  0  0  0  0
  7 32  1  1  0  0  0
  8  9  1  6  0  0  0
  8 17  1  0  0  0  0
 11 12  1  6  0  0  0
 11 20  1  0  0  0  0
 13  6  1  0  0  0  0
 13 14  1  1  0  0  0
 15 16  1  6  0  0  0
 15 24  1  0  0  0  0
 17 26  1  0  0  0  0
 18 10  1  0  0  0  0
 18 19  1  1  0  0  0
 20 21  1  6  0  0  0
 20 29  1  0  0  0  0
 22 13  1  0  0  0  0
 22 23  1  6  0  0  0
 24 25  1  6  0  0  0
 24 33  1  0  0  0  0
 26 27  1  1  0  0  0
 26 35  1  0  0  0  0
 28  2  1  6  0  0  0
 28 18  1  0  0  0  0
 29 30  1  0  0  0  0
 29 39  1  1  0  0  0
 31 22  1  0  0  0  0
 31 32  1  1  0  0  0
 31 41  1  0  0  0  0
 33 34  1  1  0  0  0
 33 43  1  0  0  0  0
 35 36  1  0  0  0  0
 35 45  1  1  0  0  0
 37 28  1  0  0  0  0
 37 38  1  1  0  0  0
 39 40  1  0  0  0  0
 41 42  1  0  0  0  0
 41 49  1  1  0  0  0
 43 44  1  0  0  0  0
 43 51  1  6  0  0  0
 45 46  1  0  0  0  0
 47 37  1  0  0  0  0
 47 48  1  6  0  0  0
 49 50  1  0  0  0  0
 51 52  1  0  0  0  0
M  END
>  <CHROM.1>
-172.91070920,68.45565801,73.25573524,168.60795850,91.14480901,-142.84514858
63.05686758,112.77516443,64.06280816,100.65878606,176.81649035,61.75372795
3.77096501,-47.97180724,11.32964463,-0.24238904,-0.85553057,-1.20314323

>  <Name>
2fd0_lig

>  <RI>
3.4301e+07

>  <Rbt.Current_Directory>
/home/itssahil/PROJECTS/Mol_Feturizer/New_Systems/rnas/2fd0

>  <Rbt.Executable>
rbdock ($Id: //depot/dev/client3/rdock/2013.1/src/exe/rbdock.cxx#4 $)

>  <Rbt.Library>
libRbt.so (2013.1, Build901 2013/11/27)

>  <Rbt.Parameter_File>
/export/apps/rDock/src/rDock_2013.1_src/data/scripts/dock_solv.prm

>  <Rbt.Receptor>
prm/pocket_docking_7.prm

>  <SCORE>
-22.0774

>  <SCORE.INTER>
-24.2618

>  <SCORE.INTER.CONST>
1

>  <SCORE.INTER.POLAR>
-3.05293

>  <SCORE.INTER.ROT>
12

>  <SCORE.INTER.SOLV>
22.415

>  <SCORE.INTER.VDW>
-25.0698

>  <SCORE.INTER.norm>
-0.466574

>  <SCORE.INTRA>
2.18442

>  <SCORE.INTRA.DIHEDRAL>
0.668184

>  <SCORE.INTRA.DIHEDRAL.0>
23.9727

>  <SCORE.INTRA.POLAR>
0

>  <SCORE.INTRA.POLAR.0>
0

>  <SCORE.INTRA.REPUL>
0

>  <SCORE.INTRA.REPUL.0>
0

>  <SCORE.INTRA.SOLV>
2.04174

>  <SCORE.INTRA.SOLV.lig_0>
-115.028

>  <SCORE.INTRA.VDW>
0.829457

>  <SCORE.INTRA.VDW.0>
-6.82393

>  <SCORE.INTRA.norm>
0.042008

>  <SCORE.RESTR>
0

>  <SCORE.RESTR.CAVITY>
0

>  <SCORE.RESTR.norm>
0

>  <SCORE.SYSTEM>
0

>  <SCORE.SYSTEM.CONST>
0

>  <SCORE.SYSTEM.DIHEDRAL>
0

>  <SCORE.SYSTEM.SOLV>
0

>  <SCORE.SYSTEM.norm>
0

>  <SCORE.heavy>
52

>  <SCORE.norm>
-0.424565

>  <RMSD>
5.202

$$$$
2fd0_lig
 OpenBabel11021811433D
libRbt.so/2013.1/901 2013/11/27
 52 56  0  0  0  0  0  0  0  0999 V2000
    6.2977  -44.6652   12.6893 C   0  0  2  0  0  0  0  0  0  0  0  0
    7.2600  -45.2089   13.6033 O   0  0  0  0  0  0  0  0  0  0  0  0
    7.6583  -48.9519   15.7768 C   0  0  2  0  0  0  0  0  0  0  0  0
    7.4243  -50.0390   16.7413 N   0  0  0  0  0  0  0  0  0  0  0  0
    5.3938  -47.7415   11.6511 C   0  0  1  0  0  0  0  0  0  0  0  0
    3.3191  -50.5653    9.3449 C   0  0  1  0  0  0  0  0  0  0  0  0
    1.6143  -52.6579    5.5821 C   0  0  1  0  0  0  0  0  0  0  0  0
    6.9239  -43.3995   11.9984 C   0  0  2  0  0  0  0  0  0  0  0  0
    8.1745  -43.7139   11.3216 N   0  0  0  0  0  0  0  0  0  0  0  0
    7.9172  -47.5807   16.5423 C   0  0  0  0  0  0  0  0  0  0  0  0
    4.2677  -48.7512   11.5252 C   0  0  2  0  0  0  0  0  0  0  0  0
    4.7442  -50.1232   11.6180 O   0  0  0  0  0  0  0  0  0  0  0  0
    3.7024  -51.3957    8.0323 C   0  0  2  0  0  0  0  0  0  0  0  0
    3.3088  -50.6469    6.8077 N   0  0  0  0  0  0  0  0  0  0  0  0
    0.4555  -51.9722    4.8239 C   0  0  1  0  0  0  0  0  0  0  0  0
    0.6147  -50.5349    4.9185 O   0  0  0  0  0  0  0  0  0  0  0  0
    7.1148  -42.2413   13.0466 C   0  0  0  0  0  0  0  0  0  0  0  0
    8.1826  -46.4008   15.4903 C   0  0  2  0  0  0  0  0  0  0  0  0
    8.4224  -45.1206   16.1727 N   0  0  0  0  0  0  0  0  0  0  0  0
    3.6067  -48.3613   10.2139 C   0  0  2  0  0  0  0  0  0  0  0  0
    3.8816  -49.2935    9.2038 O   0  0  0  0  0  0  0  0  0  0  0  0
    3.0535  -52.8674    8.1868 C   0  0  1  0  0  0  0  0  0  0  0  0
    3.5489  -53.4451    9.4083 O   0  0  0  0  0  0  0  0  0  0  0  0
    0.2641  -52.3386    3.3273 C   0  0  1  0  0  0  0  0  0  0  0  0
    0.9857  -51.3806    2.5425 O   0  0  0  0  0  0  0  0  0  0  0  0
    5.7356  -41.9524   13.7241 C   0  0  2  0  0  0  0  0  0  0  0  0
    5.8621  -40.8946   14.6692 O   0  0  0  0  0  0  0  0  0  0  0  0
    6.9579  -46.2795   14.5412 C   0  0  2  0  0  0  0  0  0  0  0  0
    4.2279  -47.0322    9.7218 C   0  0  2  0  0  0  0  0  0  0  0  0
    5.0433  -46.6488   10.8198 O   0  0  0  0  0  0  0  0  0  0  0  0
    1.4441  -52.8043    8.3283 C   0  0  2  0  0  0  0  0  0  0  0  0
    0.9941  -52.2387    7.0828 O   0  0  0  0  0  0  0  0  0  0  0  0
    0.7109  -53.7595    2.9126 C   0  0  2  0  0  0  0  0  0  0  0  0
   -0.3035  -54.2392    2.0029 O   0  0  0  0  0  0  0  0  0  0  0  0
    5.2281  -43.2399   14.4343 C   0  0  2  0  0  0  0  0  0  0  0  0
    5.0949  -44.3064   13.4172 O   0  0  0  0  0  0  0  0  0  0  0  0
    6.6267  -47.6157   13.8091 C   0  0  2  0  0  0  0  0  0  0  0  0
    5.4504  -47.3874   12.9966 O   0  0  0  0  0  0  0  0  0  0  0  0
    3.2293  -45.9121    9.4524 C   0  0  0  0  0  0  0  0  0  0  0  0
    2.3362  -46.3813    8.4309 O   0  0  0  0  0  0  0  0  0  0  0  0
    1.1697  -51.8076    9.4386 C   0  0  1  0  0  0  0  0  0  0  0  0
    1.7941  -50.5115    9.5506 O   0  0  0  0  0  0  0  0  0  0  0  0
    0.9054  -54.6517    4.1356 C   0  0  2  0  0  0  0  0  0  0  0  0
    1.7533  -54.0864    5.1733 O   0  0  0  0  0  0  0  0  0  0  0  0
    3.8912  -43.0394   15.0742 C   0  0  0  0  0  0  0  0  0  0  0  0
    3.4948  -44.2585   15.6420 O   0  0  0  0  0  0  0  0  0  0  0  0
    6.3846  -48.7612   14.8588 C   0  0  1  0  0  0  0  0  0  0  0  0
    6.1274  -50.0131   14.1334 O   0  0  0  0  0  0  0  0  0  0  0  0
   -0.3611  -51.5735    9.6960 C   0  0  0  0  0  0  0  0  0  0  0  0
   -0.6400  -50.6240   10.8006 N   0  0  0  0  0  0  0  0  0  0  0  0
    1.3560  -56.1056    4.0125 C   0  0  0  0  0  0  0  0  0  0  0  0
    1.4267  -56.7292    5.3318 O   0  0  0  0  0  0  0  0  0  0  0  0
  1  2  1  1  0  0  0
  1  8  1  0  0  0  0
  1 36  1  0  0  0  0
  3  4  1  1  0  0  0
  3 10  1  0  0  0  0
  3 47  1  0  0  0  0
  5 11  1  0  0  0  0
  5 30  1  0  0  0  0
  5 38  1  1  0  0  0
  6 21  1  6  0  0  0
  6 42  1  0  0  0  0
  7 15  1  0  0  0  0
  7 44  1  0  0  0  0
  7 32  1  1  0  0  0
  8  9  1  1  0  0  0
  8 17  1  0  0  0  0
 11 12  1  6  0  0  0
 11 20  1  0  0  0  0
 13  6  1  0  0  0  0
 13 14  1  6  0  0  0
 15 16  1  6  0  0  0
 15 24  1  0  0  0  0
 17 26  1  0  0  0  0
 18 10  1  0  0  0  0
 18 19  1  1  0  0  0
 20 21  1  6  0  0  0
 20 29  1  0  0  0  0
 22 13  1  0  0  0  0
 22 23  1  1  0  0  0
 24 25  1  6  0  0  0
 24 33  1  0  0  0  0
 26 27  1  1  0  0  0
 26 35  1  0  0  0  0
 28  2  1  6  0  0  0
 28 18  1  0  0  0  0
 29 30  1  0  0  0  0
 29 39  1  1  0  0  0
 31 22  1  0  0  0  0
 31 32  1  6  0  0  0
 31 41  1  0  0  0  0
 33 34  1  6  0  0  0
 33 43  1  0  0  0  0
 35 36  1  0  0  0  0
 35 45  1  6  0  0  0
 37 28  1  0  0  0  0
 37 38  1  1  0  0  0
 39 40  1  0  0  0  0
 41 42  1  0  0  0  0
 41 49  1  6  0  0  0
 43 44  1  0  0  0  0
 43 51  1  6  0  0  0
 45 46  1  0  0  0  0
 47 37  1  0  0  0  0
 47 48  1  6  0  0  0
 49 50  1  0  0  0  0
 51 52  1  0  0  0  0
M  END
>  <CHROM.1>
171.74236835,119.14046103,176.46575664,166.53772106,67.94336055,-170.74738830
-60.33145933,41.92765679,177.81303428,130.12646181,178.67201693,-178.56659838
3.89107447,-48.90518823,10.24750091,0.61790262,-1.06163671,-0.05253003

>  <Name>
2fd0_lig

>  <RI>
0

>  <Rbt.Current_Directory>
/home/itssahil/PROJECTS/Mol_Feturizer/New_Systems/rnas/2fd0

>  <Rbt.Executable>
rbdock ($Id: //depot/dev/client3/rdock/2013.1/src/exe/rbdock.cxx#4 $)

>  <Rbt.Library>
libRbt.so (2013.1, Build901 2013/11/27)

>  <Rbt.Parameter_File>
/export/apps/rDock/src/rDock_2013.1_src/data/scripts/dock_solv.prm

>  <Rbt.Receptor>
prm/pocket_docking_6.prm

>  <SCORE>
-19.7856

>  <SCORE.INTER>
-17.0279

>  <SCORE.INTER.CONST>
1

>  <SCORE.INTER.POLAR>
-1.92264

>  <SCORE.INTER.ROT>
12

>  <SCORE.INTER.SOLV>
15.6967

>  <SCORE.INTER.VDW>
-21.7754

>  <SCORE.INTER.norm>
-0.327459

>  <SCORE.INTRA>
-2.76141

>  <SCORE.INTRA.DIHEDRAL>
-5.03872

>  <SCORE.INTRA.DIHEDRAL.0>
23.9727

>  <SCORE.INTRA.POLAR>
0

>  <SCORE.INTRA.POLAR.0>
0

>  <SCORE.INTRA.REPUL>
0

>  <SCORE.INTRA.REPUL.0>
0

>  <SCORE.INTRA.SOLV>
-3.01946

>  <SCORE.INTRA.SOLV.lig_0>
-115.028

>  <SCORE.INTRA.VDW>
1.26768

>  <SCORE.INTRA.VDW.0>
-6.82393

>  <SCORE.INTRA.norm>
-0.053104

>  <SCORE.RESTR>
0.00368856

>  <SCORE.RESTR.CAVITY>
0.00368856

>  <SCORE.RESTR.norm>
7.09338e-05

>  <SCORE.SYSTEM>
0

>  <SCORE.SYSTEM.CONST>
0

>  <SCORE.SYSTEM.DIHEDRAL>
0

>  <SCORE.SYSTEM.SOLV>
0

>  <SCORE.SYSTEM.norm>
0

>  <SCORE.heavy>
52

>  <SCORE.norm>
-0.380492

>  <RMSD>
5.318

$$$$
2fd0_lig
 OpenBabel11021811433D
libRbt.so/2013.1/901 2013/11/27
 52 56  0  0  0  0  0  0  0  0999 V2000
   -0.1788  -47.0180   13.9053 C   0  0  2  0  0  0  0  0  0  0  0  0
    0.7213  -47.4510   14.9345 O   0  0  0  0  0  0  0  0  0  0  0  0
    4.6373  -49.3359   15.0028 C   0  0  2  0  0  0  0  0  0  0  0  0
    5.7108  -50.3325   14.8568 N   0  0  0  0  0  0  0  0  0  0  0  0
    1.4529  -48.6783   11.8021 C   0  0  1  0  0  0  0  0  0  0  0  0
   -0.3107  -49.3616    7.7915 C   0  0  1  0  0  0  0  0  0  0  0  0
   -3.9719  -51.5118    4.7381 C   0  0  1  0  0  0  0  0  0  0  0  0
   -1.2646  -46.0826   14.5516 C   0  0  2  0  0  0  0  0  0  0  0  0
   -0.6635  -44.9475   15.2380 N   0  0  0  0  0  0  0  0  0  0  0  0
    3.4933  -49.8927   15.9589 C   0  0  0  0  0  0  0  0  0  0  0  0
    1.1770  -48.1338   10.4125 C   0  0  2  0  0  0  0  0  0  0  0  0
   -0.1000  -47.4399   10.3356 O   0  0  0  0  0  0  0  0  0  0  0  0
   -1.9100  -49.3200    7.7826 C   0  0  2  0  0  0  0  0  0  0  0  0
   -2.4684  -50.6322    8.2088 N   0  0  0  0  0  0  0  0  0  0  0  0
   -4.1075  -52.7377    5.6690 C   0  0  1  0  0  0  0  0  0  0  0  0
   -4.4309  -52.2818    7.0059 O   0  0  0  0  0  0  0  0  0  0  0  0
   -2.1951  -46.9082   15.5155 C   0  0  0  0  0  0  0  0  0  0  0  0
    2.3309  -48.8016   16.1253 C   0  0  2  0  0  0  0  0  0  0  0  0
    1.2586  -49.2929   17.0032 N   0  0  0  0  0  0  0  0  0  0  0  0
    1.3234  -49.3625    9.5308 C   0  0  2  0  0  0  0  0  0  0  0  0
    0.0804  -49.8056    9.0579 O   0  0  0  0  0  0  0  0  0  0  0  0
   -2.3705  -48.8095    6.3204 C   0  0  1  0  0  0  0  0  0  0  0  0
   -1.7522  -47.5322    6.0810 O   0  0  0  0  0  0  0  0  0  0  0  0
   -5.1373  -53.8289    5.2693 C   0  0  1  0  0  0  0  0  0  0  0  0
   -6.3746  -53.5307    5.9284 O   0  0  0  0  0  0  0  0  0  0  0  0
   -2.8104  -48.0998   14.7116 C   0  0  2  0  0  0  0  0  0  0  0  0
   -3.6759  -48.8633   15.5461 O   0  0  0  0  0  0  0  0  0  0  0  0
    1.7564  -48.4517   14.7241 C   0  0  2  0  0  0  0  0  0  0  0  0
    1.8708  -50.5269   10.3904 C   0  0  2  0  0  0  0  0  0  0  0  0
    2.1734  -49.8850   11.6208 O   0  0  0  0  0  0  0  0  0  0  0  0
   -1.8550  -49.7963    5.1479 C   0  0  2  0  0  0  0  0  0  0  0  0
   -2.5098  -51.0502    5.4175 O   0  0  0  0  0  0  0  0  0  0  0  0
   -5.4059  -53.9882    3.7550 C   0  0  2  0  0  0  0  0  0  0  0  0
   -5.4883  -55.4109    3.5194 O   0  0  0  0  0  0  0  0  0  0  0  0
   -1.6663  -49.0026   14.1677 C   0  0  2  0  0  0  0  0  0  0  0  0
   -0.8022  -48.1773   13.2949 O   0  0  0  0  0  0  0  0  0  0  0  0
    2.8501  -47.9548   13.7301 C   0  0  2  0  0  0  0  0  0  0  0  0
    2.2031  -47.7064   12.4590 O   0  0  0  0  0  0  0  0  0  0  0  0
    3.1451  -51.1768    9.8630 C   0  0  0  0  0  0  0  0  0  0  0  0
    4.1235  -50.1350    9.7269 O   0  0  0  0  0  0  0  0  0  0  0  0
   -0.3662  -49.9684    5.3831 C   0  0  1  0  0  0  0  0  0  0  0  0
    0.2345  -50.2561    6.6632 O   0  0  0  0  0  0  0  0  0  0  0  0
   -4.3249  -53.2945    2.9306 C   0  0  2  0  0  0  0  0  0  0  0  0
   -4.0671  -51.9126    3.3038 O   0  0  0  0  0  0  0  0  0  0  0  0
   -2.1891  -50.1452   13.3564 C   0  0  0  0  0  0  0  0  0  0  0  0
   -2.8287  -49.6177   12.2258 O   0  0  0  0  0  0  0  0  0  0  0  0
    3.9863  -49.0333   13.5936 C   0  0  1  0  0  0  0  0  0  0  0  0
    5.0218  -48.5097   12.6920 O   0  0  0  0  0  0  0  0  0  0  0  0
    0.3139  -50.9433    4.3577 C   0  0  0  0  0  0  0  0  0  0  0  0
   -0.1533  -52.3463    4.4712 N   0  0  0  0  0  0  0  0  0  0  0  0
   -4.3519  -53.2877    1.4037 C   0  0  0  0  0  0  0  0  0  0  0  0
   -4.3855  -54.6550    0.8900 O   0  0  0  0  0  0  0  0  0  0  0  0
  1  2  1  1  0  0  0
  1  8  1  0  0  0  0
  1 36  1  0  0  0  0
  3  4  1  6  0  0  0
  3 10  1  0  0  0  0
  3 47  1  0  0  0  0
  5 11  1  0  0  0  0
  5 30  1  0  0  0  0
  5 38  1  1  0  0  0
  6 21  1  1  0  0  0
  6 42  1  0  0  0  0
  7 15  1  0  0  0  0
  7 44  1  0  0  0  0
  7 32  1  6  0  0  0
  8  9  1  1  0  0  0
  8 17  1  0  0  0  0
 11 12  1  1  0  0  0
 11 20  1  0  0  0  0
 13  6  1  0  0  0  0
 13 14  1  6  0  0  0
 15 16  1  1  0  0  0
 15 24  1  0  0  0  0
 17 26  1  0  0  0  0
 18 10  1  0  0  0  0
 18 19  1  1  0  0  0
 20 21  1  1  0  0  0
 20 29  1  0  0  0  0
 22 13  1  0  0  0  0
 22 23  1  6  0  0  0
 24 25  1  1  0  0  0
 24 33  1  0  0  0  0
 26 27  1  1  0  0  0
 26 35  1  0  0  0  0
 28  2  1  1  0  0  0
 28 18  1  0  0  0  0
 29 30  1  0  0  0  0
 29 39  1  6  0  0  0
 31 22  1  0  0  0  0
 31 32  1  1  0  0  0
 31 41  1  0  0  0  0
 33 34  1  6  0  0  0
 33 43  1  0  0  0  0
 35 36  1  0  0  0  0
 35 45  1  6  0  0  0
 37 28  1  0  0  0  0
 37 38  1  6  0  0  0
 39 40  1  0  0  0  0
 41 42  1  0  0  0  0
 41 49  1  6  0  0  0
 43 44  1  0  0  0  0
 43 51  1  6  0  0  0
 45 46  1  0  0  0  0
 47 37  1  0  0  0  0
 47 48  1  6  0  0  0
 49 50  1  0  0  0  0
 51 52  1  0  0  0  0
M  END
>  <CHROM.1>
172.56968177,-169.33475548,-151.26117539,-170.13448606,95.25730092,-170.47879888
56.17743608,93.09823557,63.85549785,-55.13039353,-65.57548629,-56.76338549
-0.68664472,-49.96817841,9.73193982,1.12574179,0.04474134,1.19992417

>  <Name>
2fd0_lig

>  <RI>
0

>  <Rbt.Current_Directory>
/home/itssahil/PROJECTS/Mol_Feturizer/New_Systems/rnas/2fd0

>  <Rbt.Executable>
rbdock ($Id: //depot/dev/client3/rdock/2013.1/src/exe/rbdock.cxx#4 $)

>  <Rbt.Library>
libRbt.so (2013.1, Build901 2013/11/27)

>  <Rbt.Parameter_File>
/export/apps/rDock/src/rDock_2013.1_src/data/scripts/dock_solv.prm

>  <Rbt.Receptor>
prm/pocket_docking_6.prm

>  <SCORE>
-14.6513

>  <SCORE.INTER>
-10.4088

>  <SCORE.INTER.CONST>
1

>  <SCORE.INTER.POLAR>
-1.83251

>  <SCORE.INTER.ROT>
12

>  <SCORE.INTER.SOLV>
17.5752

>  <SCORE.INTER.VDW>
-18.2892

>  <SCORE.INTER.norm>
-0.200169

>  <SCORE.INTRA>
-4.24251

>  <SCORE.INTRA.DIHEDRAL>
-8.30113

>  <SCORE.INTRA.DIHEDRAL.0>
23.9727

>  <SCORE.INTRA.POLAR>
0

>  <SCORE.INTRA.POLAR.0>
0

>  <SCORE.INTRA.REPUL>
0

>  <SCORE.INTRA.REPUL.0>
0

>  <SCORE.INTRA.SOLV>
-0.0385439

>  <SCORE.INTRA.SOLV.lig_0>
-115.028

>  <SCORE.INTRA.VDW>
-0.0726711

>  <SCORE.INTRA.VDW.0>
-6.82393

>  <SCORE.INTRA.norm>
-0.0815867

>  <SCORE.RESTR>
0

>  <SCORE.RESTR.CAVITY>
0

>  <SCORE.RESTR.norm>
0

>  <SCORE.SYSTEM>
0

>  <SCORE.SYSTEM.CONST>
0

>  <SCORE.SYSTEM.DIHEDRAL>
0

>  <SCORE.SYSTEM.SOLV>
0

>  <SCORE.SYSTEM.norm>
0

>  <SCORE.heavy>
52

>  <SCORE.norm>
-0.281756

>  <RMSD>
5.371

$$$$
2fd0_lig
 OpenBabel11021811433D
libRbt.so/2013.1/901 2013/11/27
 52 56  0  0  0  0  0  0  0  0999 V2000
    3.2241  -47.2680   11.6295 C   0  0  2  0  0  0  0  0  0  0  0  0
    2.7463  -48.2559   10.7061 O   0  0  0  0  0  0  0  0  0  0  0  0
   -0.8937  -49.7764   12.5312 C   0  0  2  0  0  0  0  0  0  0  0  0
   -2.2272  -50.3769   12.6985 N   0  0  0  0  0  0  0  0  0  0  0  0
    2.0784  -51.7601    9.8341 C   0  0  1  0  0  0  0  0  0  0  0  0
    0.9462  -52.7119    6.7905 C   0  0  1  0  0  0  0  0  0  0  0  0
   -4.2378  -51.8648    6.3695 C   0  0  1  0  0  0  0  0  0  0  0  0
    4.7791  -47.1248   11.4483 C   0  0  2  0  0  0  0  0  0  0  0  0
    5.1364  -46.7825   10.0787 N   0  0  0  0  0  0  0  0  0  0  0  0
   -0.9774  -48.5008   11.5832 C   0  0  0  0  0  0  0  0  0  0  0  0
    2.2856  -50.7440    8.7258 C   0  0  2  0  0  0  0  0  0  0  0  0
    1.0635  -50.0222    8.4038 O   0  0  0  0  0  0  0  0  0  0  0  0
    0.1888  -52.9226    5.3971 C   0  0  2  0  0  0  0  0  0  0  0  0
   -0.2475  -51.6143    4.8374 N   0  0  0  0  0  0  0  0  0  0  0  0
   -4.0182  -50.4854    5.7086 C   0  0  1  0  0  0  0  0  0  0  0  0
   -3.8311  -50.6692    4.2834 O   0  0  0  0  0  0  0  0  0  0  0  0
    5.5086  -48.4369   11.9202 C   0  0  0  0  0  0  0  0  0  0  0  0
    0.4738  -47.8422   11.4115 C   0  0  2  0  0  0  0  0  0  0  0  0
    0.4246  -46.6616   10.5366 N   0  0  0  0  0  0  0  0  0  0  0  0
    2.8822  -51.5796    7.6058 C   0  0  2  0  0  0  0  0  0  0  0  0
    1.9618  -51.7778    6.5674 O   0  0  0  0  0  0  0  0  0  0  0  0
   -0.9890  -54.0002    5.6472 C   0  0  1  0  0  0  0  0  0  0  0  0
   -0.3902  -55.1985    6.1729 O   0  0  0  0  0  0  0  0  0  0  0  0
   -5.1187  -49.4098    5.9156 C   0  0  1  0  0  0  0  0  0  0  0  0
   -6.0297  -49.4921    4.8122 O   0  0  0  0  0  0  0  0  0  0  0  0
    5.0869  -48.7364   13.3958 C   0  0  2  0  0  0  0  0  0  0  0  0
    5.7417  -49.9097   13.8677 O   0  0  0  0  0  0  0  0  0  0  0  0
    1.4480  -48.9019   10.8252 C   0  0  2  0  0  0  0  0  0  0  0  0
    3.1900  -52.9940    8.1529 C   0  0  2  0  0  0  0  0  0  0  0  0
    2.9395  -52.8472    9.5433 O   0  0  0  0  0  0  0  0  0  0  0  0
   -2.0466  -53.4896    6.7585 C   0  0  2  0  0  0  0  0  0  0  0  0
   -2.6301  -52.3049    6.1841 O   0  0  0  0  0  0  0  0  0  0  0  0
   -5.9228  -49.5046    7.2329 C   0  0  2  0  0  0  0  0  0  0  0  0
   -6.0804  -48.1449    7.6943 O   0  0  0  0  0  0  0  0  0  0  0  0
    3.5445  -48.9262   13.4646 C   0  0  2  0  0  0  0  0  0  0  0  0
    2.9041  -47.6824   12.9827 O   0  0  0  0  0  0  0  0  0  0  0  0
    1.5219  -50.1976   11.6893 C   0  0  2  0  0  0  0  0  0  0  0  0
    2.4192  -51.1164   11.0209 O   0  0  0  0  0  0  0  0  0  0  0  0
    4.6310  -53.4581    7.9720 C   0  0  0  0  0  0  0  0  0  0  0  0
    5.4751  -52.4300    8.5121 O   0  0  0  0  0  0  0  0  0  0  0  0
   -1.2138  -53.0840    7.9599 C   0  0  1  0  0  0  0  0  0  0  0  0
   -0.0269  -52.2659    7.8972 O   0  0  0  0  0  0  0  0  0  0  0  0
   -5.2217  -50.4133    8.2389 C   0  0  2  0  0  0  0  0  0  0  0  0
   -4.8503  -51.7214    7.7227 O   0  0  0  0  0  0  0  0  0  0  0  0
    3.0710  -49.1812   14.8603 C   0  0  0  0  0  0  0  0  0  0  0  0
    3.5851  -50.4183   15.2737 O   0  0  0  0  0  0  0  0  0  0  0  0
    0.0867  -50.8181   11.8566 C   0  0  1  0  0  0  0  0  0  0  0  0
    0.1880  -52.0049   12.7172 O   0  0  0  0  0  0  0  0  0  0  0  0
   -2.0719  -52.5105    9.1428 C   0  0  0  0  0  0  0  0  0  0  0  0
   -2.4335  -51.0818    8.9771 N   0  0  0  0  0  0  0  0  0  0  0  0
   -5.8062  -50.6913    9.6220 C   0  0  0  0  0  0  0  0  0  0  0  0
   -7.1307  -51.2959    9.5019 O   0  0  0  0  0  0  0  0  0  0  0  0
  1  2  1  6  0  0  0
  1  8  1  0  0  0  0
  1 36  1  0  0  0  0
  3  4  1  6  0  0  0
  3 10  1  0  0  0  0
  3 47  1  0  0  0  0
  5 11  1  0  0  0  0
  5 30  1  0  0  0  0
  5 38  1  1  0  0  0
  6 21  1  6  0  0  0
  6 42  1  0  0  0  0
  7 15  1  0  0  0  0
  7 44  1  0  0  0  0
  7 32  1  1  0  0  0
  8  9  1  6  0  0  0
  8 17  1  0  0  0  0
 11 12  1  6  0  0  0
 11 20  1  0  0  0  0
 13  6  1  0  0  0  0
 13 14  1  1  0  0  0
 15 16  1  6  0  0  0
 15 24  1  0  0  0  0
 17 26  1  0  0  0  0
 18 10  1  0  0  0  0
 18 19  1  6  0  0  0
 20 21  1  6  0  0  0
 20 29  1  0  0  0  0
 22 13  1  0  0  0  0
 22 23  1  1  0  0  0
 24 25  1  6  0  0  0
 24 33  1  0  0  0  0
 26 27  1  6  0  0  0
 26 35  1  0  0  0  0
 28  2  1  1  0  0  0
 28 18  1  0  0  0  0
 29 30  1  0  0  0  0
 29 39  1  1  0  0  0
 31 22  1  0  0  0  0
 31 32  1  6  0  0  0
 31 41  1  0  0  0  0
 33 34  1  1  0  0  0
 33 43  1  0  0  0  0
 35 36  1  0  0  0  0
 35 45  1  1  0  0  0
 37 28  1  0  0  0  0
 37 38  1  6  0  0  0
 39 40  1  0  0  0  0
 41 42  1  0  0  0  0
 41 49  1  1  0  0  0
 43 44  1  0  0  0  0
 43 51  1  1  0  0  0
 45 46  1  0  0  0  0
 47 37  1  0  0  0  0
 47 48  1  1  0  0  0
 49 50  1  0  0  0  0
 51 52  1  0  0  0  0
M  END
>  <CHROM.1>
163.11333668,79.14911842,-171.06556573,171.84993368,-75.95173347,34.13286710
52.34306278,143.59648790,-65.94131261,-71.11182894,-81.60522883,59.09225077
0.08913636,-50.62108121,9.31826009,0.58855764,-0.20946279,0.94371164

>  <Name>
2fd0_lig

>  <RI>
0

>  <Rbt.Current_Directory>
/home/itssahil/PROJECTS/Mol_Feturizer/New_Systems/rnas/2fd0

>  <Rbt.Executable>
rbdock ($Id: //depot/dev/client3/rdock/2013.1/src/exe/rbdock.cxx#4 $)

>  <Rbt.Library>
libRbt.so (2013.1, Build901 2013/11/27)

>  <Rbt.Parameter_File>
/export/apps/rDock/src/rDock_2013.1_src/data/scripts/dock_solv.prm

>  <Rbt.Receptor>
prm/pocket_docking_5.prm

>  <SCORE>
-2.4471

>  <SCORE.INTER>
-5.33597

>  <SCORE.INTER.CONST>
1

>  <SCORE.INTER.POLAR>
-1.423

>  <SCORE.INTER.ROT>
12

>  <SCORE.INTER.SOLV>
13.1177

>  <SCORE.INTER.VDW>
-14.7865

>  <SCORE.INTER.norm>
-0.102615

>  <SCORE.INTRA>
2.88887

>  <SCORE.INTRA.DIHEDRAL>
-8.05189

>  <SCORE.INTRA.DIHEDRAL.0>
23.9727

>  <SCORE.INTRA.POLAR>
0

>  <SCORE.INTRA.POLAR.0>
0

>  <SCORE.INTRA.REPUL>
0

>  <SCORE.INTRA.REPUL.0>
0

>  <SCORE.INTRA.SOLV>
6.43167

>  <SCORE.INTRA.SOLV.lig_0>
-115.028

>  <SCORE.INTRA.VDW>
3.69898

>  <SCORE.INTRA.VDW.0>
-6.82393

>  <SCORE.INTRA.norm>
0.0555552

>  <SCORE.RESTR>
0

>  <SCORE.RESTR.CAVITY>
0

>  <SCORE.RESTR.norm>
0

>  <SCORE.SYSTEM>
0

>  <SCORE.SYSTEM.CONST>
0

>  <SCORE.SYSTEM.DIHEDRAL>
0

>  <SCORE.SYSTEM.SOLV>
0

>  <SCORE.SYSTEM.norm>
0

>  <SCORE.heavy>
52

>  <SCORE.norm>
-0.0470596

>  <RMSD>
5.452

$$$$
2fd0_lig
 OpenBabel11021811433D
libRbt.so/2013.1/901 2013/11/27
 52 56  0  0  0  0  0  0  0  0999 V2000
    3.5616  -45.5445   14.1776 C   0  0  2  0  0  0  0  0  0  0  0  0
    2.7617  -46.6854   13.8378 O   0  0  0  0  0  0  0  0  0  0  0  0
    4.2746  -49.7685   16.5022 C   0  0  2  0  0  0  0  0  0  0  0  0
    4.4495  -51.0587   17.1890 N   0  0  0  0  0  0  0  0  0  0  0  0
    4.0562  -49.8377   12.0843 C   0  0  1  0  0  0  0  0  0  0  0  0
    0.1641  -51.7637   10.9580 C   0  0  1  0  0  0  0  0  0  0  0  0
   -2.7482  -52.3272    6.7609 C   0  0  1  0  0  0  0  0  0  0  0  0
    2.7977  -44.2464   13.7272 C   0  0  2  0  0  0  0  0  0  0  0  0
    1.4740  -44.1598   14.3281 N   0  0  0  0  0  0  0  0  0  0  0  0
    2.7887  -49.2340   16.7013 C   0  0  0  0  0  0  0  0  0  0  0  0
    2.5508  -49.8542   12.2770 C   0  0  2  0  0  0  0  0  0  0  0  0
    2.1481  -50.6822   13.4040 O   0  0  0  0  0  0  0  0  0  0  0  0
   -0.1383  -53.2619   10.4854 C   0  0  2  0  0  0  0  0  0  0  0  0
    0.5307  -53.5442    9.1861 N   0  0  0  0  0  0  0  0  0  0  0  0
   -1.8313  -53.2316    5.9071 C   0  0  1  0  0  0  0  0  0  0  0  0
   -2.1996  -54.6162    6.1237 O   0  0  0  0  0  0  0  0  0  0  0  0
    2.7204  -44.1733   12.1571 C   0  0  0  0  0  0  0  0  0  0  0  0
    2.6038  -47.8239   15.9619 C   0  0  2  0  0  0  0  0  0  0  0  0
    1.2368  -47.3086   16.1284 N   0  0  0  0  0  0  0  0  0  0  0  0
    2.0384  -50.2872   10.9137 C   0  0  2  0  0  0  0  0  0  0  0  0
    1.5524  -51.6016   10.9421 O   0  0  0  0  0  0  0  0  0  0  0  0
   -1.7423  -53.4568   10.4990 C   0  0  1  0  0  0  0  0  0  0  0  0
   -2.2148  -53.1566   11.8247 O   0  0  0  0  0  0  0  0  0  0  0  0
   -1.7987  -52.9752    4.3760 C   0  0  1  0  0  0  0  0  0  0  0  0
   -2.7661  -53.8373    3.7634 O   0  0  0  0  0  0  0  0  0  0  0  0
    4.1723  -44.2621   11.5837 C   0  0  2  0  0  0  0  0  0  0  0  0
    4.1472  -44.1809   10.1621 O   0  0  0  0  0  0  0  0  0  0  0  0
    2.9309  -47.9936   14.4520 C   0  0  2  0  0  0  0  0  0  0  0  0
    3.2269  -50.3135    9.9232 C   0  0  2  0  0  0  0  0  0  0  0  0
    4.2776  -49.7403   10.6881 O   0  0  0  0  0  0  0  0  0  0  0  0
   -2.4833  -52.4219    9.5019 C   0  0  2  0  0  0  0  0  0  0  0  0
   -1.9953  -52.7699    8.1926 O   0  0  0  0  0  0  0  0  0  0  0  0
   -2.0705  -51.5217    3.9241 C   0  0  2  0  0  0  0  0  0  0  0  0
   -1.1327  -51.2616    2.8567 O   0  0  0  0  0  0  0  0  0  0  0  0
    4.8223  -45.6042   12.0265 C   0  0  2  0  0  0  0  0  0  0  0  0
    4.8439  -45.6410   13.5055 O   0  0  0  0  0  0  0  0  0  0  0  0
    4.3581  -48.5704   14.2046 C   0  0  2  0  0  0  0  0  0  0  0  0
    4.5246  -48.7227   12.7745 O   0  0  0  0  0  0  0  0  0  0  0  0
    3.0383  -49.4748    8.6640 C   0  0  0  0  0  0  0  0  0  0  0  0
    4.3478  -49.1810    8.1541 O   0  0  0  0  0  0  0  0  0  0  0  0
   -1.9504  -51.0493    9.8670 C   0  0  1  0  0  0  0  0  0  0  0  0
   -0.5557  -50.7366   10.0651 O   0  0  0  0  0  0  0  0  0  0  0  0
   -1.9467  -50.5512    5.0956 C   0  0  2  0  0  0  0  0  0  0  0  0
   -2.7172  -50.9170    6.2737 O   0  0  0  0  0  0  0  0  0  0  0  0
    6.2301  -45.7353   11.5385 C   0  0  0  0  0  0  0  0  0  0  0  0
    6.9708  -44.6643   12.0581 O   0  0  0  0  0  0  0  0  0  0  0  0
    4.5220  -49.9452   14.9501 C   0  0  1  0  0  0  0  0  0  0  0  0
    5.8923  -50.4317   14.7376 O   0  0  0  0  0  0  0  0  0  0  0  0
   -2.5268  -49.9013    8.9647 C   0  0  0  0  0  0  0  0  0  0  0  0
   -2.1517  -48.5410    9.4211 N   0  0  0  0  0  0  0  0  0  0  0  0
   -2.1756  -49.0505    4.9301 C   0  0  0  0  0  0  0  0  0  0  0  0
   -3.5111  -48.7961    4.3952 O   0  0  0  0  0  0  0  0  0  0  0  0
  1  2  1  6  0  0  0
  1  8  1  0  0  0  0
  1 36  1  0  0  0  0
  3  4  1  1  0  0  0
  3 10  1  0  0  0  0
  3 47  1  0  0  0  0
  5 11  1  0  0  0  0
  5 30  1  0  0  0  0
  5 38  1  1  0  0  0
  6 21  1  6  0  0  0
  6 42  1  0  0  0  0
  7 15  1  0  0  0  0
  7 44  1  0  0  0  0
  7 32  1  1  0  0  0
  8  9  1  1  0  0  0
  8 17  1  0  0  0  0
 11 12  1  1  0  0  0
 11 20  1  0  0  0  0
 13  6  1  0  0  0  0
 13 14  1  6  0  0  0
 15 16  1  6  0  0  0
 15 24  1  0  0  0  0
 17 26  1  0  0  0  0
 18 10  1  0  0  0  0
 18 19  1  6  0  0  0
 20 21  1  1  0  0  0
 20 29  1  0  0  0  0
 22 13  1  0  0  0  0
 22 23  1  1  0  0  0
 24 25  1  6  0  0  0
 24 33  1  0  0  0  0
 26 27  1  6  0  0  0
 26 35  1  0  0  0  0
 28  2  1  6  0  0  0
 28 18  1  0  0  0  0
 29 30  1  0  0  0  0
 29 39  1  6  0  0  0
 31 22  1  0  0  0  0
 31 32  1  6  0  0  0
 31 41  1  0  0  0  0
 33 34  1  6  0  0  0
 33 43  1  0  0  0  0
 35 36  1  0  0  0  0
 35 45  1  6  0  0  0
 37 28  1  0  0  0  0
 37 38  1  6  0  0  0
 39 40  1  0  0  0  0
 41 42  1  0  0  0  0
 41 49  1  6  0  0  0
 43 44  1  0  0  0  0
 43 51  1  6  0  0  0
 45 46  1  0  0  0  0
 47 37  1  0  0  0  0
 47 48  1  1  0  0  0
 49 50  1  0  0  0  0
 51 52  1  0  0  0  0
M  END
>  <CHROM.1>
-160.19784145,61.43242121,160.81787467,-170.75395581,103.37123407,63.41806039
157.54633005,161.55958116,59.35813575,-83.29207907,172.52868492,57.38852361
1.33659382,-49.55236360,10.58209361,-0.25200120,-0.95742484,-0.86562135

>  <Name>
2fd0_lig

>  <RI>
0

>  <Rbt.Current_Directory>
/home/itssahil/PROJECTS/Mol_Feturizer/New_Systems/rnas/2fd0

>  <Rbt.Executable>
rbdock ($Id: //depot/dev/client3/rdock/2013.1/src/exe/rbdock.cxx#4 $)

>  <Rbt.Library>
libRbt.so (2013.1, Build901 2013/11/27)

>  <Rbt.Parameter_File>
/export/apps/rDock/src/rDock_2013.1_src/data/scripts/dock_solv.prm

>  <Rbt.Receptor>
prm/pocket_docking_6.prm

>  <SCORE>
-20.9569

>  <SCORE.INTER>
-18.7988

>  <SCORE.INTER.CONST>
1

>  <SCORE.INTER.POLAR>
-3.19953

>  <SCORE.INTER.ROT>
12

>  <SCORE.INTER.SOLV>
17.4813

>  <SCORE.INTER.VDW>
-19.2945

>  <SCORE.INTER.norm>
-0.361514

>  <SCORE.INTRA>
-2.15812

>  <SCORE.INTRA.DIHEDRAL>
-6.83169

>  <SCORE.INTRA.DIHEDRAL.0>
23.9727

>  <SCORE.INTRA.POLAR>
0

>  <SCORE.INTRA.POLAR.0>
0

>  <SCORE.INTRA.REPUL>
0

>  <SCORE.INTRA.REPUL.0>
0

>  <SCORE.INTRA.SOLV>
-1.83808

>  <SCORE.INTRA.SOLV.lig_0>
-115.028

>  <SCORE.INTRA.VDW>
2.17676

>  <SCORE.INTRA.VDW.0>
-6.82393

>  <SCORE.INTRA.norm>
-0.0415023

>  <SCORE.RESTR>
0

>  <SCORE.RESTR.CAVITY>
0

>  <SCORE.RESTR.norm>
0

>  <SCORE.SYSTEM>
0

>  <SCORE.SYSTEM.CONST>
0

>  <SCORE.SYSTEM.DIHEDRAL>
0

>  <SCORE.SYSTEM.SOLV>
0

>  <SCORE.SYSTEM.norm>
0

>  <SCORE.heavy>
52

>  <SCORE.norm>
-0.403017

>  <RMSD>
5.478

$$$$
2fd0_lig
 OpenBabel11021811433D
libRbt.so/2013.1/901 2013/11/27
 52 56  0  0  0  0  0  0  0  0999 V2000
    0.5514  -48.7072   12.8695 C   0  0  2  0  0  0  0  0  0  0  0  0
    1.2051  -48.2111   14.0457 O   0  0  0  0  0  0  0  0  0  0  0  0
    4.5728  -49.5387   16.4516 C   0  0  2  0  0  0  0  0  0  0  0  0
    5.4031  -50.3222   17.3810 N   0  0  0  0  0  0  0  0  0  0  0  0
    3.5401  -50.5664   11.9320 C   0  0  1  0  0  0  0  0  0  0  0  0
    3.4078  -53.0290    8.3276 C   0  0  1  0  0  0  0  0  0  0  0  0
   -1.3546  -53.6641    7.1607 C   0  0  1  0  0  0  0  0  0  0  0  0
   -0.4288  -47.5993   12.3373 C   0  0  2  0  0  0  0  0  0  0  0  0
    0.2636  -46.3470   12.0668 N   0  0  0  0  0  0  0  0  0  0  0  0
    3.2498  -49.0381   17.1811 C   0  0  0  0  0  0  0  0  0  0  0  0
    2.8580  -51.6637   11.1357 C   0  0  2  0  0  0  0  0  0  0  0  0
    3.4568  -52.9692   11.3707 O   0  0  0  0  0  0  0  0  0  0  0  0
    3.0733  -52.6536    6.8088 C   0  0  2  0  0  0  0  0  0  0  0  0
    2.1478  -51.4894    6.7509 N   0  0  0  0  0  0  0  0  0  0  0  0
   -1.9343  -53.1409    5.8273 C   0  0  1  0  0  0  0  0  0  0  0  0
   -1.8021  -54.1723    4.8180 O   0  0  0  0  0  0  0  0  0  0  0  0
   -1.6187  -47.3903   13.3457 C   0  0  0  0  0  0  0  0  0  0  0  0
    2.3527  -48.1760   16.1705 C   0  0  2  0  0  0  0  0  0  0  0  0
    1.1212  -47.7029   16.8198 N   0  0  0  0  0  0  0  0  0  0  0  0
    2.9291  -51.1435    9.7099 C   0  0  2  0  0  0  0  0  0  0  0  0
    3.8612  -51.8613    8.9478 O   0  0  0  0  0  0  0  0  0  0  0  0
    2.5460  -53.9986    6.0850 C   0  0  1  0  0  0  0  0  0  0  0  0
    3.5631  -55.0069    6.2266 O   0  0  0  0  0  0  0  0  0  0  0  0
   -3.4092  -52.6553    5.8300 C   0  0  1  0  0  0  0  0  0  0  0  0
   -4.2382  -53.7594    5.4455 O   0  0  0  0  0  0  0  0  0  0  0  0
   -2.3186  -48.7686   13.5805 C   0  0  2  0  0  0  0  0  0  0  0  0
   -3.4157  -48.6186   14.4760 O   0  0  0  0  0  0  0  0  0  0  0  0
    2.0032  -49.0458   14.9308 C   0  0  2  0  0  0  0  0  0  0  0  0
    3.4594  -49.6900    9.7388 C   0  0  2  0  0  0  0  0  0  0  0  0
    3.4865  -49.4001   11.1290 O   0  0  0  0  0  0  0  0  0  0  0  0
    1.2170  -54.5838    6.7960 C   0  0  2  0  0  0  0  0  0  0  0  0
    0.2273  -53.5535    6.6150 O   0  0  0  0  0  0  0  0  0  0  0  0
   -3.9334  -52.0812    7.1665 C   0  0  2  0  0  0  0  0  0  0  0  0
   -4.7285  -50.9284    6.8125 O   0  0  0  0  0  0  0  0  0  0  0  0
   -1.2902  -49.7779   14.1667 C   0  0  2  0  0  0  0  0  0  0  0  0
   -0.1779  -49.9171   13.2009 O   0  0  0  0  0  0  0  0  0  0  0  0
    3.2673  -49.6094   14.2129 C   0  0  2  0  0  0  0  0  0  0  0  0
    2.8126  -50.4319   13.1117 O   0  0  0  0  0  0  0  0  0  0  0  0
    2.5669  -48.6621    9.0523 C   0  0  0  0  0  0  0  0  0  0  0  0
    1.2775  -48.7389    9.6791 O   0  0  0  0  0  0  0  0  0  0  0  0
    1.5510  -54.6786    8.2728 C   0  0  1  0  0  0  0  0  0  0  0  0
    2.1836  -53.6329    9.0399 O   0  0  0  0  0  0  0  0  0  0  0  0
   -2.7813  -51.7603    8.1148 C   0  0  2  0  0  0  0  0  0  0  0  0
   -1.8351  -52.8469    8.3133 O   0  0  0  0  0  0  0  0  0  0  0  0
   -1.8901  -51.1310   14.3816 C   0  0  0  0  0  0  0  0  0  0  0  0
   -0.9334  -51.9334   15.0193 O   0  0  0  0  0  0  0  0  0  0  0  0
    4.1391  -50.4385   15.2255 C   0  0  1  0  0  0  0  0  0  0  0  0
    5.3443  -50.9087   14.5285 O   0  0  0  0  0  0  0  0  0  0  0  0
    0.3520  -55.1909    9.1470 C   0  0  0  0  0  0  0  0  0  0  0  0
    0.4075  -56.6437    9.4397 N   0  0  0  0  0  0  0  0  0  0  0  0
   -3.0183  -51.1894    9.5111 C   0  0  0  0  0  0  0  0  0  0  0  0
   -3.6422  -49.8713    9.4221 O   0  0  0  0  0  0  0  0  0  0  0  0
  1  2  1  1  0  0  0
  1  8  1  0  0  0  0
  1 36  1  0  0  0  0
  3  4  1  1  0  0  0
  3 10  1  0  0  0  0
  3 47  1  0  0  0  0
  5 11  1  0  0  0  0
  5 30  1  0  0  0  0
  5 38  1  1  0  0  0
  6 21  1  1  0  0  0
  6 42  1  0  0  0  0
  7 15  1  0  0  0  0
  7 44  1  0  0  0  0
  7 32  1  6  0  0  0
  8  9  1  1  0  0  0
  8 17  1  0  0  0  0
 11 12  1  6  0  0  0
 11 20  1  0  0  0  0
 13  6  1  0  0  0  0
 13 14  1  1  0  0  0
 15 16  1  6  0  0  0
 15 24  1  0  0  0  0
 17 26  1  0  0  0  0
 18 10  1  0  0  0  0
 18 19  1  1  0  0  0
 20 21  1  6  0  0  0
 20 29  1  0  0  0  0
 22 13  1  0  0  0  0
 22 23  1  1  0  0  0
 24 25  1  1  0  0  0
 24 33  1  0  0  0  0
 26 27  1  1  0  0  0
 26 35  1  0  0  0  0
 28  2  1  6  0  0  0
 28 18  1  0  0  0  0
 29 30  1  0  0  0  0
 29 39  1  6  0  0  0
 31 22  1  0  0  0  0
 31 32  1  1  0  0  0
 31 41  1  0  0  0  0
 33 34  1  6  0  0  0
 33 43  1  0  0  0  0
 35 36  1  0  0  0  0
 35 45  1  6  0  0  0
 37 28  1  0  0  0  0
 37 38  1  6  0  0  0
 39 40  1  0  0  0  0
 41 42  1  0  0  0  0
 41 49  1  1  0  0  0
 43 44  1  0  0  0  0
 43 51  1  1  0  0  0
 45 46  1  0  0  0  0
 47 37  1  0  0  0  0
 47 48  1  6  0  0  0
 49 50  1  0  0  0  0
 51 52  1  0  0  0  0
M  END
>  <CHROM.1>
169.06835866,171.14841046,98.37561010,-134.51898204,86.48978411,-172.07734166
56.79626528,179.40570530,-174.75622832,148.58622792,97.06219973,-63.50768248
0.73465970,-51.14733368,10.74705620,1.23888255,-0.25399294,1.01255601

>  <Name>
2fd0_lig

>  <RI>
0

>  <Rbt.Current_Directory>
/home/itssahil/PROJECTS/Mol_Feturizer/New_Systems/rnas/2fd0

>  <Rbt.Executable>
rbdock ($Id: //depot/dev/client3/rdock/2013.1/src/exe/rbdock.cxx#4 $)

>  <Rbt.Library>
libRbt.so (2013.1, Build901 2013/11/27)

>  <Rbt.Parameter_File>
/export/apps/rDock/src/rDock_2013.1_src/data/scripts/dock_solv.prm

>  <Rbt.Receptor>
prm/pocket_docking_8.prm

>  <SCORE>
-19.0403

>  <SCORE.INTER>
-17.9158

>  <SCORE.INTER.CONST>
1

>  <SCORE.INTER.POLAR>
-2.0252

>  <SCORE.INTER.ROT>
12

>  <SCORE.INTER.SOLV>
20.055

>  <SCORE.INTER.VDW>
-23.4782

>  <SCORE.INTER.norm>
-0.344535

>  <SCORE.INTRA>
-1.12452

>  <SCORE.INTRA.DIHEDRAL>
-0.516414

>  <SCORE.INTRA.DIHEDRAL.0>
23.9727

>  <SCORE.INTRA.POLAR>
0

>  <SCORE.INTRA.POLAR.0>
0

>  <SCORE.INTRA.REPUL>
0

>  <SCORE.INTRA.REPUL.0>
0

>  <SCORE.INTRA.SOLV>
-1.83988

>  <SCORE.INTRA.SOLV.lig_0>
-115.028

>  <SCORE.INTRA.VDW>
0.0536264

>  <SCORE.INTRA.VDW.0>
-6.82393

>  <SCORE.INTRA.norm>
-0.0216254

>  <SCORE.RESTR>
0

>  <SCORE.RESTR.CAVITY>
0

>  <SCORE.RESTR.norm>
0

>  <SCORE.SYSTEM>
0

>  <SCORE.SYSTEM.CONST>
0

>  <SCORE.SYSTEM.DIHEDRAL>
0

>  <SCORE.SYSTEM.SOLV>
0

>  <SCORE.SYSTEM.norm>
0

>  <SCORE.heavy>
52

>  <SCORE.norm>
-0.36616

>  <RMSD>
5.507

$$$$
2fd0_lig
 OpenBabel11021811433D
libRbt.so/2013.1/901 2013/11/27
 52 56  0  0  0  0  0  0  0  0999 V2000
    5.2728  -46.7416   15.4644 C   0  0  2  0  0  0  0  0  0  0  0  0
    5.6226  -47.4454   14.2648 O   0  0  0  0  0  0  0  0  0  0  0  0
    7.8026  -44.4758   11.9580 C   0  0  2  0  0  0  0  0  0  0  0  0
    8.6760  -43.8572   10.9473 N   0  0  0  0  0  0  0  0  0  0  0  0
    4.8103  -47.4841   10.6096 C   0  0  1  0  0  0  0  0  0  0  0  0
    3.2622  -51.2160    9.2387 C   0  0  1  0  0  0  0  0  0  0  0  0
    1.6922  -55.2990    6.2730 C   0  0  1  0  0  0  0  0  0  0  0  0
    4.5479  -47.7413   16.4374 C   0  0  2  0  0  0  0  0  0  0  0  0
    5.3714  -48.9060   16.7307 N   0  0  0  0  0  0  0  0  0  0  0  0
    8.6171  -45.5425   12.8133 C   0  0  0  0  0  0  0  0  0  0  0  0
    3.7827  -48.5945   10.7295 C   0  0  2  0  0  0  0  0  0  0  0  0
    4.3012  -49.7509   11.4451 O   0  0  0  0  0  0  0  0  0  0  0  0
    4.0784  -52.4404    8.6109 C   0  0  2  0  0  0  0  0  0  0  0  0
    4.1979  -52.2858    7.1354 N   0  0  0  0  0  0  0  0  0  0  0  0
    3.1860  -55.6802    6.3775 C   0  0  1  0  0  0  0  0  0  0  0  0
    3.4606  -56.1496    7.7207 O   0  0  0  0  0  0  0  0  0  0  0  0
    3.1499  -48.1612   15.8494 C   0  0  0  0  0  0  0  0  0  0  0  0
    7.6669  -46.2066   13.9203 C   0  0  2  0  0  0  0  0  0  0  0  0
    8.3955  -47.1993   14.7238 N   0  0  0  0  0  0  0  0  0  0  0  0
    3.3694  -48.8324    9.2869 C   0  0  2  0  0  0  0  0  0  0  0  0
    3.8818  -50.0426    8.7993 O   0  0  0  0  0  0  0  0  0  0  0  0
    3.3666  -53.8015    9.1127 C   0  0  1  0  0  0  0  0  0  0  0  0
    3.3487  -53.7887   10.5516 O   0  0  0  0  0  0  0  0  0  0  0  0
    3.7259  -56.7381    5.3774 C   0  0  1  0  0  0  0  0  0  0  0  0
    3.6322  -58.0246    6.0022 O   0  0  0  0  0  0  0  0  0  0  0  0
    2.3199  -46.8661   15.5687 C   0  0  2  0  0  0  0  0  0  0  0  0
    1.0371  -47.2046   15.0512 O   0  0  0  0  0  0  0  0  0  0  0  0
    6.4540  -46.8756   13.2154 C   0  0  2  0  0  0  0  0  0  0  0  0
    4.0058  -47.7343    8.4017 C   0  0  2  0  0  0  0  0  0  0  0  0
    4.5725  -46.8548    9.3624 O   0  0  0  0  0  0  0  0  0  0  0  0
    1.8243  -53.8862    8.6349 C   0  0  2  0  0  0  0  0  0  0  0  0
    1.8929  -53.9138    7.1967 O   0  0  0  0  0  0  0  0  0  0  0  0
    3.0181  -56.7990    4.0041 C   0  0  2  0  0  0  0  0  0  0  0  0
    4.0689  -56.9778    3.0293 O   0  0  0  0  0  0  0  0  0  0  0  0
    3.0837  -45.9728   14.5497 C   0  0  2  0  0  0  0  0  0  0  0  0
    4.4006  -45.6309   15.1314 O   0  0  0  0  0  0  0  0  0  0  0  0
    5.6549  -45.8828   12.3171 C   0  0  2  0  0  0  0  0  0  0  0  0
    4.5870  -46.6293   11.6860 O   0  0  0  0  0  0  0  0  0  0  0  0
    3.0228  -46.9416    7.5475 C   0  0  0  0  0  0  0  0  0  0  0  0
    2.3613  -47.8807    6.6863 O   0  0  0  0  0  0  0  0  0  0  0  0
    1.1908  -52.5760    9.0632 C   0  0  1  0  0  0  0  0  0  0  0  0
    1.7739  -51.2737    8.8487 O   0  0  0  0  0  0  0  0  0  0  0  0
    2.1719  -55.5509    3.7677 C   0  0  2  0  0  0  0  0  0  0  0  0
    1.2551  -55.2229    4.8481 O   0  0  0  0  0  0  0  0  0  0  0  0
    2.3569  -44.6969   14.2650 C   0  0  0  0  0  0  0  0  0  0  0  0
    3.0535  -44.0166   13.2562 O   0  0  0  0  0  0  0  0  0  0  0  0
    6.6087  -45.2330   11.2491 C   0  0  1  0  0  0  0  0  0  0  0  0
    5.8343  -44.2674   10.4569 O   0  0  0  0  0  0  0  0  0  0  0  0
   -0.3159  -52.4497    8.6408 C   0  0  0  0  0  0  0  0  0  0  0  0
   -0.5319  -52.5333    7.1760 N   0  0  0  0  0  0  0  0  0  0  0  0
    1.3564  -55.3567    2.4914 C   0  0  0  0  0  0  0  0  0  0  0  0
    0.2966  -56.3590    2.4079 O   0  0  0  0  0  0  0  0  0  0  0  0
  1  2  1  6  0  0  0
  1  8  1  0  0  0  0
  1 36  1  0  0  0  0
  3  4  1  6  0  0  0
  3 10  1  0  0  0  0
  3 47  1  0  0  0  0
  5 11  1  0  0  0  0
  5 30  1  0  0  0  0
  5 38  1  1  0  0  0
  6 21  1  6  0  0  0
  6 42  1  0  0  0  0
  7 15  1  0  0  0  0
  7 44  1  0  0  0  0
  7 32  1  6  0  0  0
  8  9  1  6  0  0  0
  8 17  1  0  0  0  0
 11 12  1  6  0  0  0
 11 20  1  0  0  0  0
 13  6  1  0  0  0  0
 13 14  1  6  0  0  0
 15 16  1  1  0  0  0
 15 24  1  0  0  0  0
 17 26  1  0  0  0  0
 18 10  1  0  0  0  0
 18 19  1  6  0  0  0
 20 21  1  6  0  0  0
 20 29  1  0  0  0  0
 22 13  1  0  0  0  0
 22 23  1  1  0  0  0
 24 25  1  1  0  0  0
 24 33  1  0  0  0  0
 26 27  1  6  0  0  0
 26 35  1  0  0  0  0
 28  2  1  1  0  0  0
 28 18  1  0  0  0  0
 29 30  1  0  0  0  0
 29 39  1  1  0  0  0
 31 22  1  0  0  0  0
 31 32  1  6  0  0  0
 31 41  1  0  0  0  0
 33 34  1  6  0  0  0
 33 43  1  0  0  0  0
 35 36  1  0  0  0  0
 35 45  1  1  0  0  0
 37 28  1  0  0  0  0
 37 38  1  6  0  0  0
 39 40  1  0  0  0  0
 41 42  1  0  0  0  0
 41 49  1  6  0  0  0
 43 44  1  0  0  0  0
 43 51  1  6  0  0  0
 45 46  1  0  0  0  0
 47 37  1  0  0  0  0
 47 48  1  1  0  0  0
 49 50  1  0  0  0  0
 51 52  1  0  0  0  0
M  END
>  <CHROM.1>
-171.97500190,148.65027914,-176.84737548,-86.86341327,75.16187543,45.70399621
-59.84734362,102.95607844,-174.85843213,-76.45323587,-59.68959996,65.14805951
3.74892406,-50.06465967,9.94438996,1.10675842,1.02515306,1.12750085

>  <Name>
2fd0_lig

>  <RI>
0

>  <Rbt.Current_Directory>
/home/itssahil/PROJECTS/Mol_Feturizer/New_Systems/rnas/2fd0

>  <Rbt.Executable>
rbdock ($Id: //depot/dev/client3/rdock/2013.1/src/exe/rbdock.cxx#4 $)

>  <Rbt.Library>
libRbt.so (2013.1, Build901 2013/11/27)

>  <Rbt.Parameter_File>
/export/apps/rDock/src/rDock_2013.1_src/data/scripts/dock_solv.prm

>  <Rbt.Receptor>
prm/pocket_docking_8.prm

>  <SCORE>
-22.0074

>  <SCORE.INTER>
-19.7952

>  <SCORE.INTER.CONST>
1

>  <SCORE.INTER.POLAR>
-2.22539

>  <SCORE.INTER.ROT>
12

>  <SCORE.INTER.SOLV>
15.2265

>  <SCORE.INTER.VDW>
-22.4544

>  <SCORE.INTER.norm>
-0.380678

>  <SCORE.INTRA>
-2.2122

>  <SCORE.INTRA.DIHEDRAL>
-6.07916

>  <SCORE.INTRA.DIHEDRAL.0>
23.9727

>  <SCORE.INTRA.POLAR>
0

>  <SCORE.INTRA.POLAR.0>
0

>  <SCORE.INTRA.REPUL>
0

>  <SCORE.INTRA.REPUL.0>
0

>  <SCORE.INTRA.SOLV>
-0.346042

>  <SCORE.INTRA.SOLV.lig_0>
-115.028

>  <SCORE.INTRA.VDW>
1.0004

>  <SCORE.INTRA.VDW.0>
-6.82393

>  <SCORE.INTRA.norm>
-0.0425423

>  <SCORE.RESTR>
0

>  <SCORE.RESTR.CAVITY>
0

>  <SCORE.RESTR.norm>
0

>  <SCORE.SYSTEM>
0

>  <SCORE.SYSTEM.CONST>
0

>  <SCORE.SYSTEM.DIHEDRAL>
0

>  <SCORE.SYSTEM.SOLV>
0

>  <SCORE.SYSTEM.norm>
0

>  <SCORE.heavy>
52

>  <SCORE.norm>
-0.42322

>  <RMSD>
5.509

$$$$
2fd0_lig
 OpenBabel11021811433D
libRbt.so/2013.1/901 2013/11/27
 52 56  0  0  0  0  0  0  0  0999 V2000
    5.8070  -44.7525   12.6990 C   0  0  2  0  0  0  0  0  0  0  0  0
    6.8947  -45.1369   13.5510 O   0  0  0  0  0  0  0  0  0  0  0  0
    7.7923  -48.9218   15.4904 C   0  0  2  0  0  0  0  0  0  0  0  0
    7.7857  -50.0331   16.4559 N   0  0  0  0  0  0  0  0  0  0  0  0
    4.3242  -48.2864   12.5710 C   0  0  1  0  0  0  0  0  0  0  0  0
    0.2498  -49.1548   11.6408 C   0  0  1  0  0  0  0  0  0  0  0  0
   -3.7262  -49.4491    8.6291 C   0  0  1  0  0  0  0  0  0  0  0  0
    6.2397  -43.4841   11.8772 C   0  0  2  0  0  0  0  0  0  0  0  0
    7.4525  -43.7241   11.1076 N   0  0  0  0  0  0  0  0  0  0  0  0
    8.2036  -47.5648   16.2132 C   0  0  0  0  0  0  0  0  0  0  0  0
    2.8621  -47.8806   12.6053 C   0  0  2  0  0  0  0  0  0  0  0  0
    2.1342  -48.5315   13.6844 O   0  0  0  0  0  0  0  0  0  0  0  0
   -0.4453  -50.5956   11.6169 C   0  0  2  0  0  0  0  0  0  0  0  0
   -0.3143  -51.2157   10.2702 N   0  0  0  0  0  0  0  0  0  0  0  0
   -3.6169  -50.7840    7.8584 C   0  0  1  0  0  0  0  0  0  0  0  0
   -4.4799  -51.7640    8.4867 O   0  0  0  0  0  0  0  0  0  0  0  0
    6.4022  -42.2428   12.8307 C   0  0  0  0  0  0  0  0  0  0  0  0
    8.2209  -46.3585   15.1578 C   0  0  2  0  0  0  0  0  0  0  0  0
    8.5959  -45.0909   15.8015 N   0  0  0  0  0  0  0  0  0  0  0  0
    2.3890  -48.1951   11.1961 C   0  0  2  0  0  0  0  0  0  0  0  0
    1.5566  -49.3227   11.1741 O   0  0  0  0  0  0  0  0  0  0  0  0
   -1.9581  -50.4096   12.1533 C   0  0  1  0  0  0  0  0  0  0  0  0
   -1.8951  -49.8138   13.4617 O   0  0  0  0  0  0  0  0  0  0  0  0
   -3.9387  -50.7615    6.3396 C   0  0  1  0  0  0  0  0  0  0  0  0
   -5.3237  -51.0923    6.1768 O   0  0  0  0  0  0  0  0  0  0  0  0
    5.0645  -42.0402   13.6145 C   0  0  2  0  0  0  0  0  0  0  0  0
    5.1644  -40.9119   14.4778 O   0  0  0  0  0  0  0  0  0  0  0  0
    6.8156  -46.2319   14.5059 C   0  0  2  0  0  0  0  0  0  0  0  0
    3.6165  -48.5781   10.3353 C   0  0  2  0  0  0  0  0  0  0  0  0
    4.7028  -48.2952   11.2056 O   0  0  0  0  0  0  0  0  0  0  0  0
   -2.8054  -49.3921   11.2255 C   0  0  2  0  0  0  0  0  0  0  0  0
   -2.8565  -50.0350    9.9379 O   0  0  0  0  0  0  0  0  0  0  0  0
   -3.6551  -49.4313    5.6042 C   0  0  2  0  0  0  0  0  0  0  0  0
   -3.0727  -49.8017    4.3353 O   0  0  0  0  0  0  0  0  0  0  0  0
    4.7533  -43.3176   14.4458 C   0  0  2  0  0  0  0  0  0  0  0  0
    4.6414  -44.4602   13.5122 O   0  0  0  0  0  0  0  0  0  0  0  0
    6.3409  -47.5556   13.8326 C   0  0  2  0  0  0  0  0  0  0  0  0
    5.0123  -47.3244   13.3060 O   0  0  0  0  0  0  0  0  0  0  0  0
    3.7957  -47.7574    9.0629 C   0  0  0  0  0  0  0  0  0  0  0  0
    2.5839  -47.8877    8.3041 O   0  0  0  0  0  0  0  0  0  0  0  0
   -1.9548  -48.1414   11.1074 C   0  0  1  0  0  0  0  0  0  0  0  0
   -0.5439  -48.1341   10.8050 O   0  0  0  0  0  0  0  0  0  0  0  0
   -2.7625  -48.5207    6.4430 C   0  0  2  0  0  0  0  0  0  0  0  0
   -3.2177  -48.3112    7.8084 O   0  0  0  0  0  0  0  0  0  0  0  0
    3.4632  -43.2015   15.1937 C   0  0  0  0  0  0  0  0  0  0  0  0
    3.2215  -44.4250   15.8343 O   0  0  0  0  0  0  0  0  0  0  0  0
    6.3457  -48.7272   14.8814 C   0  0  1  0  0  0  0  0  0  0  0  0
    5.9439  -49.9658   14.2003 O   0  0  0  0  0  0  0  0  0  0  0  0
   -2.5984  -47.0390   10.1937 C   0  0  0  0  0  0  0  0  0  0  0  0
   -3.8135  -46.4192   10.7757 N   0  0  0  0  0  0  0  0  0  0  0  0
   -2.3350  -47.1373    5.9577 C   0  0  0  0  0  0  0  0  0  0  0  0
   -3.5076  -46.3181    5.6605 O   0  0  0  0  0  0  0  0  0  0  0  0
  1  2  1  1  0  0  0
  1  8  1  0  0  0  0
  1 36  1  0  0  0  0
  3  4  1  1  0  0  0
  3 10  1  0  0  0  0
  3 47  1  0  0  0  0
  5 11  1  0  0  0  0
  5 30  1  0  0  0  0
  5 38  1  1  0  0  0
  6 21  1  6  0  0  0
  6 42  1  0  0  0  0
  7 15  1  0  0  0  0
  7 44  1  0  0  0  0
  7 32  1  1  0  0  0
  8  9  1  1  0  0  0
  8 17  1  0  0  0  0
 11 12  1  1  0  0  0
 11 20  1  0  0  0  0
 13  6  1  0  0  0  0
 13 14  1  6  0  0  0
 15 16  1  1  0  0  0
 15 24  1  0  0  0  0
 17 26  1  0  0  0  0
 18 10  1  0  0  0  0
 18 19  1  1  0  0  0
 20 21  1  1  0  0  0
 20 29  1  0  0  0  0
 22 13  1  0  0  0  0
 22 23  1  1  0  0  0
 24 25  1  1  0  0  0
 24 33  1  0  0  0  0
 26 27  1  1  0  0  0
 26 35  1  0  0  0  0
 28  2  1  6  0  0  0
 28 18  1  0  0  0  0
 29 30  1  0  0  0  0
 29 39  1  6  0  0  0
 31 22  1  0  0  0  0
 31 32  1  6  0  0  0
 31 41  1  0  0  0  0
 33 34  1  6  0  0  0
 33 43  1  0  0  0  0
 35 36  1  0  0  0  0
 35 45  1  6  0  0  0
 37 28  1  0  0  0  0
 37 38  1  1  0  0  0
 39 40  1  0  0  0  0
 41 42  1  0  0  0  0
 41 49  1  6  0  0  0
 43 44  1  0  0  0  0
 43 51  1  6  0  0  0
 45 46  1  0  0  0  0
 47 37  1  0  0  0  0
 47 48  1  6  0  0  0
 49 50  1  0  0  0  0
 51 52  1  0  0  0  0
M  END
>  <CHROM.1>
176.59457541,161.45807024,-175.72013085,-165.42195764,75.37883473,176.92863011
-56.53471440,175.12724741,175.95694522,176.23396887,68.87131166,57.19583763
1.86506746,-47.58016261,11.42342629,0.13293156,-0.65098044,-0.32268690

>  <Name>
2fd0_lig

>  <RI>
0

>  <Rbt.Current_Directory>
/home/itssahil/PROJECTS/Mol_Feturizer/New_Systems/rnas/2fd0

>  <Rbt.Executable>
rbdock ($Id: //depot/dev/client3/rdock/2013.1/src/exe/rbdock.cxx#4 $)

>  <Rbt.Library>
libRbt.so (2013.1, Build901 2013/11/27)

>  <Rbt.Parameter_File>
/export/apps/rDock/src/rDock_2013.1_src/data/scripts/dock_solv.prm

>  <Rbt.Receptor>
prm/pocket_docking_6.prm

>  <SCORE>
-15.1694

>  <SCORE.INTER>
-6.08408

>  <SCORE.INTER.CONST>
1

>  <SCORE.INTER.POLAR>
-0.938083

>  <SCORE.INTER.ROT>
12

>  <SCORE.INTER.SOLV>
12.1154

>  <SCORE.INTER.VDW>
-16.5676

>  <SCORE.INTER.norm>
-0.117002

>  <SCORE.INTRA>
-9.08528

>  <SCORE.INTRA.DIHEDRAL>
-17.9899

>  <SCORE.INTRA.DIHEDRAL.0>
23.9727

>  <SCORE.INTRA.POLAR>
0

>  <SCORE.INTRA.POLAR.0>
0

>  <SCORE.INTRA.REPUL>
0

>  <SCORE.INTRA.REPUL.0>
0

>  <SCORE.INTRA.SOLV>
-4.15996

>  <SCORE.INTRA.SOLV.lig_0>
-115.028

>  <SCORE.INTRA.VDW>
1.98963

>  <SCORE.INTRA.VDW.0>
-6.82393

>  <SCORE.INTRA.norm>
-0.174717

>  <SCORE.RESTR>
0

>  <SCORE.RESTR.CAVITY>
0

>  <SCORE.RESTR.norm>
0

>  <SCORE.SYSTEM>
0

>  <SCORE.SYSTEM.CONST>
0

>  <SCORE.SYSTEM.DIHEDRAL>
0

>  <SCORE.SYSTEM.SOLV>
0

>  <SCORE.SYSTEM.norm>
0

>  <SCORE.heavy>
52

>  <SCORE.norm>
-0.291719

>  <RMSD>
5.517

$$$$
2fd0_lig
 OpenBabel11021811433D
libRbt.so/2013.1/901 2013/11/27
 52 56  0  0  0  0  0  0  0  0999 V2000
    4.5500  -44.3754   13.7730 C   0  0  2  0  0  0  0  0  0  0  0  0
    3.2881  -43.7366   13.5351 O   0  0  0  0  0  0  0  0  0  0  0  0
    0.4826  -46.1573   15.8071 C   0  0  2  0  0  0  0  0  0  0  0  0
   -0.7284  -46.5899   16.5236 N   0  0  0  0  0  0  0  0  0  0  0  0
    0.2475  -45.8034   11.3577 C   0  0  1  0  0  0  0  0  0  0  0  0
   -1.4389  -46.8081    7.2489 C   0  0  1  0  0  0  0  0  0  0  0  0
   -5.3061  -49.5348    5.8612 C   0  0  1  0  0  0  0  0  0  0  0  0
    5.6802  -43.5172   13.0966 C   0  0  2  0  0  0  0  0  0  0  0  0
    5.6842  -42.1447   13.5836 N   0  0  0  0  0  0  0  0  0  0  0  0
    1.0672  -44.8298   16.4622 C   0  0  0  0  0  0  0  0  0  0  0  0
   -0.0277  -44.9797   10.1129 C   0  0  2  0  0  0  0  0  0  0  0  0
   -1.2357  -44.1777   10.2383 O   0  0  0  0  0  0  0  0  0  0  0  0
   -2.9689  -46.6568    6.8062 C   0  0  2  0  0  0  0  0  0  0  0  0
   -3.8705  -47.2361    7.8391 N   0  0  0  0  0  0  0  0  0  0  0  0
   -5.5980  -50.3557    7.1374 C   0  0  1  0  0  0  0  0  0  0  0  0
   -5.4373  -49.5003    8.2960 O   0  0  0  0  0  0  0  0  0  0  0  0
    5.5437  -43.5690   11.5297 C   0  0  0  0  0  0  0  0  0  0  0  0
    2.3919  -44.3669   15.6874 C   0  0  2  0  0  0  0  0  0  0  0  0
    2.9513  -43.1393   16.2720 N   0  0  0  0  0  0  0  0  0  0  0  0
   -0.0309  -46.0233    9.0086 C   0  0  2  0  0  0  0  0  0  0  0  0
   -1.3269  -46.2593    8.5295 O   0  0  0  0  0  0  0  0  0  0  0  0
   -3.1072  -47.2913    5.3266 C   0  0  1  0  0  0  0  0  0  0  0  0
   -2.1797  -46.6099    4.4627 O   0  0  0  0  0  0  0  0  0  0  0  0
   -6.9826  -51.0508    7.2397 C   0  0  1  0  0  0  0  0  0  0  0  0
   -7.8713  -50.1648    7.9321 O   0  0  0  0  0  0  0  0  0  0  0  0
    5.5562  -45.0663   11.0794 C   0  0  2  0  0  0  0  0  0  0  0  0
    5.4528  -45.1561    9.6618 O   0  0  0  0  0  0  0  0  0  0  0  0
    2.0515  -44.1382   14.1882 C   0  0  2  0  0  0  0  0  0  0  0  0
    0.4363  -47.3739    9.6020 C   0  0  2  0  0  0  0  0  0  0  0  0
    0.8439  -47.0094   10.9129 O   0  0  0  0  0  0  0  0  0  0  0  0
   -2.6955  -48.8547    5.3007 C   0  0  2  0  0  0  0  0  0  0  0  0
   -3.6564  -49.4954    6.1607 O   0  0  0  0  0  0  0  0  0  0  0  0
   -7.6360  -51.4650    5.9009 C   0  0  2  0  0  0  0  0  0  0  0  0
   -8.2154  -52.7674    6.1343 O   0  0  0  0  0  0  0  0  0  0  0  0
    4.3682  -45.8171   11.7461 C   0  0  2  0  0  0  0  0  0  0  0  0
    4.5223  -45.7141   13.2142 O   0  0  0  0  0  0  0  0  0  0  0  0
    1.4208  -45.3946   13.5138 C   0  0  2  0  0  0  0  0  0  0  0  0
    1.1099  -45.0438   12.1440 O   0  0  0  0  0  0  0  0  0  0  0  0
    1.6230  -48.0163    8.8925 C   0  0  0  0  0  0  0  0  0  0  0  0
    1.8970  -49.2537    9.5669 O   0  0  0  0  0  0  0  0  0  0  0  0
   -1.3314  -48.9294    5.9604 C   0  0  1  0  0  0  0  0  0  0  0  0
   -0.9823  -48.2777    7.1996 O   0  0  0  0  0  0  0  0  0  0  0  0
   -6.6174  -51.4446    4.7644 C   0  0  2  0  0  0  0  0  0  0  0  0
   -5.8572  -50.2099    4.6498 O   0  0  0  0  0  0  0  0  0  0  0  0
    4.3448  -47.2678   11.3828 C   0  0  0  0  0  0  0  0  0  0  0  0
    3.2224  -47.8490   11.9896 O   0  0  0  0  0  0  0  0  0  0  0  0
    0.1324  -45.8393   14.2980 C   0  0  1  0  0  0  0  0  0  0  0  0
   -0.4034  -47.0531   13.6663 O   0  0  0  0  0  0  0  0  0  0  0  0
   -0.7768  -50.3939    6.0712 C   0  0  0  0  0  0  0  0  0  0  0  0
    0.5962  -50.4694    6.6265 N   0  0  0  0  0  0  0  0  0  0  0  0
   -6.9993  -51.8022    3.3298 C   0  0  0  0  0  0  0  0  0  0  0  0
   -5.8065  -51.8743    2.4892 O   0  0  0  0  0  0  0  0  0  0  0  0
  1  2  1  6  0  0  0
  1  8  1  0  0  0  0
  1 36  1  0  0  0  0
  3  4  1  1  0  0  0
  3 10  1  0  0  0  0
  3 47  1  0  0  0  0
  5 11  1  0  0  0  0
  5 30  1  0  0  0  0
  5 38  1  1  0  0  0
  6 21  1  1  0  0  0
  6 42  1  0  0  0  0
  7 15  1  0  0  0  0
  7 44  1  0  0  0  0
  7 32  1  6  0  0  0
  8  9  1  1  0  0  0
  8 17  1  0  0  0  0
 11 12  1  1  0  0  0
 11 20  1  0  0  0  0
 13  6  1  0  0  0  0
 13 14  1  1  0  0  0
 15 16  1  1  0  0  0
 15 24  1  0  0  0  0
 17 26  1  0  0  0  0
 18 10  1  0  0  0  0
 18 19  1  1  0  0  0
 20 21  1  1  0  0  0
 20 29  1  0  0  0  0
 22 13  1  0  0  0  0
 22 23  1  6  0  0  0
 24 25  1  6  0  0  0
 24 33  1  0  0  0  0
 26 27  1  6  0  0  0
 26 35  1  0  0  0  0
 28  2  1  6  0  0  0
 28 18  1  0  0  0  0
 29 30  1  0  0  0  0
 29 39  1  6  0  0  0
 31 22  1  0  0  0  0
 31 32  1  1  0  0  0
 31 41  1  0  0  0  0
 33 34  1  1  0  0  0
 33 43  1  0  0  0  0
 35 36  1  0  0  0  0
 35 45  1  1  0  0  0
 37 28  1  0  0  0  0
 37 38  1  6  0  0  0
 39 40  1  0  0  0  0
 41 42  1  0  0  0  0
 41 49  1  1  0  0  0
 43 44  1  0  0  0  0
 43 51  1  6  0  0  0
 45 46  1  0  0  0  0
 47 37  1  0  0  0  0
 47 48  1  6  0  0  0
 49 50  1  0  0  0  0
 51 52  1  0  0  0  0
M  END
>  <CHROM.1>
-170.10908646,169.23569599,-166.88692416,179.36246826,158.13198537,43.87742055
-179.29257176,62.89308501,-178.06953294,-163.71261276,175.89846854,-172.43377163
-0.59831256,-47.28059000,9.65515884,-0.77498526,-0.34485777,-1.85482464

>  <Name>
2fd0_lig

>  <RI>
3.4301e+07

>  <Rbt.Current_Directory>
/home/itssahil/PROJECTS/Mol_Feturizer/New_Systems/rnas/2fd0

>  <Rbt.Executable>
rbdock ($Id: //depot/dev/client3/rdock/2013.1/src/exe/rbdock.cxx#4 $)

>  <Rbt.Library>
libRbt.so (2013.1, Build901 2013/11/27)

>  <Rbt.Parameter_File>
/export/apps/rDock/src/rDock_2013.1_src/data/scripts/dock_solv.prm

>  <Rbt.Receptor>
prm/pocket_docking_7.prm

>  <SCORE>
-11.5931

>  <SCORE.INTER>
-4.17921

>  <SCORE.INTER.CONST>
1

>  <SCORE.INTER.POLAR>
-1.43437

>  <SCORE.INTER.ROT>
12

>  <SCORE.INTER.SOLV>
13.5552

>  <SCORE.INTER.VDW>
-14.1233

>  <SCORE.INTER.norm>
-0.0803695

>  <SCORE.INTRA>
-7.41392

>  <SCORE.INTRA.DIHEDRAL>
-15.5646

>  <SCORE.INTRA.DIHEDRAL.0>
23.9727

>  <SCORE.INTRA.POLAR>
0

>  <SCORE.INTRA.POLAR.0>
0

>  <SCORE.INTRA.REPUL>
0

>  <SCORE.INTRA.REPUL.0>
0

>  <SCORE.INTRA.SOLV>
0.552868

>  <SCORE.INTRA.SOLV.lig_0>
-115.028

>  <SCORE.INTRA.VDW>
0.091941

>  <SCORE.INTRA.VDW.0>
-6.82393

>  <SCORE.INTRA.norm>
-0.142575

>  <SCORE.RESTR>
0

>  <SCORE.RESTR.CAVITY>
0

>  <SCORE.RESTR.norm>
0

>  <SCORE.SYSTEM>
0

>  <SCORE.SYSTEM.CONST>
0

>  <SCORE.SYSTEM.DIHEDRAL>
0

>  <SCORE.SYSTEM.SOLV>
0

>  <SCORE.SYSTEM.norm>
0

>  <SCORE.heavy>
52

>  <SCORE.norm>
-0.222945

>  <RMSD>
5.552

$$$$
2fd0_lig
 OpenBabel11021811433D
libRbt.so/2013.1/901 2013/11/27
 52 56  0  0  0  0  0  0  0  0999 V2000
    2.3330  -46.4711   13.4877 C   0  0  2  0  0  0  0  0  0  0  0  0
    1.8372  -47.8169   13.4796 O   0  0  0  0  0  0  0  0  0  0  0  0
    4.3352  -49.7952   16.4357 C   0  0  2  0  0  0  0  0  0  0  0  0
    4.8995  -50.8241   17.3246 N   0  0  0  0  0  0  0  0  0  0  0  0
    3.5575  -50.8469   12.1720 C   0  0  1  0  0  0  0  0  0  0  0  0
   -0.0897  -52.7335   11.0194 C   0  0  1  0  0  0  0  0  0  0  0  0
   -3.4761  -51.4621    7.2938 C   0  0  1  0  0  0  0  0  0  0  0  0
    1.2642  -45.5404   12.8074 C   0  0  2  0  0  0  0  0  0  0  0  0
   -0.0309  -45.6288   13.4675 N   0  0  0  0  0  0  0  0  0  0  0  0
    2.7877  -49.5875   16.7441 C   0  0  0  0  0  0  0  0  0  0  0  0
    2.0864  -50.7367   11.8152 C   0  0  2  0  0  0  0  0  0  0  0  0
    1.2205  -51.0880   12.9310 O   0  0  0  0  0  0  0  0  0  0  0  0
   -0.7278  -53.9109   10.1442 C   0  0  2  0  0  0  0  0  0  0  0  0
   -0.2347  -53.8442    8.7414 N   0  0  0  0  0  0  0  0  0  0  0  0
   -2.6100  -51.9561    6.1132 C   0  0  1  0  0  0  0  0  0  0  0  0
   -2.9454  -53.3364    5.8267 O   0  0  0  0  0  0  0  0  0  0  0  0
    1.1490  -45.8692   11.2728 C   0  0  0  0  0  0  0  0  0  0  0  0
    2.1781  -48.4590   15.7827 C   0  0  2  0  0  0  0  0  0  0  0  0
    0.7468  -48.2492   16.0458 N   0  0  0  0  0  0  0  0  0  0  0  0
    1.9701  -51.6119   10.5787 C   0  0  2  0  0  0  0  0  0  0  0  0
    1.2968  -52.8089   10.8588 O   0  0  0  0  0  0  0  0  0  0  0  0
   -2.3316  -53.8290   10.3228 C   0  0  1  0  0  0  0  0  0  0  0  0
   -2.6271  -53.9208   11.7282 O   0  0  0  0  0  0  0  0  0  0  0  0
   -2.6876  -51.1554    4.7851 C   0  0  1  0  0  0  0  0  0  0  0  0
   -3.6847  -51.7682    3.9578 O   0  0  0  0  0  0  0  0  0  0  0  0
    2.5692  -45.7457   10.6305 C   0  0  2  0  0  0  0  0  0  0  0  0
    2.5048  -46.0186    9.2342 O   0  0  0  0  0  0  0  0  0  0  0  0
    2.3935  -48.8803   14.3023 C   0  0  2  0  0  0  0  0  0  0  0  0
    3.3910  -52.0374   10.1374 C   0  0  2  0  0  0  0  0  0  0  0  0
    4.2225  -51.2669   10.9933 O   0  0  0  0  0  0  0  0  0  0  0  0
   -2.9220  -52.4099    9.8210 C   0  0  2  0  0  0  0  0  0  0  0  0
   -2.6197  -52.3705    8.4136 O   0  0  0  0  0  0  0  0  0  0  0  0
   -3.0080  -49.6486    4.9173 C   0  0  2  0  0  0  0  0  0  0  0  0
   -2.1502  -48.9808    3.9661 O   0  0  0  0  0  0  0  0  0  0  0  0
    3.5386  -46.7467   11.3219 C   0  0  2  0  0  0  0  0  0  0  0  0
    3.5895  -46.4190   12.7640 O   0  0  0  0  0  0  0  0  0  0  0  0
    3.8910  -49.1524   13.9638 C   0  0  2  0  0  0  0  0  0  0  0  0
    3.9549  -49.5765   12.5810 O   0  0  0  0  0  0  0  0  0  0  0  0
    3.7476  -51.7017    8.6936 C   0  0  0  0  0  0  0  0  0  0  0  0
    3.7481  -50.2703    8.5822 O   0  0  0  0  0  0  0  0  0  0  0  0
   -2.0930  -51.3508   10.5228 C   0  0  1  0  0  0  0  0  0  0  0  0
   -0.6527  -51.3602   10.6098 O   0  0  0  0  0  0  0  0  0  0  0  0
   -2.8146  -49.1710    6.3540 C   0  0  2  0  0  0  0  0  0  0  0  0
   -3.4965  -49.9714    7.3590 O   0  0  0  0  0  0  0  0  0  0  0  0
    4.9277  -46.6529   10.7755 C   0  0  0  0  0  0  0  0  0  0  0  0
    4.8791  -46.9677    9.4101 O   0  0  0  0  0  0  0  0  0  0  0  0
    4.4718  -50.2509   14.9274 C   0  0  1  0  0  0  0  0  0  0  0  0
    5.8945  -50.4429   14.6137 O   0  0  0  0  0  0  0  0  0  0  0  0
   -2.4922  -49.8863   10.1223 C   0  0  0  0  0  0  0  0  0  0  0  0
   -1.8899  -48.8469   10.9919 N   0  0  0  0  0  0  0  0  0  0  0  0
   -3.0728  -47.7237    6.7668 C   0  0  0  0  0  0  0  0  0  0  0  0
   -4.4812  -47.3846    6.5771 O   0  0  0  0  0  0  0  0  0  0  0  0
  1  2  1  6  0  0  0
  1  8  1  0  0  0  0
  1 36  1  0  0  0  0
  3  4  1  1  0  0  0
  3 10  1  0  0  0  0
  3 47  1  0  0  0  0
  5 11  1  0  0  0  0
  5 30  1  0  0  0  0
  5 38  1  6  0  0  0
  6 21  1  6  0  0  0
  6 42  1  0  0  0  0
  7 15  1  0  0  0  0
  7 44  1  0  0  0  0
  7 32  1  1  0  0  0
  8  9  1  1  0  0  0
  8 17  1  0  0  0  0
 11 12  1  1  0  0  0
 11 20  1  0  0  0  0
 13  6  1  0  0  0  0
 13 14  1  6  0  0  0
 15 16  1  6  0  0  0
 15 24  1  0  0  0  0
 17 26  1  0  0  0  0
 18 10  1  0  0  0  0
 18 19  1  1  0  0  0
 20 21  1  1  0  0  0
 20 29  1  0  0  0  0
 22 13  1  0  0  0  0
 22 23  1  1  0  0  0
 24 25  1  6  0  0  0
 24 33  1  0  0  0  0
 26 27  1  6  0  0  0
 26 35  1  0  0  0  0
 28  2  1  6  0  0  0
 28 18  1  0  0  0  0
 29 30  1  0  0  0  0
 29 39  1  6  0  0  0
 31 22  1  0  0  0  0
 31 32  1  6  0  0  0
 31 41  1  0  0  0  0
 33 34  1  6  0  0  0
 33 43  1  0  0  0  0
 35 36  1  0  0  0  0
 35 45  1  6  0  0  0
 37 28  1  0  0  0  0
 37 38  1  6  0  0  0
 39 40  1  0  0  0  0
 41 42  1  0  0  0  0
 41 49  1  6  0  0  0
 43 44  1  0  0  0  0
 43 51  1  6  0  0  0
 45 46  1  0  0  0  0
 47 37  1  0  0  0  0
 47 48  1  6  0  0  0
 49 50  1  0  0  0  0
 51 52  1  0  0  0  0
M  END
>  <CHROM.1>
-164.36564223,90.77096733,132.69500922,-178.93575742,75.00497502,62.43834493
64.26065126,155.32080637,-61.06252598,-74.73381975,168.30830220,63.41041984
0.69269223,-49.89516265,10.60887976,-0.07916119,-0.87386171,-0.40368228

>  <Name>
2fd0_lig

>  <RI>
0

>  <Rbt.Current_Directory>
/home/itssahil/PROJECTS/Mol_Feturizer/New_Systems/rnas/2fd0

>  <Rbt.Executable>
rbdock ($Id: //depot/dev/client3/rdock/2013.1/src/exe/rbdock.cxx#4 $)

>  <Rbt.Library>
libRbt.so (2013.1, Build901 2013/11/27)

>  <Rbt.Parameter_File>
/export/apps/rDock/src/rDock_2013.1_src/data/scripts/dock_solv.prm

>  <Rbt.Receptor>
prm/pocket_docking_5.prm

>  <SCORE>
-21.3848

>  <SCORE.INTER>
-19.3507

>  <SCORE.INTER.CONST>
1

>  <SCORE.INTER.POLAR>
-2.5613

>  <SCORE.INTER.ROT>
12

>  <SCORE.INTER.SOLV>
17.5511

>  <SCORE.INTER.VDW>
-21.8131

>  <SCORE.INTER.norm>
-0.372128

>  <SCORE.INTRA>
-2.03409

>  <SCORE.INTRA.DIHEDRAL>
-5.96113

>  <SCORE.INTRA.DIHEDRAL.0>
23.9727

>  <SCORE.INTRA.POLAR>
0

>  <SCORE.INTRA.POLAR.0>
0

>  <SCORE.INTRA.REPUL>
0

>  <SCORE.INTRA.REPUL.0>
0

>  <SCORE.INTRA.SOLV>
-0.80596

>  <SCORE.INTRA.SOLV.lig_0>
-115.028

>  <SCORE.INTRA.VDW>
1.34946

>  <SCORE.INTRA.VDW.0>
-6.82393

>  <SCORE.INTRA.norm>
-0.039117

>  <SCORE.RESTR>
0

>  <SCORE.RESTR.CAVITY>
0

>  <SCORE.RESTR.norm>
0

>  <SCORE.SYSTEM>
0

>  <SCORE.SYSTEM.CONST>
0

>  <SCORE.SYSTEM.DIHEDRAL>
0

>  <SCORE.SYSTEM.SOLV>
0

>  <SCORE.SYSTEM.norm>
0

>  <SCORE.heavy>
52

>  <SCORE.norm>
-0.411245

>  <RMSD>
5.702

$$$$
2fd0_lig
 OpenBabel11021811433D
libRbt.so/2013.1/901 2013/11/27
 52 56  0  0  0  0  0  0  0  0999 V2000
    4.3220  -44.9940   14.3354 C   0  0  2  0  0  0  0  0  0  0  0  0
    3.2134  -45.8634   14.0666 O   0  0  0  0  0  0  0  0  0  0  0  0
    4.0936  -49.3736   16.4741 C   0  0  2  0  0  0  0  0  0  0  0  0
    4.0011  -50.7135   17.0765 N   0  0  0  0  0  0  0  0  0  0  0  0
    3.3623  -48.5601   12.0220 C   0  0  1  0  0  0  0  0  0  0  0  0
    2.2348  -50.0556    7.8473 C   0  0  1  0  0  0  0  0  0  0  0  0
    0.4336  -54.7601    6.5128 C   0  0  1  0  0  0  0  0  0  0  0  0
    3.9463  -43.5432   13.8604 C   0  0  2  0  0  0  0  0  0  0  0  0
    2.7306  -43.0605   14.5007 N   0  0  0  0  0  0  0  0  0  0  0  0
    2.7712  -48.5406   16.7744 C   0  0  0  0  0  0  0  0  0  0  0  0
    3.8646  -48.5912   10.5901 C   0  0  2  0  0  0  0  0  0  0  0  0
    3.6053  -47.3433    9.8875 O   0  0  0  0  0  0  0  0  0  0  0  0
    0.7321  -50.1811    7.3129 C   0  0  2  0  0  0  0  0  0  0  0  0
   -0.1129  -50.9094    8.2983 N   0  0  0  0  0  0  0  0  0  0  0  0
   -0.5834  -54.8435    7.6732 C   0  0  1  0  0  0  0  0  0  0  0  0
   -1.8472  -54.2869    7.2342 O   0  0  0  0  0  0  0  0  0  0  0  0
    3.8264  -43.4942   12.2921 C   0  0  0  0  0  0  0  0  0  0  0  0
    2.8788  -47.0782   16.1269 C   0  0  2  0  0  0  0  0  0  0  0  0
    1.6668  -46.2878   16.3879 N   0  0  0  0  0  0  0  0  0  0  0  0
    3.1931  -49.8297   10.0212 C   0  0  2  0  0  0  0  0  0  0  0  0
    2.1696  -49.4923    9.1249 O   0  0  0  0  0  0  0  0  0  0  0  0
    0.7988  -50.8339    5.8364 C   0  0  1  0  0  0  0  0  0  0  0  0
    1.6408  -50.0001    5.0198 O   0  0  0  0  0  0  0  0  0  0  0  0
   -0.8596  -56.2446    8.2830 C   0  0  1  0  0  0  0  0  0  0  0  0
   -1.9930  -56.8044    7.6075 O   0  0  0  0  0  0  0  0  0  0  0  0
    5.1652  -44.0155   11.6751 C   0  0  2  0  0  0  0  0  0  0  0  0
    5.1040  -43.9697   10.2530 O   0  0  0  0  0  0  0  0  0  0  0  0
    3.1087  -47.2147   14.5958 C   0  0  2  0  0  0  0  0  0  0  0  0
    2.4919  -50.5869   11.1741 C   0  0  2  0  0  0  0  0  0  0  0  0
    2.9343  -49.8772   12.3222 O   0  0  0  0  0  0  0  0  0  0  0  0
    1.4832  -52.2987    5.8557 C   0  0  2  0  0  0  0  0  0  0  0  0
    0.6014  -53.0985    6.6659 O   0  0  0  0  0  0  0  0  0  0  0  0
    0.3079  -57.2563    8.2185 C   0  0  2  0  0  0  0  0  0  0  0  0
    0.3066  -57.9375    9.4922 O   0  0  0  0  0  0  0  0  0  0  0  0
    5.4190  -45.4755   12.1480 C   0  0  2  0  0  0  0  0  0  0  0  0
    5.4921  -45.4762   13.6258 O   0  0  0  0  0  0  0  0  0  0  0  0
    4.3631  -48.0728   14.2478 C   0  0  2  0  0  0  0  0  0  0  0  0
    4.4430  -48.1623   12.8050 O   0  0  0  0  0  0  0  0  0  0  0  0
    2.8972  -52.0485   11.3288 C   0  0  0  0  0  0  0  0  0  0  0  0
    4.3243  -52.1072   11.1830 O   0  0  0  0  0  0  0  0  0  0  0  0
    2.7963  -52.1270    6.5959 C   0  0  1  0  0  0  0  0  0  0  0  0
    2.9480  -51.4202    7.8447 O   0  0  0  0  0  0  0  0  0  0  0  0
    1.6255  -56.5534    7.9033 C   0  0  2  0  0  0  0  0  0  0  0  0
    1.5869  -55.6792    6.7416 O   0  0  0  0  0  0  0  0  0  0  0  0
    6.7070  -46.0220   11.6194 C   0  0  0  0  0  0  0  0  0  0  0  0
    7.7461  -45.1949   12.0687 O   0  0  0  0  0  0  0  0  0  0  0  0
    4.2429  -49.4965   14.9044 C   0  0  1  0  0  0  0  0  0  0  0  0
    5.4629  -50.2566   14.5990 O   0  0  0  0  0  0  0  0  0  0  0  0
    3.5950  -53.4686    6.7588 C   0  0  0  0  0  0  0  0  0  0  0  0
    4.0211  -54.0672    5.4706 N   0  0  0  0  0  0  0  0  0  0  0  0
    2.9396  -57.3201    7.7711 C   0  0  0  0  0  0  0  0  0  0  0  0
    3.1764  -57.6863    6.3767 O   0  0  0  0  0  0  0  0  0  0  0  0
  1  2  1  6  0  0  0
  1  8  1  0  0  0  0
  1 36  1  0  0  0  0
  3  4  1  1  0  0  0
  3 10  1  0  0  0  0
  3 47  1  0  0  0  0
  5 11  1  0  0  0  0
  5 30  1  0  0  0  0
  5 38  1  1  0  0  0
  6 21  1  1  0  0  0
  6 42  1  0  0  0  0
  7 15  1  0  0  0  0
  7 44  1  0  0  0  0
  7 32  1  1  0  0  0
  8  9  1  1  0  0  0
  8 17  1  0  0  0  0
 11 12  1  6  0  0  0
 11 20  1  0  0  0  0
 13  6  1  0  0  0  0
 13 14  1  1  0  0  0
 15 16  1  6  0  0  0
 15 24  1  0  0  0  0
 17 26  1  0  0  0  0
 18 10  1  0  0  0  0
 18 19  1  6  0  0  0
 20 21  1  6  0  0  0
 20 29  1  0  0  0  0
 22 13  1  0  0  0  0
 22 23  1  6  0  0  0
 24 25  1  6  0  0  0
 24 33  1  0  0  0  0
 26 27  1  6  0  0  0
 26 35  1  0  0  0  0
 28  2  1  1  0  0  0
 28 18  1  0  0  0  0
 29 30  1  0  0  0  0
 29 39  1  1  0  0  0
 31 22  1  0  0  0  0
 31 32  1  1  0  0  0
 31 41  1  0  0  0  0
 33 34  1  1  0  0  0
 33 43  1  0  0  0  0
 35 36  1  0  0  0  0
 35 45  1  6  0  0  0
 37 28  1  0  0  0  0
 37 38  1  6  0  0  0
 39 40  1  0  0  0  0
 41 42  1  0  0  0  0
 41 49  1  1  0  0  0
 43 44  1  0  0  0  0
 43 51  1  6  0  0  0
 45 46  1  0  0  0  0
 47 37  1  0  0  0  0
 47 48  1  1  0  0  0
 49 50  1  0  0  0  0
 51 52  1  0  0  0  0
M  END
>  <CHROM.1>
-168.15419616,-177.24272346,151.33222643,178.63611298,125.71327889,69.36867998
43.26518563,152.87518356,59.15659319,-51.39741262,63.24601954,92.69262647
2.80399520,-50.27425589,10.52843776,0.35326141,1.26014847,1.83157251

>  <Name>
2fd0_lig

>  <RI>
0

>  <Rbt.Current_Directory>
/home/itssahil/PROJECTS/Mol_Feturizer/New_Systems/rnas/2fd0

>  <Rbt.Executable>
rbdock ($Id: //depot/dev/client3/rdock/2013.1/src/exe/rbdock.cxx#4 $)

>  <Rbt.Library>
libRbt.so (2013.1, Build901 2013/11/27)

>  <Rbt.Parameter_File>
/export/apps/rDock/src/rDock_2013.1_src/data/scripts/dock_solv.prm

>  <Rbt.Receptor>
prm/pocket_docking_8.prm

>  <SCORE>
-24.3397

>  <SCORE.INTER>
-22.7994

>  <SCORE.INTER.CONST>
1

>  <SCORE.INTER.POLAR>
-3.69963

>  <SCORE.INTER.ROT>
12

>  <SCORE.INTER.SOLV>
23.6833

>  <SCORE.INTER.VDW>
-22.362

>  <SCORE.INTER.norm>
-0.43845

>  <SCORE.INTRA>
-1.54025

>  <SCORE.INTRA.DIHEDRAL>
-3.89843

>  <SCORE.INTRA.DIHEDRAL.0>
23.9727

>  <SCORE.INTRA.POLAR>
0

>  <SCORE.INTRA.POLAR.0>
0

>  <SCORE.INTRA.REPUL>
0

>  <SCORE.INTRA.REPUL.0>
0

>  <SCORE.INTRA.SOLV>
0.580911

>  <SCORE.INTRA.SOLV.lig_0>
-115.028

>  <SCORE.INTRA.VDW>
0.118513

>  <SCORE.INTRA.VDW.0>
-6.82393

>  <SCORE.INTRA.norm>
-0.0296201

>  <SCORE.RESTR>
0

>  <SCORE.RESTR.CAVITY>
0

>  <SCORE.RESTR.norm>
0

>  <SCORE.SYSTEM>
0

>  <SCORE.SYSTEM.CONST>
0

>  <SCORE.SYSTEM.DIHEDRAL>
0

>  <SCORE.SYSTEM.SOLV>
0

>  <SCORE.SYSTEM.norm>
0

>  <SCORE.heavy>
52

>  <SCORE.norm>
-0.468071

>  <RMSD>
5.771

$$$$
2fd0_lig
 OpenBabel11021811433D
libRbt.so/2013.1/901 2013/11/27
 52 56  0  0  0  0  0  0  0  0999 V2000
    1.5746  -45.9241   12.5691 C   0  0  2  0  0  0  0  0  0  0  0  0
    1.2897  -47.3297   12.5724 O   0  0  0  0  0  0  0  0  0  0  0  0
    4.3477  -49.0304   15.1509 C   0  0  2  0  0  0  0  0  0  0  0  0
    5.2198  -50.0022   15.8308 N   0  0  0  0  0  0  0  0  0  0  0  0
    3.8604  -49.3692   10.7428 C   0  0  1  0  0  0  0  0  0  0  0  0
    1.0869  -52.5909    9.6732 C   0  0  1  0  0  0  0  0  0  0  0  0
   -1.7388  -55.0317    6.0250 C   0  0  1  0  0  0  0  0  0  0  0  0
    0.3107  -45.1590   12.0317 C   0  0  2  0  0  0  0  0  0  0  0  0
   -0.8777  -45.4539   12.8199 N   0  0  0  0  0  0  0  0  0  0  0  0
    2.8186  -49.3648   15.4389 C   0  0  0  0  0  0  0  0  0  0  0  0
    2.4513  -49.9314   10.7870 C   0  0  2  0  0  0  0  0  0  0  0  0
    2.2511  -50.8297   11.9145 O   0  0  0  0  0  0  0  0  0  0  0  0
    1.3304  -54.1513    9.4174 C   0  0  2  0  0  0  0  0  0  0  0  0
    1.9558  -54.3701    8.0846 N   0  0  0  0  0  0  0  0  0  0  0  0
   -0.7661  -54.3635    5.0275 C   0  0  1  0  0  0  0  0  0  0  0  0
    0.3896  -55.2194    4.8496 O   0  0  0  0  0  0  0  0  0  0  0  0
    0.0825  -45.4806   10.5082 C   0  0  0  0  0  0  0  0  0  0  0  0
    1.8713  -48.2989   14.7067 C   0  0  2  0  0  0  0  0  0  0  0  0
    0.4510  -48.5872   14.9549 N   0  0  0  0  0  0  0  0  0  0  0  0
    2.2869  -50.5454    9.4069 C   0  0  2  0  0  0  0  0  0  0  0  0
    2.3089  -51.9458    9.4625 O   0  0  0  0  0  0  0  0  0  0  0  0
   -0.0790  -54.9044    9.6569 C   0  0  1  0  0  0  0  0  0  0  0  0
   -0.5273  -54.5944   10.9888 O   0  0  0  0  0  0  0  0  0  0  0  0
   -1.3192  -54.0021    3.6223 C   0  0  1  0  0  0  0  0  0  0  0  0
   -1.0404  -55.0988    2.7427 O   0  0  0  0  0  0  0  0  0  0  0  0
    1.3906  -45.1322    9.7257 C   0  0  2  0  0  0  0  0  0  0  0  0
    1.2186  -45.3926    8.3362 O   0  0  0  0  0  0  0  0  0  0  0  0
    2.1628  -48.3224   13.1802 C   0  0  2  0  0  0  0  0  0  0  0  0
    3.5079  -50.1527    8.5413 C   0  0  2  0  0  0  0  0  0  0  0  0
    4.1872  -49.2219    9.3719 O   0  0  0  0  0  0  0  0  0  0  0  0
   -1.2260  -54.3704    8.6502 C   0  0  2  0  0  0  0  0  0  0  0  0
   -0.7443  -54.7162    7.3380 O   0  0  0  0  0  0  0  0  0  0  0  0
   -2.8290  -53.6767    3.5489 C   0  0  2  0  0  0  0  0  0  0  0  0
   -2.9437  -52.5507    2.6515 O   0  0  0  0  0  0  0  0  0  0  0  0
    2.5685  -45.9821   10.2824 C   0  0  2  0  0  0  0  0  0  0  0  0
    2.7238  -45.6701   11.7205 O   0  0  0  0  0  0  0  0  0  0  0  0
    3.6628  -48.0568   12.8479 C   0  0  2  0  0  0  0  0  0  0  0  0
    3.8134  -48.1484   11.4109 O   0  0  0  0  0  0  0  0  0  0  0  0
    3.1719  -49.4630    7.2238 C   0  0  0  0  0  0  0  0  0  0  0  0
    2.4346  -50.4061    6.4313 O   0  0  0  0  0  0  0  0  0  0  0  0
   -1.2176  -52.8594    8.7851 C   0  0  1  0  0  0  0  0  0  0  0  0
   -0.0297  -52.0405    8.7672 O   0  0  0  0  0  0  0  0  0  0  0  0
   -3.4005  -53.4103    4.9389 C   0  0  2  0  0  0  0  0  0  0  0  0
   -3.1035  -54.4360    5.9265 O   0  0  0  0  0  0  0  0  0  0  0  0
    3.8608  -45.6690    9.5975 C   0  0  0  0  0  0  0  0  0  0  0  0
    4.1432  -44.3112    9.8037 O   0  0  0  0  0  0  0  0  0  0  0  0
    4.5736  -49.1038   13.5873 C   0  0  1  0  0  0  0  0  0  0  0  0
    5.9789  -48.7911   13.2929 O   0  0  0  0  0  0  0  0  0  0  0  0
   -2.2475  -52.1476    7.8379 C   0  0  0  0  0  0  0  0  0  0  0  0
   -2.3076  -50.6773    8.0224 N   0  0  0  0  0  0  0  0  0  0  0  0
   -4.8741  -53.0742    5.1565 C   0  0  0  0  0  0  0  0  0  0  0  0
   -5.7202  -54.1651    4.6785 O   0  0  0  0  0  0  0  0  0  0  0  0
  1  2  1  6  0  0  0
  1  8  1  0  0  0  0
  1 36  1  0  0  0  0
  3  4  1  1  0  0  0
  3 10  1  0  0  0  0
  3 47  1  0  0  0  0
  5 11  1  0  0  0  0
  5 30  1  0  0  0  0
  5 38  1  1  0  0  0
  6 21  1  6  0  0  0
  6 42  1  0  0  0  0
  7 15  1  0  0  0  0
  7 44  1  0  0  0  0
  7 32  1  1  0  0  0
  8  9  1  1  0  0  0
  8 17  1  0  0  0  0
 11 12  1  1  0  0  0
 11 20  1  0  0  0  0
 13  6  1  0  0  0  0
 13 14  1  6  0  0  0
 15 16  1  6  0  0  0
 15 24  1  0  0  0  0
 17 26  1  0  0  0  0
 18 10  1  0  0  0  0
 18 19  1  6  0  0  0
 20 21  1  1  0  0  0
 20 29  1  0  0  0  0
 22 13  1  0  0  0  0
 22 23  1  1  0  0  0
 24 25  1  6  0  0  0
 24 33  1  0  0  0  0
 26 27  1  6  0  0  0
 26 35  1  0  0  0  0
 28  2  1  6  0  0  0
 28 18  1  0  0  0  0
 29 30  1  0  0  0  0
 29 39  1  6  0  0  0
 31 22  1  0  0  0  0
 31 32  1  6  0  0  0
 31 41  1  0  0  0  0
 33 34  1  6  0  0  0
 33 43  1  0  0  0  0
 35 36  1  0  0  0  0
 35 45  1  6  0  0  0
 37 28  1  0  0  0  0
 37 38  1  6  0  0  0
 39 40  1  0  0  0  0
 41 42  1  0  0  0  0
 41 49  1  6  0  0  0
 43 44  1  0  0  0  0
 43 51  1  6  0  0  0
 45 46  1  0  0  0  0
 47 37  1  0  0  0  0
 47 48  1  1  0  0  0
 49 50  1  0  0  0  0
 51 52  1  0  0  0  0
M  END
>  <CHROM.1>
-171.16748369,71.92646386,169.39844365,143.68010778,88.49812938,80.39599174
-63.41393463,151.62575650,60.02079563,-77.40972282,176.38721053,60.16569565
0.92434944,-50.46502274,9.38028246,0.57752896,-0.99384946,-0.08845351

>  <Name>
2fd0_lig

>  <RI>
0

>  <Rbt.Current_Directory>
/home/itssahil/PROJECTS/Mol_Feturizer/New_Systems/rnas/2fd0

>  <Rbt.Executable>
rbdock ($Id: //depot/dev/client3/rdock/2013.1/src/exe/rbdock.cxx#4 $)

>  <Rbt.Library>
libRbt.so (2013.1, Build901 2013/11/27)

>  <Rbt.Parameter_File>
/export/apps/rDock/src/rDock_2013.1_src/data/scripts/dock_solv.prm

>  <Rbt.Receptor>
prm/pocket_docking_5.prm

>  <SCORE>
-16.1443

>  <SCORE.INTER>
-13.0057

>  <SCORE.INTER.CONST>
1

>  <SCORE.INTER.POLAR>
-1.72243

>  <SCORE.INTER.ROT>
12

>  <SCORE.INTER.SOLV>
11.1095

>  <SCORE.INTER.VDW>
-18.2322

>  <SCORE.INTER.norm>
-0.250109

>  <SCORE.INTRA>
-3.13867

>  <SCORE.INTRA.DIHEDRAL>
-6.17314

>  <SCORE.INTRA.DIHEDRAL.0>
23.9727

>  <SCORE.INTRA.POLAR>
0

>  <SCORE.INTRA.POLAR.0>
0

>  <SCORE.INTRA.REPUL>
0

>  <SCORE.INTRA.REPUL.0>
0

>  <SCORE.INTRA.SOLV>
-2.07204

>  <SCORE.INTRA.SOLV.lig_0>
-115.028

>  <SCORE.INTRA.VDW>
0.983923

>  <SCORE.INTRA.VDW.0>
-6.82393

>  <SCORE.INTRA.norm>
-0.0603591

>  <SCORE.RESTR>
0

>  <SCORE.RESTR.CAVITY>
0

>  <SCORE.RESTR.norm>
0

>  <SCORE.SYSTEM>
0

>  <SCORE.SYSTEM.CONST>
0

>  <SCORE.SYSTEM.DIHEDRAL>
0

>  <SCORE.SYSTEM.SOLV>
0

>  <SCORE.SYSTEM.norm>
0

>  <SCORE.heavy>
52

>  <SCORE.norm>
-0.310468

>  <RMSD>
5.827

$$$$
2fd0_lig
 OpenBabel11021811433D
libRbt.so/2013.1/901 2013/11/27
 52 56  0  0  0  0  0  0  0  0999 V2000
   -0.3654  -48.2689   11.9586 C   0  0  2  0  0  0  0  0  0  0  0  0
   -0.3576  -46.8804   11.5992 O   0  0  0  0  0  0  0  0  0  0  0  0
    2.3611  -43.9107    9.9616 C   0  0  2  0  0  0  0  0  0  0  0  0
    3.5531  -43.0728    9.7520 N   0  0  0  0  0  0  0  0  0  0  0  0
    0.8876  -48.6990    9.4224 C   0  0  1  0  0  0  0  0  0  0  0  0
   -1.1150  -50.9725    6.0635 C   0  0  1  0  0  0  0  0  0  0  0  0
   -5.1821  -51.3440    2.8339 C   0  0  1  0  0  0  0  0  0  0  0  0
   -1.8581  -48.7546   12.0450 C   0  0  2  0  0  0  0  0  0  0  0  0
   -2.5751  -48.5290   10.7977 N   0  0  0  0  0  0  0  0  0  0  0  0
    1.8044  -43.7189   11.4403 C   0  0  0  0  0  0  0  0  0  0  0  0
    0.4932  -48.2764    8.0190 C   0  0  2  0  0  0  0  0  0  0  0  0
   -0.7138  -47.4632    8.0067 O   0  0  0  0  0  0  0  0  0  0  0  0
   -1.0059  -50.3037    4.6143 C   0  0  2  0  0  0  0  0  0  0  0  0
   -1.9223  -49.1357    4.5083 N   0  0  0  0  0  0  0  0  0  0  0  0
   -4.6787  -51.6535    1.4062 C   0  0  1  0  0  0  0  0  0  0  0  0
   -4.0564  -52.9622    1.3983 O   0  0  0  0  0  0  0  0  0  0  0  0
   -2.5882  -48.0678   13.2582 C   0  0  0  0  0  0  0  0  0  0  0  0
    0.5001  -44.6237   11.6627 C   0  0  2  0  0  0  0  0  0  0  0  0
   -0.0333  -44.4667   13.0238 N   0  0  0  0  0  0  0  0  0  0  0  0
    0.4148  -49.5989    7.2752 C   0  0  2  0  0  0  0  0  0  0  0  0
   -0.9128  -49.9550    7.0004 O   0  0  0  0  0  0  0  0  0  0  0  0
   -1.2408  -51.4737    3.5249 C   0  0  1  0  0  0  0  0  0  0  0  0
   -0.2680  -52.5065    3.7657 O   0  0  0  0  0  0  0  0  0  0  0  0
   -5.7198  -51.6078    0.2551 C   0  0  1  0  0  0  0  0  0  0  0  0
   -6.2324  -52.9335    0.0706 O   0  0  0  0  0  0  0  0  0  0  0  0
   -1.7709  -48.3588   14.5590 C   0  0  2  0  0  0  0  0  0  0  0  0
   -2.4103  -47.7680   15.6861 O   0  0  0  0  0  0  0  0  0  0  0  0
    0.8615  -46.1120   11.3984 C   0  0  2  0  0  0  0  0  0  0  0  0
    0.9545  -50.7185    8.1970 C   0  0  2  0  0  0  0  0  0  0  0  0
    1.4653  -49.9873    9.3024 O   0  0  0  0  0  0  0  0  0  0  0  0
   -2.6937  -52.1645    3.6867 C   0  0  2  0  0  0  0  0  0  0  0  0
   -3.6298  -51.1029    3.4212 O   0  0  0  0  0  0  0  0  0  0  0  0
   -6.9077  -50.6377    0.4509 C   0  0  2  0  0  0  0  0  0  0  0  0
   -7.1216  -50.0158   -0.8352 O   0  0  0  0  0  0  0  0  0  0  0  0
   -0.3326  -47.7866   14.4053 C   0  0  2  0  0  0  0  0  0  0  0  0
    0.3006  -48.4368   13.2366 O   0  0  0  0  0  0  0  0  0  0  0  0
    1.4663  -46.3438    9.9801 C   0  0  2  0  0  0  0  0  0  0  0  0
    1.8000  -47.7485    9.8730 O   0  0  0  0  0  0  0  0  0  0  0  0
    2.0880  -51.5509    7.6081 C   0  0  0  0  0  0  0  0  0  0  0  0
    1.5624  -52.2188    6.4510 O   0  0  0  0  0  0  0  0  0  0  0  0
   -2.8028  -52.5499    5.1499 C   0  0  1  0  0  0  0  0  0  0  0  0
   -2.4673  -51.6835    6.2539 O   0  0  0  0  0  0  0  0  0  0  0  0
   -6.6226  -49.6410    1.5712 C   0  0  2  0  0  0  0  0  0  0  0  0
   -6.1859  -50.2398    2.8226 O   0  0  0  0  0  0  0  0  0  0  0  0
    0.5145  -48.0644   15.6063 C   0  0  0  0  0  0  0  0  0  0  0  0
    1.7925  -47.5399   15.3665 O   0  0  0  0  0  0  0  0  0  0  0  0
    2.7347  -45.4365    9.7787 C   0  0  1  0  0  0  0  0  0  0  0  0
    3.2453  -45.6429    8.4163 O   0  0  0  0  0  0  0  0  0  0  0  0
   -4.1824  -53.2030    5.5168 C   0  0  0  0  0  0  0  0  0  0  0  0
   -5.3043  -52.2343    5.5672 N   0  0  0  0  0  0  0  0  0  0  0  0
   -7.6352  -48.5742    1.9815 C   0  0  0  0  0  0  0  0  0  0  0  0
   -8.9156  -49.1918    2.3189 O   0  0  0  0  0  0  0  0  0  0  0  0
  1  2  1  1  0  0  0
  1  8  1  0  0  0  0
  1 36  1  0  0  0  0
  3  4  1  1  0  0  0
  3 10  1  0  0  0  0
  3 47  1  0  0  0  0
  5 11  1  0  0  0  0
  5 30  1  0  0  0  0
  5 38  1  6  0  0  0
  6 21  1  1  0  0  0
  6 42  1  0  0  0  0
  7 15  1  0  0  0  0
  7 44  1  0  0  0  0
  7 32  1  1  0  0  0
  8  9  1  6  0  0  0
  8 17  1  0  0  0  0
 11 12  1  1  0  0  0
 11 20  1  0  0  0  0
 13  6  1  0  0  0  0
 13 14  1  1  0  0  0
 15 16  1  1  0  0  0
 15 24  1  0  0  0  0
 17 26  1  0  0  0  0
 18 10  1  0  0  0  0
 18 19  1  1  0  0  0
 20 21  1  1  0  0  0
 20 29  1  0  0  0  0
 22 13  1  0  0  0  0
 22 23  1  1  0  0  0
 24 25  1  1  0  0  0
 24 33  1  0  0  0  0
 26 27  1  1  0  0  0
 26 35  1  0  0  0  0
 28  2  1  6  0  0  0
 28 18  1  0  0  0  0
 29 30  1  0  0  0  0
 29 39  1  6  0  0  0
 31 22  1  0  0  0  0
 31 32  1  1  0  0  0
 31 41  1  0  0  0  0
 33 34  1  6  0  0  0
 33 43  1  0  0  0  0
 35 36  1  0  0  0  0
 35 45  1  1  0  0  0
 37 28  1  0  0  0  0
 37 38  1  1  0  0  0
 39 40  1  0  0  0  0
 41 42  1  0  0  0  0
 41 49  1  1  0  0  0
 43 44  1  0  0  0  0
 43 51  1  1  0  0  0
 45 46  1  0  0  0  0
 47 37  1  0  0  0  0
 47 48  1  6  0  0  0
 49 50  1  0  0  0  0
 51 52  1  0  0  0  0
M  END
>  <CHROM.1>
-178.45038880,59.53325303,-81.49449913,-74.75668930,165.55342331,-155.03911870
-62.81257670,153.50540955,178.77877738,88.62514989,-73.65377152,55.15203543
-1.57708635,-49.14578836,7.50391527,1.07773798,0.11448753,1.22116160

>  <Name>
2fd0_lig

>  <RI>
0

>  <Rbt.Current_Directory>
/home/itssahil/PROJECTS/Mol_Feturizer/New_Systems/rnas/2fd0

>  <Rbt.Executable>
rbdock ($Id: //depot/dev/client3/rdock/2013.1/src/exe/rbdock.cxx#4 $)

>  <Rbt.Library>
libRbt.so (2013.1, Build901 2013/11/27)

>  <Rbt.Parameter_File>
/export/apps/rDock/src/rDock_2013.1_src/data/scripts/dock_solv.prm

>  <Rbt.Receptor>
prm/pocket_docking_6.prm

>  <SCORE>
-1.29054

>  <SCORE.INTER>
1.0594

>  <SCORE.INTER.CONST>
1

>  <SCORE.INTER.POLAR>
-0.916515

>  <SCORE.INTER.ROT>
12

>  <SCORE.INTER.SOLV>
9.79809

>  <SCORE.INTER.VDW>
-11.1047

>  <SCORE.INTER.norm>
0.020373

>  <SCORE.INTRA>
-2.34994

>  <SCORE.INTRA.DIHEDRAL>
-8.86024

>  <SCORE.INTRA.DIHEDRAL.0>
23.9727

>  <SCORE.INTRA.POLAR>
0

>  <SCORE.INTRA.POLAR.0>
0

>  <SCORE.INTRA.REPUL>
0.000727595

>  <SCORE.INTRA.REPUL.0>
0

>  <SCORE.INTRA.SOLV>
1.38473

>  <SCORE.INTRA.SOLV.lig_0>
-115.028

>  <SCORE.INTRA.VDW>
1.38418

>  <SCORE.INTRA.VDW.0>
-6.82393

>  <SCORE.INTRA.norm>
-0.0451911

>  <SCORE.RESTR>
0

>  <SCORE.RESTR.CAVITY>
0

>  <SCORE.RESTR.norm>
0

>  <SCORE.SYSTEM>
0

>  <SCORE.SYSTEM.CONST>
0

>  <SCORE.SYSTEM.DIHEDRAL>
0

>  <SCORE.SYSTEM.SOLV>
0

>  <SCORE.SYSTEM.norm>
0

>  <SCORE.heavy>
52

>  <SCORE.norm>
-0.0248181

>  <RMSD>
5.846

$$$$
2fd0_lig
 OpenBabel11021811433D
libRbt.so/2013.1/901 2013/11/27
 52 56  0  0  0  0  0  0  0  0999 V2000
    4.2954  -43.0562   12.1447 C   0  0  2  0  0  0  0  0  0  0  0  0
    5.0596  -44.2244   11.8159 O   0  0  0  0  0  0  0  0  0  0  0  0
    5.9173  -48.2249   13.2833 C   0  0  2  0  0  0  0  0  0  0  0  0
    5.7712  -49.5306   13.9472 N   0  0  0  0  0  0  0  0  0  0  0  0
    3.7562  -47.4129    9.3756 C   0  0  1  0  0  0  0  0  0  0  0  0
    0.5085  -49.9777    7.5135 C   0  0  1  0  0  0  0  0  0  0  0  0
   -1.2826  -51.2755    2.9065 C   0  0  1  0  0  0  0  0  0  0  0  0
    4.4575  -42.0094   10.9830 C   0  0  2  0  0  0  0  0  0  0  0  0
    4.0525  -42.5593    9.6968 N   0  0  0  0  0  0  0  0  0  0  0  0
    5.7014  -47.0459   14.3304 C   0  0  0  0  0  0  0  0  0  0  0  0
    2.3736  -48.0020    9.5881 C   0  0  2  0  0  0  0  0  0  0  0  0
    2.4138  -49.2436   10.3462 O   0  0  0  0  0  0  0  0  0  0  0  0
    0.7260  -51.5010    7.0757 C   0  0  2  0  0  0  0  0  0  0  0  0
    1.6754  -51.5849    5.9325 N   0  0  0  0  0  0  0  0  0  0  0  0
   -2.1085  -52.5811    2.8759 C   0  0  1  0  0  0  0  0  0  0  0  0
   -3.2724  -52.4236    3.7247 O   0  0  0  0  0  0  0  0  0  0  0  0
    5.9344  -41.4681   10.9356 C   0  0  0  0  0  0  0  0  0  0  0  0
    5.8718  -45.6253   13.6077 C   0  0  2  0  0  0  0  0  0  0  0  0
    5.6744  -44.5174   14.5539 N   0  0  0  0  0  0  0  0  0  0  0  0
    1.8252  -48.1003    8.1745 C   0  0  2  0  0  0  0  0  0  0  0  0
    1.7755  -49.4304    7.7349 O   0  0  0  0  0  0  0  0  0  0  0  0
   -0.7349  -52.1407    6.8155 C   0  0  1  0  0  0  0  0  0  0  0  0
   -1.5089  -51.9840    8.0186 O   0  0  0  0  0  0  0  0  0  0  0  0
   -2.5881  -53.0918    1.4901 C   0  0  1  0  0  0  0  0  0  0  0  0
   -3.9039  -52.5724    1.2594 O   0  0  0  0  0  0  0  0  0  0  0  0
    6.2958  -40.8869   12.3414 C   0  0  2  0  0  0  0  0  0  0  0  0
    7.6223  -40.3687   12.3350 O   0  0  0  0  0  0  0  0  0  0  0  0
    4.8495  -45.5211   12.4417 C   0  0  2  0  0  0  0  0  0  0  0  0
    2.8062  -47.3894    7.2119 C   0  0  2  0  0  0  0  0  0  0  0  0
    3.7303  -46.7852    8.1055 O   0  0  0  0  0  0  0  0  0  0  0  0
   -1.5359  -51.3585    5.6490 C   0  0  2  0  0  0  0  0  0  0  0  0
   -0.7371  -51.5565    4.4673 O   0  0  0  0  0  0  0  0  0  0  0  0
   -1.6912  -52.7288    0.2841 C   0  0  2  0  0  0  0  0  0  0  0  0
   -1.6502  -53.9118   -0.5436 O   0  0  0  0  0  0  0  0  0  0  0  0
    6.1698  -42.0077   13.4127 C   0  0  2  0  0  0  0  0  0  0  0  0
    4.7766  -42.5059   13.3981 O   0  0  0  0  0  0  0  0  0  0  0  0
    4.9821  -46.6883   11.4164 C   0  0  2  0  0  0  0  0  0  0  0  0
    3.9556  -46.5046   10.4121 O   0  0  0  0  0  0  0  0  0  0  0  0
    2.1873  -46.2945    6.3500 C   0  0  0  0  0  0  0  0  0  0  0  0
    1.5641  -45.3584    7.2424 O   0  0  0  0  0  0  0  0  0  0  0  0
   -1.4813  -49.8907    6.0286 C   0  0  1  0  0  0  0  0  0  0  0  0
   -0.2896  -49.1968    6.4534 O   0  0  0  0  0  0  0  0  0  0  0  0
   -0.3146  -52.2591    0.7465 C   0  0  2  0  0  0  0  0  0  0  0  0
   -0.3354  -51.2113    1.7550 O   0  0  0  0  0  0  0  0  0  0  0  0
    6.4687  -41.5058   14.7895 C   0  0  0  0  0  0  0  0  0  0  0  0
    7.8536  -41.3116   14.8894 O   0  0  0  0  0  0  0  0  0  0  0  0
    4.8263  -48.0711   12.1487 C   0  0  1  0  0  0  0  0  0  0  0  0
    5.0083  -49.1453   11.1627 O   0  0  0  0  0  0  0  0  0  0  0  0
   -2.1759  -48.9534    4.9782 C   0  0  0  0  0  0  0  0  0  0  0  0
   -3.6362  -49.1797    4.8532 N   0  0  0  0  0  0  0  0  0  0  0  0
    0.7668  -51.8279   -0.2418 C   0  0  0  0  0  0  0  0  0  0  0  0
    1.9828  -51.4437    0.4711 O   0  0  0  0  0  0  0  0  0  0  0  0
  1  2  1  6  0  0  0
  1  8  1  0  0  0  0
  1 36  1  0  0  0  0
  3  4  1  1  0  0  0
  3 10  1  0  0  0  0
  3 47  1  0  0  0  0
  5 11  1  0  0  0  0
  5 30  1  0  0  0  0
  5 38  1  1  0  0  0
  6 21  1  6  0  0  0
  6 42  1  0  0  0  0
  7 15  1  0  0  0  0
  7 44  1  0  0  0  0
  7 32  1  1  0  0  0
  8  9  1  6  0  0  0
  8 17  1  0  0  0  0
 11 12  1  6  0  0  0
 11 20  1  0  0  0  0
 13  6  1  0  0  0  0
 13 14  1  6  0  0  0
 15 16  1  1  0  0  0
 15 24  1  0  0  0  0
 17 26  1  0  0  0  0
 18 10  1  0  0  0  0
 18 19  1  1  0  0  0
 20 21  1  6  0  0  0
 20 29  1  0  0  0  0
 22 13  1  0  0  0  0
 22 23  1  1  0  0  0
 24 25  1  6  0  0  0
 24 33  1  0  0  0  0
 26 27  1  6  0  0  0
 26 35  1  0  0  0  0
 28  2  1  6  0  0  0
 28 18  1  0  0  0  0
 29 30  1  0  0  0  0
 29 39  1  1  0  0  0
 31 22  1  0  0  0  0
 31 32  1  6  0  0  0
 31 41  1  0  0  0  0
 33 34  1  6  0  0  0
 33 43  1  0  0  0  0
 35 36  1  0  0  0  0
 35 45  1  1  0  0  0
 37 28  1  0  0  0  0
 37 38  1  6  0  0  0
 39 40  1  0  0  0  0
 41 42  1  0  0  0  0
 41 49  1  6  0  0  0
 43 44  1  0  0  0  0
 43 51  1  6  0  0  0
 45 46  1  0  0  0  0
 47 37  1  0  0  0  0
 47 48  1  6  0  0  0
 49 50  1  0  0  0  0
 51 52  1  0  0  0  0
M  END
>  <CHROM.1>
-161.58383808,115.55601916,-177.97937659,-76.54116090,113.74287066,-95.37269702
55.79909011,164.62273793,-73.71019640,-177.01921409,64.50500561,-179.34328298
2.18858244,-47.95766072,8.05452686,0.01598465,-1.07157187,-0.66473691

>  <Name>
2fd0_lig

>  <RI>
3.4301e+07

>  <Rbt.Current_Directory>
/home/itssahil/PROJECTS/Mol_Feturizer/New_Systems/rnas/2fd0

>  <Rbt.Executable>
rbdock ($Id: //depot/dev/client3/rdock/2013.1/src/exe/rbdock.cxx#4 $)

>  <Rbt.Library>
libRbt.so (2013.1, Build901 2013/11/27)

>  <Rbt.Parameter_File>
/export/apps/rDock/src/rDock_2013.1_src/data/scripts/dock_solv.prm

>  <Rbt.Receptor>
prm/pocket_docking_7.prm

>  <SCORE>
-8.91855

>  <SCORE.INTER>
-12.1785

>  <SCORE.INTER.CONST>
1

>  <SCORE.INTER.POLAR>
-1.81101

>  <SCORE.INTER.ROT>
12

>  <SCORE.INTER.SOLV>
17.8369

>  <SCORE.INTER.VDW>
-19.6279

>  <SCORE.INTER.norm>
-0.234202

>  <SCORE.INTRA>
3.25995

>  <SCORE.INTRA.DIHEDRAL>
0.930672

>  <SCORE.INTRA.DIHEDRAL.0>
23.9727

>  <SCORE.INTRA.POLAR>
0

>  <SCORE.INTRA.POLAR.0>
0

>  <SCORE.INTRA.REPUL>
0

>  <SCORE.INTRA.REPUL.0>
0

>  <SCORE.INTRA.SOLV>
1.01301

>  <SCORE.INTRA.SOLV.lig_0>
-115.028

>  <SCORE.INTRA.VDW>
2.28811

>  <SCORE.INTRA.VDW.0>
-6.82393

>  <SCORE.INTRA.norm>
0.0626913

>  <SCORE.RESTR>
0

>  <SCORE.RESTR.CAVITY>
0

>  <SCORE.RESTR.norm>
0

>  <SCORE.SYSTEM>
0

>  <SCORE.SYSTEM.CONST>
0

>  <SCORE.SYSTEM.DIHEDRAL>
0

>  <SCORE.SYSTEM.SOLV>
0

>  <SCORE.SYSTEM.norm>
0

>  <SCORE.heavy>
52

>  <SCORE.norm>
-0.171511

>  <RMSD>
5.849

$$$$
2fd0_lig
 OpenBabel11021811433D
libRbt.so/2013.1/901 2013/11/27
 52 56  0  0  0  0  0  0  0  0999 V2000
    2.6793  -47.2022   11.1166 C   0  0  2  0  0  0  0  0  0  0  0  0
    2.6299  -47.0073   12.5366 O   0  0  0  0  0  0  0  0  0  0  0  0
    3.7130  -49.3533   16.0317 C   0  0  2  0  0  0  0  0  0  0  0  0
    3.7243  -50.4104   17.0561 N   0  0  0  0  0  0  0  0  0  0  0  0
    3.5958  -50.6169   11.7869 C   0  0  1  0  0  0  0  0  0  0  0  0
    0.1408  -51.8507    9.4535 C   0  0  1  0  0  0  0  0  0  0  0  0
   -2.6600  -54.3987    5.7066 C   0  0  1  0  0  0  0  0  0  0  0  0
    3.0190  -45.8271   10.4346 C   0  0  2  0  0  0  0  0  0  0  0  0
    4.2677  -45.2679   10.9336 N   0  0  0  0  0  0  0  0  0  0  0  0
    2.2894  -48.6432   15.9867 C   0  0  0  0  0  0  0  0  0  0  0  0
    2.3995  -50.2343   10.9348 C   0  0  2  0  0  0  0  0  0  0  0  0
    1.1708  -50.1592   11.7112 O   0  0  0  0  0  0  0  0  0  0  0  0
   -0.8348  -53.0966    9.6885 C   0  0  2  0  0  0  0  0  0  0  0  0
   -0.2347  -54.3410    9.1346 N   0  0  0  0  0  0  0  0  0  0  0  0
   -2.3613  -53.3097    4.6518 C   0  0  1  0  0  0  0  0  0  0  0  0
   -0.9724  -53.4094    4.2505 O   0  0  0  0  0  0  0  0  0  0  0  0
    1.8260  -44.8168   10.6149 C   0  0  0  0  0  0  0  0  0  0  0  0
    2.2829  -47.4851   14.8784 C   0  0  2  0  0  0  0  0  0  0  0  0
    0.9763  -46.8140   14.8146 N   0  0  0  0  0  0  0  0  0  0  0  0
    2.4261  -51.2726    9.8259 C   0  0  2  0  0  0  0  0  0  0  0  0
    1.3898  -52.2052    9.9713 O   0  0  0  0  0  0  0  0  0  0  0  0
   -2.2812  -52.6953    9.0902 C   0  0  1  0  0  0  0  0  0  0  0  0
   -2.7113  -51.4863    9.7416 O   0  0  0  0  0  0  0  0  0  0  0  0
   -3.2345  -53.2987    3.3679 C   0  0  1  0  0  0  0  0  0  0  0  0
   -2.5585  -54.0712    2.3677 O   0  0  0  0  0  0  0  0  0  0  0  0
    0.5260  -45.4778   10.0511 C   0  0  2  0  0  0  0  0  0  0  0  0
   -0.5766  -44.5856   10.1792 O   0  0  0  0  0  0  0  0  0  0  0  0
    2.6356  -48.1014   13.4958 C   0  0  2  0  0  0  0  0  0  0  0  0
    3.7325  -52.0929    9.9465 C   0  0  2  0  0  0  0  0  0  0  0  0
    4.4432  -51.3927   10.9576 O   0  0  0  0  0  0  0  0  0  0  0  0
   -2.2083  -52.3644    7.5092 C   0  0  2  0  0  0  0  0  0  0  0  0
   -1.7928  -53.6013    6.9002 O   0  0  0  0  0  0  0  0  0  0  0  0
   -4.6762  -53.8359    3.5216 C   0  0  2  0  0  0  0  0  0  0  0  0
   -5.5104  -52.9459    2.7480 O   0  0  0  0  0  0  0  0  0  0  0  0
    0.2359  -46.7939   10.8279 C   0  0  2  0  0  0  0  0  0  0  0  0
    1.3955  -47.6969   10.6558 O   0  0  0  0  0  0  0  0  0  0  0  0
    3.9978  -48.8598   13.5026 C   0  0  2  0  0  0  0  0  0  0  0  0
    4.1903  -49.4214   12.1822 O   0  0  0  0  0  0  0  0  0  0  0  0
    4.5947  -52.1249    8.6895 C   0  0  0  0  0  0  0  0  0  0  0  0
    3.8013  -52.7175    7.6500 O   0  0  0  0  0  0  0  0  0  0  0  0
   -1.0905  -51.3505    7.3546 C   0  0  1  0  0  0  0  0  0  0  0  0
    0.2122  -51.4658    7.9644 O   0  0  0  0  0  0  0  0  0  0  0  0
   -5.0751  -53.9222    4.9923 C   0  0  2  0  0  0  0  0  0  0  0  0
   -4.1283  -54.6299    5.8398 O   0  0  0  0  0  0  0  0  0  0  0  0
   -0.9795  -47.4958   10.3111 C   0  0  0  0  0  0  0  0  0  0  0  0
   -0.7698  -47.7850    8.9553 O   0  0  0  0  0  0  0  0  0  0  0  0
    3.9870  -49.9802   14.6058 C   0  0  1  0  0  0  0  0  0  0  0  0
    5.3015  -50.6370   14.6178 O   0  0  0  0  0  0  0  0  0  0  0  0
   -0.8340  -50.9345    5.8628 C   0  0  0  0  0  0  0  0  0  0  0  0
   -1.9749  -50.2204    5.2400 N   0  0  0  0  0  0  0  0  0  0  0  0
   -6.4467  -54.4318    5.4296 C   0  0  0  0  0  0  0  0  0  0  0  0
   -7.4928  -53.5058    5.0021 O   0  0  0  0  0  0  0  0  0  0  0  0
  1  2  1  1  0  0  0
  1  8  1  0  0  0  0
  1 36  1  0  0  0  0
  3  4  1  1  0  0  0
  3 10  1  0  0  0  0
  3 47  1  0  0  0  0
  5 11  1  0  0  0  0
  5 30  1  0  0  0  0
  5 38  1  6  0  0  0
  6 21  1  6  0  0  0
  6 42  1  0  0  0  0
  7 15  1  0  0  0  0
  7 44  1  0  0  0  0
  7 32  1  1  0  0  0
  8  9  1  1  0  0  0
  8 17  1  0  0  0  0
 11 12  1  1  0  0  0
 11 20  1  0  0  0  0
 13  6  1  0  0  0  0
 13 14  1  6  0  0  0
 15 16  1  6  0  0  0
 15 24  1  0  0  0  0
 17 26  1  0  0  0  0
 18 10  1  0  0  0  0
 18 19  1  6  0  0  0
 20 21  1  1  0  0  0
 20 29  1  0  0  0  0
 22 13  1  0  0  0  0
 22 23  1  1  0  0  0
 24 25  1  6  0  0  0
 24 33  1  0  0  0  0
 26 27  1  1  0  0  0
 26 35  1  0  0  0  0
 28  2  1  6  0  0  0
 28 18  1  0  0  0  0
 29 30  1  0  0  0  0
 29 39  1  6  0  0  0
 31 22  1  0  0  0  0
 31 32  1  6  0  0  0
 31 41  1  0  0  0  0
 33 34  1  6  0  0  0
 33 43  1  0  0  0  0
 35 36  1  0  0  0  0
 35 45  1  6  0  0  0
 37 28  1  0  0  0  0
 37 38  1  6  0  0  0
 39 40  1  0  0  0  0
 41 42  1  0  0  0  0
 41 49  1  6  0  0  0
 43 44  1  0  0  0  0
 43 51  1  6  0  0  0
 45 46  1  0  0  0  0
 47 37  1  0  0  0  0
 47 48  1  1  0  0  0
 49 50  1  0  0  0  0
 51 52  1  0  0  0  0
M  END
>  <CHROM.1>
-165.92348177,101.36838740,177.55572002,69.52537222,84.15465721,-168.74403585
-60.33374361,122.84008361,59.09020197,-81.59736314,64.65950318,-66.67927157
0.28567760,-50.55450368,9.39408577,0.68593873,-0.74044804,0.32382374

>  <Name>
2fd0_lig

>  <RI>
3.4301e+07

>  <Rbt.Current_Directory>
/home/itssahil/PROJECTS/Mol_Feturizer/New_Systems/rnas/2fd0

>  <Rbt.Executable>
rbdock ($Id: //depot/dev/client3/rdock/2013.1/src/exe/rbdock.cxx#4 $)

>  <Rbt.Library>
libRbt.so (2013.1, Build901 2013/11/27)

>  <Rbt.Parameter_File>
/export/apps/rDock/src/rDock_2013.1_src/data/scripts/dock_solv.prm

>  <Rbt.Receptor>
prm/pocket_docking_7.prm

>  <SCORE>
-15.0181

>  <SCORE.INTER>
-13.6563

>  <SCORE.INTER.CONST>
1

>  <SCORE.INTER.POLAR>
-1.80187

>  <SCORE.INTER.ROT>
12

>  <SCORE.INTER.SOLV>
15.7053

>  <SCORE.INTER.VDW>
-19.9331

>  <SCORE.INTER.norm>
-0.262622

>  <SCORE.INTRA>
-1.36175

>  <SCORE.INTRA.DIHEDRAL>
-3.21623

>  <SCORE.INTRA.DIHEDRAL.0>
23.9727

>  <SCORE.INTRA.POLAR>
0

>  <SCORE.INTRA.POLAR.0>
0

>  <SCORE.INTRA.REPUL>
0

>  <SCORE.INTRA.REPUL.0>
0

>  <SCORE.INTRA.SOLV>
-0.765069

>  <SCORE.INTRA.SOLV.lig_0>
-115.028

>  <SCORE.INTRA.VDW>
0.628896

>  <SCORE.INTRA.VDW.0>
-6.82393

>  <SCORE.INTRA.norm>
-0.0261875

>  <SCORE.RESTR>
0

>  <SCORE.RESTR.CAVITY>
0

>  <SCORE.RESTR.norm>
0

>  <SCORE.SYSTEM>
0

>  <SCORE.SYSTEM.CONST>
0

>  <SCORE.SYSTEM.DIHEDRAL>
0

>  <SCORE.SYSTEM.SOLV>
0

>  <SCORE.SYSTEM.norm>
0

>  <SCORE.heavy>
52

>  <SCORE.norm>
-0.28881

>  <RMSD>
5.878

$$$$
2fd0_lig
 OpenBabel11021811433D
libRbt.so/2013.1/901 2013/11/27
 52 56  0  0  0  0  0  0  0  0999 V2000
    8.9154  -42.4304   12.2600 C   0  0  2  0  0  0  0  0  0  0  0  0
    8.3074  -43.6829   11.9158 O   0  0  0  0  0  0  0  0  0  0  0  0
    7.7271  -47.4513   14.0026 C   0  0  2  0  0  0  0  0  0  0  0  0
    7.2989  -48.4430   15.0028 N   0  0  0  0  0  0  0  0  0  0  0  0
    5.2627  -45.3566   10.4226 C   0  0  1  0  0  0  0  0  0  0  0  0
    3.3933  -48.6457    8.6561 C   0  0  1  0  0  0  0  0  0  0  0  0
   -0.8666  -51.4049    8.9397 C   0  0  1  0  0  0  0  0  0  0  0  0
    8.5370  -41.3721   11.1607 C   0  0  2  0  0  0  0  0  0  0  0  0
    7.0947  -41.2350   11.0134 N   0  0  0  0  0  0  0  0  0  0  0  0
    8.5942  -46.3094   14.6934 C   0  0  0  0  0  0  0  0  0  0  0  0
    4.5346  -46.6798   10.5720 C   0  0  2  0  0  0  0  0  0  0  0  0
    5.3863  -47.8168   10.2558 O   0  0  0  0  0  0  0  0  0  0  0  0
    2.8689  -49.2520    7.2716 C   0  0  2  0  0  0  0  0  0  0  0  0
    1.5739  -48.6279    6.8860 N   0  0  0  0  0  0  0  0  0  0  0  0
   -1.7425  -50.7981    7.8206 C   0  0  1  0  0  0  0  0  0  0  0  0
   -1.6121  -51.6092    6.6269 O   0  0  0  0  0  0  0  0  0  0  0  0
    9.2210  -41.7366    9.7911 C   0  0  0  0  0  0  0  0  0  0  0  0
    9.0686  -45.2369   13.6007 C   0  0  2  0  0  0  0  0  0  0  0  0
    9.8704  -44.1680   14.2142 N   0  0  0  0  0  0  0  0  0  0  0  0
    3.3114  -46.4962    9.6896 C   0  0  2  0  0  0  0  0  0  0  0  0
    3.4075  -47.2551    8.5151 O   0  0  0  0  0  0  0  0  0  0  0  0
    2.8475  -50.8602    7.4274 C   0  0  1  0  0  0  0  0  0  0  0  0
    4.1731  -51.2891    7.7875 O   0  0  0  0  0  0  0  0  0  0  0  0
   -3.2558  -50.6154    8.1165 C   0  0  1  0  0  0  0  0  0  0  0  0
   -3.9414  -51.7837    7.6481 O   0  0  0  0  0  0  0  0  0  0  0  0
   10.7626  -41.8578   10.0226 C   0  0  2  0  0  0  0  0  0  0  0  0
   11.4222  -42.1696    8.7996 O   0  0  0  0  0  0  0  0  0  0  0  0
    7.8178  -44.6334   12.9028 C   0  0  2  0  0  0  0  0  0  0  0  0
    3.2563  -45.0230    9.2194 C   0  0  2  0  0  0  0  0  0  0  0  0
    4.2987  -44.4204    9.9731 O   0  0  0  0  0  0  0  0  0  0  0  0
    1.8698  -51.3365    8.6239 C   0  0  2  0  0  0  0  0  0  0  0  0
    0.5593  -50.9030    8.2134 O   0  0  0  0  0  0  0  0  0  0  0  0
   -3.6352  -50.3754    9.5960 C   0  0  2  0  0  0  0  0  0  0  0  0
   -4.6601  -49.3577    9.5774 O   0  0  0  0  0  0  0  0  0  0  0  0
   11.0421  -42.9696   11.0740 C   0  0  2  0  0  0  0  0  0  0  0  0
   10.3547  -42.5998   12.3310 O   0  0  0  0  0  0  0  0  0  0  0  0
    6.9032  -45.7193   12.2584 C   0  0  2  0  0  0  0  0  0  0  0  0
    5.7599  -45.0413   11.6845 O   0  0  0  0  0  0  0  0  0  0  0  0
    1.9551  -44.2924    9.5319 C   0  0  0  0  0  0  0  0  0  0  0  0
    2.1121  -42.9400    9.0764 O   0  0  0  0  0  0  0  0  0  0  0  0
    2.2869  -50.5295    9.8389 C   0  0  1  0  0  0  0  0  0  0  0  0
    2.5198  -49.1055    9.8377 O   0  0  0  0  0  0  0  0  0  0  0  0
   -2.4095  -49.9925   10.4210 C   0  0  2  0  0  0  0  0  0  0  0  0
   -1.2751  -50.8918   10.2802 O   0  0  0  0  0  0  0  0  0  0  0  0
   12.5017  -43.1116   11.3678 C   0  0  0  0  0  0  0  0  0  0  0  0
   12.6595  -44.1593   12.2861 O   0  0  0  0  0  0  0  0  0  0  0  0
    6.4620  -46.7678   13.3441 C   0  0  1  0  0  0  0  0  0  0  0  0
    5.6465  -47.8014   12.6915 O   0  0  0  0  0  0  0  0  0  0  0  0
    1.4104  -50.8231   11.1077 C   0  0  0  0  0  0  0  0  0  0  0  0
    1.8510  -50.0879   12.3179 N   0  0  0  0  0  0  0  0  0  0  0  0
   -2.4992  -49.7093   11.9189 C   0  0  0  0  0  0  0  0  0  0  0  0
   -1.1990  -49.2886   12.4355 O   0  0  0  0  0  0  0  0  0  0  0  0
  1  2  1  6  0  0  0
  1  8  1  0  0  0  0
  1 36  1  0  0  0  0
  3  4  1  1  0  0  0
  3 10  1  0  0  0  0
  3 47  1  0  0  0  0
  5 11  1  0  0  0  0
  5 30  1  0  0  0  0
  5 38  1  1  0  0  0
  6 21  1  6  0  0  0
  6 42  1  0  0  0  0
  7 15  1  0  0  0  0
  7 44  1  0  0  0  0
  7 32  1  6  0  0  0
  8  9  1  6  0  0  0
  8 17  1  0  0  0  0
 11 12  1  6  0  0  0
 11 20  1  0  0  0  0
 13  6  1  0  0  0  0
 13 14  1  1  0  0  0
 15 16  1  6  0  0  0
 15 24  1  0  0  0  0
 17 26  1  0  0  0  0
 18 10  1  0  0  0  0
 18 19  1  1  0  0  0
 20 21  1  6  0  0  0
 20 29  1  0  0  0  0
 22 13  1  0  0  0  0
 22 23  1  1  0  0  0
 24 25  1  1  0  0  0
 24 33  1  0  0  0  0
 26 27  1  6  0  0  0
 26 35  1  0  0  0  0
 28  2  1  6  0  0  0
 28 18  1  0  0  0  0
 29 30  1  0  0  0  0
 29 39  1  1  0  0  0
 31 22  1  0  0  0  0
 31 32  1  6  0  0  0
 31 41  1  0  0  0  0
 33 34  1  6  0  0  0
 33 43  1  0  0  0  0
 35 36  1  0  0  0  0
 35 45  1  1  0  0  0
 37 28  1  0  0  0  0
 37 38  1  1  0  0  0
 39 40  1  0  0  0  0
 41 42  1  0  0  0  0
 41 49  1  1  0  0  0
 43 44  1  0  0  0  0
 43 51  1  1  0  0  0
 45 46  1  0  0  0  0
 47 37  1  0  0  0  0
 47 48  1  6  0  0  0
 49 50  1  0  0  0  0
 51 52  1  0  0  0  0
M  END
>  <CHROM.1>
-146.22433915,74.40961130,155.42968871,-168.97591674,66.05754185,-70.42029886
177.61642096,167.30791423,-178.08592218,136.11232034,177.22475796,-176.51677263
4.15866421,-47.05640153,10.46298513,0.26141982,-0.55384444,-0.72038930

>  <Name>
2fd0_lig

>  <RI>
0

>  <Rbt.Current_Directory>
/home/itssahil/PROJECTS/Mol_Feturizer/New_Systems/rnas/2fd0

>  <Rbt.Executable>
rbdock ($Id: //depot/dev/client3/rdock/2013.1/src/exe/rbdock.cxx#4 $)

>  <Rbt.Library>
libRbt.so (2013.1, Build901 2013/11/27)

>  <Rbt.Parameter_File>
/export/apps/rDock/src/rDock_2013.1_src/data/scripts/dock_solv.prm

>  <Rbt.Receptor>
prm/pocket_docking_6.prm

>  <SCORE>
-11.6236

>  <SCORE.INTER>
-13.3747

>  <SCORE.INTER.CONST>
1

>  <SCORE.INTER.POLAR>
-1.19011

>  <SCORE.INTER.ROT>
12

>  <SCORE.INTER.SOLV>
15.3884

>  <SCORE.INTER.VDW>
-21.6789

>  <SCORE.INTER.norm>
-0.257206

>  <SCORE.INTRA>
1.75114

>  <SCORE.INTRA.DIHEDRAL>
-6.28979

>  <SCORE.INTRA.DIHEDRAL.0>
23.9727

>  <SCORE.INTRA.POLAR>
0

>  <SCORE.INTRA.POLAR.0>
0

>  <SCORE.INTRA.REPUL>
0.0161727

>  <SCORE.INTRA.REPUL.0>
0

>  <SCORE.INTRA.SOLV>
0.737302

>  <SCORE.INTRA.SOLV.lig_0>
-115.028

>  <SCORE.INTRA.VDW>
4.44652

>  <SCORE.INTRA.VDW.0>
-6.82393

>  <SCORE.INTRA.norm>
0.0336758

>  <SCORE.RESTR>
0

>  <SCORE.RESTR.CAVITY>
0

>  <SCORE.RESTR.norm>
0

>  <SCORE.SYSTEM>
0

>  <SCORE.SYSTEM.CONST>
0

>  <SCORE.SYSTEM.DIHEDRAL>
0

>  <SCORE.SYSTEM.SOLV>
0

>  <SCORE.SYSTEM.norm>
0

>  <SCORE.heavy>
52

>  <SCORE.norm>
-0.223531

>  <RMSD>
5.960

$$$$
2fd0_lig
 OpenBabel11021811433D
libRbt.so/2013.1/901 2013/11/27
 52 56  0  0  0  0  0  0  0  0999 V2000
    2.3503  -43.4484   12.4920 C   0  0  2  0  0  0  0  0  0  0  0  0
    3.5072  -44.2908   12.5863 O   0  0  0  0  0  0  0  0  0  0  0  0
    6.9027  -42.5022   10.5458 C   0  0  2  0  0  0  0  0  0  0  0  0
    8.2465  -41.9645   10.2773 N   0  0  0  0  0  0  0  0  0  0  0  0
    5.1123  -47.0463   10.8988 C   0  0  1  0  0  0  0  0  0  0  0  0
    1.7957  -49.8091   11.2171 C   0  0  1  0  0  0  0  0  0  0  0  0
   -0.9126  -53.8410    9.8875 C   0  0  1  0  0  0  0  0  0  0  0  0
    1.5991  -43.4742   13.8727 C   0  0  2  0  0  0  0  0  0  0  0  0
    2.4642  -43.0607   14.9688 N   0  0  0  0  0  0  0  0  0  0  0  0
    6.2264  -41.7197   11.7554 C   0  0  0  0  0  0  0  0  0  0  0  0
    3.8806  -47.5204   11.6483 C   0  0  2  0  0  0  0  0  0  0  0  0
    4.1720  -48.6326   12.5406 O   0  0  0  0  0  0  0  0  0  0  0  0
    2.4425  -51.2140   11.6262 C   0  0  2  0  0  0  0  0  0  0  0  0
    2.8219  -51.9870   10.4121 N   0  0  0  0  0  0  0  0  0  0  0  0
    0.0843  -54.8786    9.3242 C   0  0  1  0  0  0  0  0  0  0  0  0
    0.4078  -55.8352   10.3636 O   0  0  0  0  0  0  0  0  0  0  0  0
    0.9831  -44.8984   14.1346 C   0  0  0  0  0  0  0  0  0  0  0  0
    4.7591  -42.2994   12.0387 C   0  0  2  0  0  0  0  0  0  0  0  0
    4.1124  -41.5944   13.1551 N   0  0  0  0  0  0  0  0  0  0  0  0
    2.8905  -47.8028   10.5309 C   0  0  2  0  0  0  0  0  0  0  0  0
    2.6963  -49.1796   10.3533 O   0  0  0  0  0  0  0  0  0  0  0  0
    1.4057  -51.9495   12.6237 C   0  0  1  0  0  0  0  0  0  0  0  0
    1.1636  -51.0720   13.7383 O   0  0  0  0  0  0  0  0  0  0  0  0
   -0.3448  -55.6689    8.0583 C   0  0  1  0  0  0  0  0  0  0  0  0
   -0.9576  -56.8913    8.4877 O   0  0  0  0  0  0  0  0  0  0  0  0
    0.0625  -45.2711   12.9270 C   0  0  2  0  0  0  0  0  0  0  0  0
   -0.5304  -46.5492   13.1345 O   0  0  0  0  0  0  0  0  0  0  0  0
    4.8634  -43.8178   12.3539 C   0  0  2  0  0  0  0  0  0  0  0  0
    3.4928  -47.3008    9.1968 C   0  0  2  0  0  0  0  0  0  0  0  0
    4.6628  -46.6187    9.6248 O   0  0  0  0  0  0  0  0  0  0  0  0
   -0.0277  -52.2055   11.9208 C   0  0  2  0  0  0  0  0  0  0  0  0
    0.2604  -53.0977   10.8278 O   0  0  0  0  0  0  0  0  0  0  0  0
   -1.3105  -54.9393    7.0962 C   0  0  2  0  0  0  0  0  0  0  0  0
   -0.8452  -55.2496    5.7644 O   0  0  0  0  0  0  0  0  0  0  0  0
    0.9043  -45.2834   11.6190 C   0  0  2  0  0  0  0  0  0  0  0  0
    1.4874  -43.9363   11.4324 O   0  0  0  0  0  0  0  0  0  0  0  0
    5.5723  -44.6221   11.2219 C   0  0  2  0  0  0  0  0  0  0  0  0
    5.6474  -46.0031   11.6500 O   0  0  0  0  0  0  0  0  0  0  0  0
    2.6212  -46.3180    8.4229 C   0  0  0  0  0  0  0  0  0  0  0  0
    3.2326  -46.1359    7.1367 O   0  0  0  0  0  0  0  0  0  0  0  0
   -0.4494  -50.8642   11.3512 C   0  0  1  0  0  0  0  0  0  0  0  0
    0.4060  -49.9943   10.5807 O   0  0  0  0  0  0  0  0  0  0  0  0
   -1.3546  -53.4430    7.3942 C   0  0  2  0  0  0  0  0  0  0  0  0
   -1.6031  -53.1064    8.7872 O   0  0  0  0  0  0  0  0  0  0  0  0
    0.0717  -45.5991   10.4173 C   0  0  0  0  0  0  0  0  0  0  0  0
   -0.3381  -46.9365   10.5126 O   0  0  0  0  0  0  0  0  0  0  0  0
    7.0027  -44.0276   10.9510 C   0  0  1  0  0  0  0  0  0  0  0  0
    7.6181  -44.7758    9.8460 O   0  0  0  0  0  0  0  0  0  0  0  0
   -1.8154  -50.9212   10.5797 C   0  0  0  0  0  0  0  0  0  0  0  0
   -2.2670  -49.6031   10.0717 N   0  0  0  0  0  0  0  0  0  0  0  0
   -2.2382  -52.4855    6.5978 C   0  0  0  0  0  0  0  0  0  0  0  0
   -2.1488  -52.7802    5.1697 O   0  0  0  0  0  0  0  0  0  0  0  0
  1  2  1  1  0  0  0
  1  8  1  0  0  0  0
  1 36  1  0  0  0  0
  3  4  1  1  0  0  0
  3 10  1  0  0  0  0
  3 47  1  0  0  0  0
  5 11  1  0  0  0  0
  5 30  1  0  0  0  0
  5 38  1  1  0  0  0
  6 21  1  6  0  0  0
  6 42  1  0  0  0  0
  7 15  1  0  0  0  0
  7 44  1  0  0  0  0
  7 32  1  1  0  0  0
  8  9  1  1  0  0  0
  8 17  1  0  0  0  0
 11 12  1  6  0  0  0
 11 20  1  0  0  0  0
 13  6  1  0  0  0  0
 13 14  1  6  0  0  0
 15 16  1  1  0  0  0
 15 24  1  0  0  0  0
 17 26  1  0  0  0  0
 18 10  1  0  0  0  0
 18 19  1  1  0  0  0
 20 21  1  6  0  0  0
 20 29  1  0  0  0  0
 22 13  1  0  0  0  0
 22 23  1  1  0  0  0
 24 25  1  1  0  0  0
 24 33  1  0  0  0  0
 26 27  1  1  0  0  0
 26 35  1  0  0  0  0
 28  2  1  6  0  0  0
 28 18  1  0  0  0  0
 29 30  1  0  0  0  0
 29 39  1  1  0  0  0
 31 22  1  0  0  0  0
 31 32  1  6  0  0  0
 31 41  1  0  0  0  0
 33 34  1  6  0  0  0
 33 43  1  0  0  0  0
 35 36  1  0  0  0  0
 35 45  1  6  0  0  0
 37 28  1  0  0  0  0
 37 38  1  1  0  0  0
 39 40  1  0  0  0  0
 41 42  1  0  0  0  0
 41 49  1  6  0  0  0
 43 44  1  0  0  0  0
 43 51  1  6  0  0  0
 45 46  1  0  0  0  0
 47 37  1  0  0  0  0
 47 48  1  6  0  0  0
 49 50  1  0  0  0  0
 51 52  1  0  0  0  0
M  END
>  <CHROM.1>
-121.70394063,-108.12892476,-138.80820889,-163.53217410,81.90051396,1.19534652
-170.90973174,171.72590213,-68.41455548,123.31284982,177.38146332,-43.73440115
1.91360955,-48.40909300,10.62368164,1.01942777,0.54006404,0.59845186

>  <Name>
2fd0_lig

>  <RI>
0

>  <Rbt.Current_Directory>
/home/itssahil/PROJECTS/Mol_Feturizer/New_Systems/rnas/2fd0

>  <Rbt.Executable>
rbdock ($Id: //depot/dev/client3/rdock/2013.1/src/exe/rbdock.cxx#4 $)

>  <Rbt.Library>
libRbt.so (2013.1, Build901 2013/11/27)

>  <Rbt.Parameter_File>
/export/apps/rDock/src/rDock_2013.1_src/data/scripts/dock_solv.prm

>  <Rbt.Receptor>
prm/pocket_docking_6.prm

>  <SCORE>
-0.0367419

>  <SCORE.INTER>
-10.9075

>  <SCORE.INTER.CONST>
1

>  <SCORE.INTER.POLAR>
-1.22458

>  <SCORE.INTER.ROT>
12

>  <SCORE.INTER.SOLV>
14.8403

>  <SCORE.INTER.VDW>
-19.7365

>  <SCORE.INTER.norm>
-0.209759

>  <SCORE.INTRA>
10.8707

>  <SCORE.INTRA.DIHEDRAL>
16.2151

>  <SCORE.INTRA.DIHEDRAL.0>
23.9727

>  <SCORE.INTRA.POLAR>
0

>  <SCORE.INTRA.POLAR.0>
0

>  <SCORE.INTRA.REPUL>
0

>  <SCORE.INTRA.REPUL.0>
0

>  <SCORE.INTRA.SOLV>
1.93941

>  <SCORE.INTRA.SOLV.lig_0>
-115.028

>  <SCORE.INTRA.VDW>
1.79345

>  <SCORE.INTRA.VDW.0>
-6.82393

>  <SCORE.INTRA.norm>
0.209052

>  <SCORE.RESTR>
0

>  <SCORE.RESTR.CAVITY>
0

>  <SCORE.RESTR.norm>
0

>  <SCORE.SYSTEM>
0

>  <SCORE.SYSTEM.CONST>
0

>  <SCORE.SYSTEM.DIHEDRAL>
0

>  <SCORE.SYSTEM.SOLV>
0

>  <SCORE.SYSTEM.norm>
0

>  <SCORE.heavy>
52

>  <SCORE.norm>
-0.000706575

>  <RMSD>
5.964

$$$$
2fd0_lig
 OpenBabel11021811433D
libRbt.so/2013.1/901 2013/11/27
 52 56  0  0  0  0  0  0  0  0999 V2000
    5.4821  -46.9277   12.8803 C   0  0  2  0  0  0  0  0  0  0  0  0
    4.7657  -46.2724   13.9359 O   0  0  0  0  0  0  0  0  0  0  0  0
    1.4101  -47.2539   16.5183 C   0  0  2  0  0  0  0  0  0  0  0  0
    0.0504  -47.5787   16.9796 N   0  0  0  0  0  0  0  0  0  0  0  0
    3.1441  -49.2817   12.8807 C   0  0  1  0  0  0  0  0  0  0  0  0
    3.4118  -52.0607    9.4545 C   0  0  1  0  0  0  0  0  0  0  0  0
    1.3739  -54.8297    5.6465 C   0  0  1  0  0  0  0  0  0  0  0  0
    6.8683  -46.2093   12.6959 C   0  0  2  0  0  0  0  0  0  0  0  0
    7.6418  -46.1979   13.9297 N   0  0  0  0  0  0  0  0  0  0  0  0
    1.4147  -45.8595   15.7511 C   0  0  0  0  0  0  0  0  0  0  0  0
    3.9083  -50.3901   12.1800 C   0  0  2  0  0  0  0  0  0  0  0  0
    4.8659  -49.8739   11.2132 O   0  0  0  0  0  0  0  0  0  0  0  0
    3.5274  -51.4473    7.9815 C   0  0  2  0  0  0  0  0  0  0  0  0
    2.1826  -51.0723    7.4655 N   0  0  0  0  0  0  0  0  0  0  0  0
    2.4325  -55.1797    4.5766 C   0  0  1  0  0  0  0  0  0  0  0  0
    3.5159  -55.9085    5.2051 O   0  0  0  0  0  0  0  0  0  0  0  0
    6.6606  -44.7534   12.1360 C   0  0  0  0  0  0  0  0  0  0  0  0
    2.8980  -45.5028   15.2596 C   0  0  2  0  0  0  0  0  0  0  0  0
    2.9295  -44.2185   14.5444 N   0  0  0  0  0  0  0  0  0  0  0  0
    2.8000  -51.2655   11.6198 C   0  0  2  0  0  0  0  0  0  0  0  0
    2.7003  -51.1387   10.2274 O   0  0  0  0  0  0  0  0  0  0  0  0
    4.3473  -52.5089    7.0805 C   0  0  1  0  0  0  0  0  0  0  0  0
    5.6169  -52.7436    7.7162 O   0  0  0  0  0  0  0  0  0  0  0  0
    1.9589  -55.9911    3.3404 C   0  0  1  0  0  0  0  0  0  0  0  0
    2.1715  -57.3813    3.6169 O   0  0  0  0  0  0  0  0  0  0  0  0
    5.8343  -44.8437   10.8117 C   0  0  2  0  0  0  0  0  0  0  0  0
    5.6396  -43.5444   10.2620 O   0  0  0  0  0  0  0  0  0  0  0  0
    3.4166  -46.6411   14.3372 C   0  0  2  0  0  0  0  0  0  0  0  0
    1.4448  -50.7635   12.1728 C   0  0  2  0  0  0  0  0  0  0  0  0
    1.8435  -49.7882   13.1253 O   0  0  0  0  0  0  0  0  0  0  0  0
    3.5993  -53.9404    7.0062 C   0  0  2  0  0  0  0  0  0  0  0  0
    2.3480  -53.6603    6.3509 O   0  0  0  0  0  0  0  0  0  0  0  0
    0.4857  -55.7876    2.9172 C   0  0  2  0  0  0  0  0  0  0  0  0
    0.4973  -55.7294    1.4739 O   0  0  0  0  0  0  0  0  0  0  0  0
    4.4580  -45.5067   11.1048 C   0  0  2  0  0  0  0  0  0  0  0  0
    4.7043  -46.8571   11.6575 O   0  0  0  0  0  0  0  0  0  0  0  0
    3.3779  -48.0400   15.0247 C   0  0  2  0  0  0  0  0  0  0  0  0
    3.8388  -49.0137   14.0574 O   0  0  0  0  0  0  0  0  0  0  0  0
    0.6075  -51.8179   12.8882 C   0  0  0  0  0  0  0  0  0  0  0  0
   -0.6306  -51.1922   13.2580 O   0  0  0  0  0  0  0  0  0  0  0  0
    3.3148  -54.3285    8.4450 C   0  0  1  0  0  0  0  0  0  0  0  0
    2.7436  -53.4476    9.4349 O   0  0  0  0  0  0  0  0  0  0  0  0
   -0.1063  -54.5433    3.5736 C   0  0  2  0  0  0  0  0  0  0  0  0
    0.0692  -54.4734    5.0158 O   0  0  0  0  0  0  0  0  0  0  0  0
    3.6306  -45.6556    9.8677 C   0  0  0  0  0  0  0  0  0  0  0  0
    4.4181  -46.2829    8.8920 O   0  0  0  0  0  0  0  0  0  0  0  0
    1.9178  -48.3627   15.5113 C   0  0  1  0  0  0  0  0  0  0  0  0
    1.9305  -49.6617   16.1982 O   0  0  0  0  0  0  0  0  0  0  0  0
    2.5407  -55.6878    8.5779 C   0  0  0  0  0  0  0  0  0  0  0  0
    1.0663  -55.5412    8.5148 N   0  0  0  0  0  0  0  0  0  0  0  0
   -1.5521  -54.1135    3.3352 C   0  0  0  0  0  0  0  0  0  0  0  0
   -1.8439  -52.8833    4.0673 O   0  0  0  0  0  0  0  0  0  0  0  0
  1  2  1  1  0  0  0
  1  8  1  0  0  0  0
  1 36  1  0  0  0  0
  3  4  1  6  0  0  0
  3 10  1  0  0  0  0
  3 47  1  0  0  0  0
  5 11  1  0  0  0  0
  5 30  1  0  0  0  0
  5 38  1  1  0  0  0
  6 21  1  1  0  0  0
  6 42  1  0  0  0  0
  7 15  1  0  0  0  0
  7 44  1  0  0  0  0
  7 32  1  6  0  0  0
  8  9  1  1  0  0  0
  8 17  1  0  0  0  0
 11 12  1  6  0  0  0
 11 20  1  0  0  0  0
 13  6  1  0  0  0  0
 13 14  1  6  0  0  0
 15 16  1  1  0  0  0
 15 24  1  0  0  0  0
 17 26  1  0  0  0  0
 18 10  1  0  0  0  0
 18 19  1  6  0  0  0
 20 21  1  6  0  0  0
 20 29  1  0  0  0  0
 22 13  1  0  0  0  0
 22 23  1  1  0  0  0
 24 25  1  1  0  0  0
 24 33  1  0  0  0  0
 26 27  1  1  0  0  0
 26 35  1  0  0  0  0
 28  2  1  1  0  0  0
 28 18  1  0  0  0  0
 29 30  1  0  0  0  0
 29 39  1  1  0  0  0
 31 22  1  0  0  0  0
 31 32  1  6  0  0  0
 31 41  1  0  0  0  0
 33 34  1  6  0  0  0
 33 43  1  0  0  0  0
 35 36  1  0  0  0  0
 35 45  1  6  0  0  0
 37 28  1  0  0  0  0
 37 38  1  6  0  0  0
 39 40  1  0  0  0  0
 41 42  1  0  0  0  0
 41 49  1  6  0  0  0
 43 44  1  0  0  0  0
 43 51  1  1  0  0  0
 45 46  1  0  0  0  0
 47 37  1  0  0  0  0
 47 48  1  1  0  0  0
 49 50  1  0  0  0  0
 51 52  1  0  0  0  0
M  END
>  <CHROM.1>
177.26251848,-177.50432946,-162.18935204,-64.76791113,93.22535633,-167.23449520
-176.75971253,162.53724958,51.07245066,-64.36817487,-87.45868699,-179.11716454
2.82661706,-50.49025860,10.00895670,-1.27897973,-0.84784723,-2.09516476

>  <Name>
2fd0_lig

>  <RI>
3.4301e+07

>  <Rbt.Current_Directory>
/home/itssahil/PROJECTS/Mol_Feturizer/New_Systems/rnas/2fd0

>  <Rbt.Executable>
rbdock ($Id: //depot/dev/client3/rdock/2013.1/src/exe/rbdock.cxx#4 $)

>  <Rbt.Library>
libRbt.so (2013.1, Build901 2013/11/27)

>  <Rbt.Parameter_File>
/export/apps/rDock/src/rDock_2013.1_src/data/scripts/dock_solv.prm

>  <Rbt.Receptor>
prm/pocket_docking_7.prm

>  <SCORE>
-24.2318

>  <SCORE.INTER>
-19.1141

>  <SCORE.INTER.CONST>
1

>  <SCORE.INTER.POLAR>
-1.93721

>  <SCORE.INTER.ROT>
12

>  <SCORE.INTER.SOLV>
14.9125

>  <SCORE.INTER.VDW>
-22.8562

>  <SCORE.INTER.norm>
-0.367578

>  <SCORE.INTRA>
-5.11794

>  <SCORE.INTRA.DIHEDRAL>
-12.3155

>  <SCORE.INTRA.DIHEDRAL.0>
23.9727

>  <SCORE.INTRA.POLAR>
0

>  <SCORE.INTRA.POLAR.0>
0

>  <SCORE.INTRA.REPUL>
0

>  <SCORE.INTRA.REPUL.0>
0

>  <SCORE.INTRA.SOLV>
-1.31762

>  <SCORE.INTRA.SOLV.lig_0>
-115.028

>  <SCORE.INTRA.VDW>
1.6986

>  <SCORE.INTRA.VDW.0>
-6.82393

>  <SCORE.INTRA.norm>
-0.098422

>  <SCORE.RESTR>
0.000206704

>  <SCORE.RESTR.CAVITY>
0.000206704

>  <SCORE.RESTR.norm>
3.97508e-06

>  <SCORE.SYSTEM>
0

>  <SCORE.SYSTEM.CONST>
0

>  <SCORE.SYSTEM.DIHEDRAL>
0

>  <SCORE.SYSTEM.SOLV>
0

>  <SCORE.SYSTEM.norm>
0

>  <SCORE.heavy>
52

>  <SCORE.norm>
-0.465996

>  <RMSD>
6.002

$$$$
2fd0_lig
 OpenBabel11021811433D
libRbt.so/2013.1/901 2013/11/27
 52 56  0  0  0  0  0  0  0  0999 V2000
    6.1842  -43.7664   11.5102 C   0  0  2  0  0  0  0  0  0  0  0  0
    7.1421  -44.2456   12.4640 O   0  0  0  0  0  0  0  0  0  0  0  0
    7.6975  -47.9291   14.7036 C   0  0  2  0  0  0  0  0  0  0  0  0
    7.4928  -49.0219   15.6685 N   0  0  0  0  0  0  0  0  0  0  0  0
    5.0947  -47.5962   10.9736 C   0  0  1  0  0  0  0  0  0  0  0  0
    1.8661  -50.2695   10.9418 C   0  0  1  0  0  0  0  0  0  0  0  0
   -1.0156  -54.0620    9.5956 C   0  0  1  0  0  0  0  0  0  0  0  0
    6.7136  -42.4153   10.9054 C   0  0  2  0  0  0  0  0  0  0  0  0
    8.0285  -42.5707   10.2992 N   0  0  0  0  0  0  0  0  0  0  0  0
    7.8137  -46.5357   15.4639 C   0  0  0  0  0  0  0  0  0  0  0  0
    3.7264  -47.9975   11.4937 C   0  0  2  0  0  0  0  0  0  0  0  0
    3.7985  -49.0973   12.4442 O   0  0  0  0  0  0  0  0  0  0  0  0
    2.5045  -51.6992   11.2705 C   0  0  2  0  0  0  0  0  0  0  0  0
    2.7812  -52.4482   10.0145 N   0  0  0  0  0  0  0  0  0  0  0  0
   -0.1210  -55.1311    8.9291 C   0  0  1  0  0  0  0  0  0  0  0  0
    0.1240  -56.1994    9.8770 O   0  0  0  0  0  0  0  0  0  0  0  0
    6.7182  -41.2882   12.0036 C   0  0  0  0  0  0  0  0  0  0  0  0
    8.0476  -45.3489   14.4123 C   0  0  2  0  0  0  0  0  0  0  0  0
    8.1559  -44.0484   15.0897 N   0  0  0  0  0  0  0  0  0  0  0  0
    2.9440  -48.2666   10.2194 C   0  0  2  0  0  0  0  0  0  0  0  0
    2.7212  -49.6381   10.0341 O   0  0  0  0  0  0  0  0  0  0  0  0
    1.5201  -52.4369   12.3183 C   0  0  1  0  0  0  0  0  0  0  0  0
    1.3760  -51.5838   13.4683 O   0  0  0  0  0  0  0  0  0  0  0  0
   -0.6301  -55.7668    7.6071 C   0  0  1  0  0  0  0  0  0  0  0  0
   -1.3467  -56.9627    7.9397 O   0  0  0  0  0  0  0  0  0  0  0  0
    5.2782  -41.1714   12.6015 C   0  0  2  0  0  0  0  0  0  0  0  0
    5.2357  -40.1465   13.5893 O   0  0  0  0  0  0  0  0  0  0  0  0
    6.8697  -45.3271   13.3984 C   0  0  2  0  0  0  0  0  0  0  0  0
    3.8015  -47.8260    9.0091 C   0  0  2  0  0  0  0  0  0  0  0  0
    4.9048  -47.1834    9.6315 O   0  0  0  0  0  0  0  0  0  0  0  0
    0.0363  -52.6413   11.7092 C   0  0  2  0  0  0  0  0  0  0  0  0
    0.2274  -53.5106   10.5772 O   0  0  0  0  0  0  0  0  0  0  0  0
   -1.5344  -54.8732    6.7271 C   0  0  2  0  0  0  0  0  0  0  0  0
   -1.1103  -55.1065    5.3662 O   0  0  0  0  0  0  0  0  0  0  0  0
    4.8679  -42.5328   13.2323 C   0  0  2  0  0  0  0  0  0  0  0  0
    4.9089  -43.5641   12.1720 O   0  0  0  0  0  0  0  0  0  0  0  0
    6.6772  -46.6907   12.6673 C   0  0  2  0  0  0  0  0  0  0  0  0
    5.5324  -46.5574   11.7911 O   0  0  0  0  0  0  0  0  0  0  0  0
    3.1322  -46.8275    8.0713 C   0  0  0  0  0  0  0  0  0  0  0  0
    2.8849  -45.6357    8.8327 O   0  0  0  0  0  0  0  0  0  0  0  0
   -0.3900  -51.2761   11.2034 C   0  0  1  0  0  0  0  0  0  0  0  0
    0.4322  -50.4059   10.3978 O   0  0  0  0  0  0  0  0  0  0  0  0
   -1.4412  -53.4106    7.1534 C   0  0  2  0  0  0  0  0  0  0  0  0
   -1.6467  -53.1759    8.5740 O   0  0  0  0  0  0  0  0  0  0  0  0
    3.4814  -42.4980   13.7923 C   0  0  0  0  0  0  0  0  0  0  0  0
    2.5835  -42.3875   12.7211 O   0  0  0  0  0  0  0  0  0  0  0  0
    6.4642  -47.8415   13.7174 C   0  0  1  0  0  0  0  0  0  0  0  0
    6.3387  -49.1154   12.9957 O   0  0  0  0  0  0  0  0  0  0  0  0
   -1.8062  -51.2814   10.5262 C   0  0  0  0  0  0  0  0  0  0  0  0
   -2.3131  -49.9271   10.1969 N   0  0  0  0  0  0  0  0  0  0  0  0
   -2.2419  -52.3127    6.4567 C   0  0  0  0  0  0  0  0  0  0  0  0
   -3.6656  -52.6408    6.4619 O   0  0  0  0  0  0  0  0  0  0  0  0
  1  2  1  1  0  0  0
  1  8  1  0  0  0  0
  1 36  1  0  0  0  0
  3  4  1  1  0  0  0
  3 10  1  0  0  0  0
  3 47  1  0  0  0  0
  5 11  1  0  0  0  0
  5 30  1  0  0  0  0
  5 38  1  1  0  0  0
  6 21  1  6  0  0  0
  6 42  1  0  0  0  0
  7 15  1  0  0  0  0
  7 44  1  0  0  0  0
  7 32  1  1  0  0  0
  8  9  1  1  0  0  0
  8 17  1  0  0  0  0
 11 12  1  1  0  0  0
 11 20  1  0  0  0  0
 13  6  1  0  0  0  0
 13 14  1  6  0  0  0
 15 16  1  1  0  0  0
 15 24  1  0  0  0  0
 17 26  1  0  0  0  0
 18 10  1  0  0  0  0
 18 19  1  1  0  0  0
 20 21  1  6  0  0  0
 20 29  1  0  0  0  0
 22 13  1  0  0  0  0
 22 23  1  1  0  0  0
 24 25  1  1  0  0  0
 24 33  1  0  0  0  0
 26 27  1  1  0  0  0
 26 35  1  0  0  0  0
 28  2  1  6  0  0  0
 28 18  1  0  0  0  0
 29 30  1  0  0  0  0
 29 39  1  6  0  0  0
 31 22  1  0  0  0  0
 31 32  1  6  0  0  0
 31 41  1  0  0  0  0
 33 34  1  6  0  0  0
 33 43  1  0  0  0  0
 35 36  1  0  0  0  0
 35 45  1  6  0  0  0
 37 28  1  0  0  0  0
 37 38  1  6  0  0  0
 39 40  1  0  0  0  0
 41 42  1  0  0  0  0
 41 49  1  6  0  0  0
 43 44  1  0  0  0  0
 43 51  1  6  0  0  0
 45 46  1  0  0  0  0
 47 37  1  0  0  0  0
 47 48  1  6  0  0  0
 49 50  1  0  0  0  0
 51 52  1  0  0  0  0
M  END
>  <CHROM.1>
167.86853085,114.13088462,-139.80157487,-166.71153134,67.64194437,-169.56446402
62.61540066,178.96796775,68.26868038,179.15775029,172.04177783,54.84731433
2.97128999,-48.71592285,10.99538250,0.73930611,-0.72787605,-0.22089904

>  <Name>
2fd0_lig

>  <RI>
0

>  <Rbt.Current_Directory>
/home/itssahil/PROJECTS/Mol_Feturizer/New_Systems/rnas/2fd0

>  <Rbt.Executable>
rbdock ($Id: //depot/dev/client3/rdock/2013.1/src/exe/rbdock.cxx#4 $)

>  <Rbt.Library>
libRbt.so (2013.1, Build901 2013/11/27)

>  <Rbt.Parameter_File>
/export/apps/rDock/src/rDock_2013.1_src/data/scripts/dock_solv.prm

>  <Rbt.Receptor>
prm/pocket_docking_8.prm

>  <SCORE>
-19.8

>  <SCORE.INTER>
-17.6281

>  <SCORE.INTER.CONST>
1

>  <SCORE.INTER.POLAR>
-1.3661

>  <SCORE.INTER.ROT>
12

>  <SCORE.INTER.SOLV>
17.2509

>  <SCORE.INTER.VDW>
-24.5487

>  <SCORE.INTER.norm>
-0.339002

>  <SCORE.INTRA>
-2.17188

>  <SCORE.INTRA.DIHEDRAL>
-7.06785

>  <SCORE.INTRA.DIHEDRAL.0>
23.9727

>  <SCORE.INTRA.POLAR>
0

>  <SCORE.INTRA.POLAR.0>
0

>  <SCORE.INTRA.REPUL>
0

>  <SCORE.INTRA.REPUL.0>
0

>  <SCORE.INTRA.SOLV>
-2.81274

>  <SCORE.INTRA.SOLV.lig_0>
-115.028

>  <SCORE.INTRA.VDW>
2.76841

>  <SCORE.INTRA.VDW.0>
-6.82393

>  <SCORE.INTRA.norm>
-0.0417669

>  <SCORE.RESTR>
0

>  <SCORE.RESTR.CAVITY>
0

>  <SCORE.RESTR.norm>
0

>  <SCORE.SYSTEM>
0

>  <SCORE.SYSTEM.CONST>
0

>  <SCORE.SYSTEM.DIHEDRAL>
0

>  <SCORE.SYSTEM.SOLV>
0

>  <SCORE.SYSTEM.norm>
0

>  <SCORE.heavy>
52

>  <SCORE.norm>
-0.380769

>  <RMSD>
6.008

$$$$
2fd0_lig
 OpenBabel11021811433D
libRbt.so/2013.1/901 2013/11/27
 52 56  0  0  0  0  0  0  0  0999 V2000
    5.5202  -46.1557   13.1457 C   0  0  2  0  0  0  0  0  0  0  0  0
    6.7628  -46.2782   13.8513 O   0  0  0  0  0  0  0  0  0  0  0  0
    7.9537  -47.6824   17.7886 C   0  0  2  0  0  0  0  0  0  0  0  0
    8.1200  -47.7724   19.2485 N   0  0  0  0  0  0  0  0  0  0  0  0
    4.1827  -48.7785   14.9714 C   0  0  1  0  0  0  0  0  0  0  0  0
    0.4601  -50.0621   12.6559 C   0  0  1  0  0  0  0  0  0  0  0  0
   -1.0103  -53.6964    9.2795 C   0  0  1  0  0  0  0  0  0  0  0  0
    5.8288  -46.0108   11.6110 C   0  0  2  0  0  0  0  0  0  0  0  0
    6.6127  -47.1300   11.1073 N   0  0  0  0  0  0  0  0  0  0  0  0
    8.5342  -46.3016   17.2508 C   0  0  0  0  0  0  0  0  0  0  0  0
    2.7812  -48.3303   14.5994 C   0  0  2  0  0  0  0  0  0  0  0  0
    1.8210  -48.5819   15.6638 O   0  0  0  0  0  0  0  0  0  0  0  0
   -0.2261  -51.5040   12.7533 C   0  0  2  0  0  0  0  0  0  0  0  0
    0.7544  -52.5722   12.4170 N   0  0  0  0  0  0  0  0  0  0  0  0
    0.3666  -54.3946    9.3440 C   0  0  1  0  0  0  0  0  0  0  0  0
    0.7033  -54.6476   10.7306 O   0  0  0  0  0  0  0  0  0  0  0  0
    6.5400  -44.6370   11.3226 C   0  0  0  0  0  0  0  0  0  0  0  0
    8.3620  -46.2106   15.6598 C   0  0  2  0  0  0  0  0  0  0  0  0
    8.8888  -44.9413   15.1371 N   0  0  0  0  0  0  0  0  0  0  0  0
    2.5293  -49.0552   13.2881 C   0  0  2  0  0  0  0  0  0  0  0  0
    1.6107  -50.1017   13.4486 O   0  0  0  0  0  0  0  0  0  0  0  0
   -1.5566  -51.4672   11.8372 C   0  0  1  0  0  0  0  0  0  0  0  0
   -2.3894  -50.3916   12.3069 O   0  0  0  0  0  0  0  0  0  0  0  0
    0.5325  -55.7231    8.5575 C   0  0  1  0  0  0  0  0  0  0  0  0
    0.2440  -56.8049    9.4524 O   0  0  0  0  0  0  0  0  0  0  0  0
    5.6409  -43.4856   11.8800 C   0  0  2  0  0  0  0  0  0  0  0  0
    6.2424  -42.2208   11.6219 O   0  0  0  0  0  0  0  0  0  0  0  0
    6.8564  -46.3526   15.3014 C   0  0  2  0  0  0  0  0  0  0  0  0
    3.8448  -49.7335   12.8364 C   0  0  2  0  0  0  0  0  0  0  0  0
    4.7874  -49.2302   13.7722 O   0  0  0  0  0  0  0  0  0  0  0  0
   -1.2145  -51.1415   10.2909 C   0  0  2  0  0  0  0  0  0  0  0  0
   -0.3984  -52.2473    9.8610 O   0  0  0  0  0  0  0  0  0  0  0  0
   -0.3420  -55.8776    7.2917 C   0  0  2  0  0  0  0  0  0  0  0  0
    0.5116  -56.4860    6.2979 O   0  0  0  0  0  0  0  0  0  0  0  0
    5.4453  -43.6770   13.4113 C   0  0  2  0  0  0  0  0  0  0  0  0
    4.8044  -44.9919   13.6342 O   0  0  0  0  0  0  0  0  0  0  0  0
    6.2247  -47.6654   15.8569 C   0  0  2  0  0  0  0  0  0  0  0  0
    4.8220  -47.6594   15.4988 O   0  0  0  0  0  0  0  0  0  0  0  0
    4.3159  -49.3620   11.4348 C   0  0  0  0  0  0  0  0  0  0  0  0
    3.3534  -49.8948   10.5123 O   0  0  0  0  0  0  0  0  0  0  0  0
   -0.3575  -49.8899   10.3163 C   0  0  1  0  0  0  0  0  0  0  0  0
    0.7679  -49.6837   11.1955 O   0  0  0  0  0  0  0  0  0  0  0  0
   -0.9216  -54.5338    6.8586 C   0  0  2  0  0  0  0  0  0  0  0  0
   -1.5997  -53.7949    7.9120 O   0  0  0  0  0  0  0  0  0  0  0  0
    4.5617  -42.6242   14.0013 C   0  0  0  0  0  0  0  0  0  0  0  0
    3.2978  -42.7341   13.4044 O   0  0  0  0  0  0  0  0  0  0  0  0
    6.4178  -47.7405   17.4157 C   0  0  1  0  0  0  0  0  0  0  0  0
    5.8579  -49.0116   17.8953 O   0  0  0  0  0  0  0  0  0  0  0  0
    0.1190  -49.4369    8.8908 C   0  0  0  0  0  0  0  0  0  0  0  0
   -0.9897  -49.0254    7.9960 N   0  0  0  0  0  0  0  0  0  0  0  0
   -1.8328  -54.4011    5.6404 C   0  0  0  0  0  0  0  0  0  0  0  0
   -3.1314  -55.0148    5.9076 O   0  0  0  0  0  0  0  0  0  0  0  0
  1  2  1  1  0  0  0
  1  8  1  0  0  0  0
  1 36  1  0  0  0  0
  3  4  1  1  0  0  0
  3 10  1  0  0  0  0
  3 47  1  0  0  0  0
  5 11  1  0  0  0  0
  5 30  1  0  0  0  0
  5 38  1  6  0  0  0
  6 21  1  1  0  0  0
  6 42  1  0  0  0  0
  7 15  1  0  0  0  0
  7 44  1  0  0  0  0
  7 32  1  6  0  0  0
  8  9  1  1  0  0  0
  8 17  1  0  0  0  0
 11 12  1  1  0  0  0
 11 20  1  0  0  0  0
 13  6  1  0  0  0  0
 13 14  1  6  0  0  0
 15 16  1  1  0  0  0
 15 24  1  0  0  0  0
 17 26  1  0  0  0  0
 18 10  1  0  0  0  0
 18 19  1  1  0  0  0
 20 21  1  1  0  0  0
 20 29  1  0  0  0  0
 22 13  1  0  0  0  0
 22 23  1  1  0  0  0
 24 25  1  1  0  0  0
 24 33  1  0  0  0  0
 26 27  1  1  0  0  0
 26 35  1  0  0  0  0
 28  2  1  6  0  0  0
 28 18  1  0  0  0  0
 29 30  1  0  0  0  0
 29 39  1  6  0  0  0
 31 22  1  0  0  0  0
 31 32  1  1  0  0  0
 31 41  1  0  0  0  0
 33 34  1  6  0  0  0
 33 43  1  0  0  0  0
 35 36  1  0  0  0  0
 35 45  1  6  0  0  0
 37 28  1  0  0  0  0
 37 38  1  1  0  0  0
 39 40  1  0  0  0  0
 41 42  1  0  0  0  0
 41 49  1  6  0  0  0
 43 44  1  0  0  0  0
 43 51  1  6  0  0  0
 45 46  1  0  0  0  0
 47 37  1  0  0  0  0
 47 48  1  6  0  0  0
 49 50  1  0  0  0  0
 51 52  1  0  0  0  0
M  END
>  <CHROM.1>
176.33732928,-174.26066491,166.34512788,-168.66017132,122.56315579,-169.69290930
-66.58441279,85.70223720,62.09125720,134.69959736,64.55608885,70.27314343
2.86530494,-49.39301009,12.17290493,0.31459739,-0.92822534,-0.51327900

>  <Name>
2fd0_lig

>  <RI>
3.4301e+07

>  <Rbt.Current_Directory>
/home/itssahil/PROJECTS/Mol_Feturizer/New_Systems/rnas/2fd0

>  <Rbt.Executable>
rbdock ($Id: //depot/dev/client3/rdock/2013.1/src/exe/rbdock.cxx#4 $)

>  <Rbt.Library>
libRbt.so (2013.1, Build901 2013/11/27)

>  <Rbt.Parameter_File>
/export/apps/rDock/src/rDock_2013.1_src/data/scripts/dock_solv.prm

>  <Rbt.Receptor>
prm/pocket_docking_7.prm

>  <SCORE>
-10.8409

>  <SCORE.INTER>
-7.78443

>  <SCORE.INTER.CONST>
1

>  <SCORE.INTER.POLAR>
-0.979796

>  <SCORE.INTER.ROT>
12

>  <SCORE.INTER.SOLV>
20.4286

>  <SCORE.INTER.VDW>
-20.3332

>  <SCORE.INTER.norm>
-0.149701

>  <SCORE.INTRA>
-3.05649

>  <SCORE.INTRA.DIHEDRAL>
-3.50036

>  <SCORE.INTRA.DIHEDRAL.0>
23.9727

>  <SCORE.INTRA.POLAR>
0

>  <SCORE.INTRA.POLAR.0>
0

>  <SCORE.INTRA.REPUL>
0

>  <SCORE.INTRA.REPUL.0>
0

>  <SCORE.INTRA.SOLV>
-0.931668

>  <SCORE.INTRA.SOLV.lig_0>
-115.028

>  <SCORE.INTRA.VDW>
-0.840476

>  <SCORE.INTRA.VDW.0>
-6.82393

>  <SCORE.INTRA.norm>
-0.0587786

>  <SCORE.RESTR>
0

>  <SCORE.RESTR.CAVITY>
0

>  <SCORE.RESTR.norm>
0

>  <SCORE.SYSTEM>
0

>  <SCORE.SYSTEM.CONST>
0

>  <SCORE.SYSTEM.DIHEDRAL>
0

>  <SCORE.SYSTEM.SOLV>
0

>  <SCORE.SYSTEM.norm>
0

>  <SCORE.heavy>
52

>  <SCORE.norm>
-0.208479

>  <RMSD>
6.023

$$$$
2fd0_lig
 OpenBabel11021811433D
libRbt.so/2013.1/901 2013/11/27
 52 56  0  0  0  0  0  0  0  0999 V2000
    1.6381  -49.4277   12.0383 C   0  0  2  0  0  0  0  0  0  0  0  0
    1.2946  -48.7570   10.8180 O   0  0  0  0  0  0  0  0  0  0  0  0
    3.8056  -45.2103   10.9092 C   0  0  2  0  0  0  0  0  0  0  0  0
    4.5037  -43.9818   10.4964 N   0  0  0  0  0  0  0  0  0  0  0  0
   -0.5331  -45.7035    9.9188 C   0  0  1  0  0  0  0  0  0  0  0  0
   -2.5745  -47.4380    6.6146 C   0  0  1  0  0  0  0  0  0  0  0  0
   -5.1441  -47.7176    2.4704 C   0  0  1  0  0  0  0  0  0  0  0  0
    0.9087  -50.8201   12.0660 C   0  0  2  0  0  0  0  0  0  0  0  0
    1.2459  -51.6323   10.9052 N   0  0  0  0  0  0  0  0  0  0  0  0
    4.2105  -46.4213    9.9592 C   0  0  0  0  0  0  0  0  0  0  0  0
   -1.1957  -46.9106    9.2805 C   0  0  2  0  0  0  0  0  0  0  0  0
   -0.3278  -47.5707    8.3166 O   0  0  0  0  0  0  0  0  0  0  0  0
   -2.4928  -47.0624    5.0617 C   0  0  2  0  0  0  0  0  0  0  0  0
   -3.4870  -46.0064    4.7273 N   0  0  0  0  0  0  0  0  0  0  0  0
   -6.4138  -46.8861    2.7604 C   0  0  1  0  0  0  0  0  0  0  0  0
   -6.0485  -45.7250    3.5468 O   0  0  0  0  0  0  0  0  0  0  0  0
   -0.6471  -50.6210   12.1939 C   0  0  0  0  0  0  0  0  0  0  0  0
    3.4576  -47.7602   10.4174 C   0  0  2  0  0  0  0  0  0  0  0  0
    3.8128  -48.8953    9.5530 N   0  0  0  0  0  0  0  0  0  0  0  0
   -2.4901  -46.3362    8.7298 C   0  0  2  0  0  0  0  0  0  0  0  0
   -2.4564  -46.2439    7.3316 O   0  0  0  0  0  0  0  0  0  0  0  0
   -2.6309  -48.4381    4.2254 C   0  0  1  0  0  0  0  0  0  0  0  0
   -1.5917  -49.3313    4.6653 O   0  0  0  0  0  0  0  0  0  0  0  0
   -7.2449  -46.4009    1.5418 C   0  0  1  0  0  0  0  0  0  0  0  0
   -6.7913  -45.0867    1.1932 O   0  0  0  0  0  0  0  0  0  0  0  0
   -0.9339  -49.7517   13.4614 C   0  0  2  0  0  0  0  0  0  0  0  0
   -2.3362  -49.5632   13.6235 O   0  0  0  0  0  0  0  0  0  0  0  0
    1.9226  -47.5197   10.3802 C   0  0  2  0  0  0  0  0  0  0  0  0
   -2.6385  -44.8797    9.2309 C   0  0  2  0  0  0  0  0  0  0  0  0
   -1.5647  -44.7607   10.1530 O   0  0  0  0  0  0  0  0  0  0  0  0
   -4.0341  -49.1848    4.5216 C   0  0  2  0  0  0  0  0  0  0  0  0
   -5.0382  -48.2658    4.0518 O   0  0  0  0  0  0  0  0  0  0  0  0
   -7.1912  -47.2963    0.2824 C   0  0  2  0  0  0  0  0  0  0  0  0
   -8.5407  -47.3303   -0.2317 O   0  0  0  0  0  0  0  0  0  0  0  0
   -0.2274  -48.3736   13.3145 C   0  0  2  0  0  0  0  0  0  0  0  0
    1.2252  -48.6130   13.1657 O   0  0  0  0  0  0  0  0  0  0  0  0
    1.4805  -46.3048   11.2517 C   0  0  2  0  0  0  0  0  0  0  0  0
    0.0483  -46.1578   11.0998 O   0  0  0  0  0  0  0  0  0  0  0  0
   -3.9387  -44.5785    9.9679 C   0  0  0  0  0  0  0  0  0  0  0  0
   -3.9505  -45.3928   11.1503 O   0  0  0  0  0  0  0  0  0  0  0  0
   -4.1357  -49.2806    6.0322 C   0  0  1  0  0  0  0  0  0  0  0  0
   -3.8764  -48.1917    6.9428 O   0  0  0  0  0  0  0  0  0  0  0  0
   -6.6293  -48.6760    0.6143 C   0  0  2  0  0  0  0  0  0  0  0  0
   -5.3671  -48.6621    1.3368 O   0  0  0  0  0  0  0  0  0  0  0  0
   -0.4339  -47.5050   14.5145 C   0  0  0  0  0  0  0  0  0  0  0  0
   -1.7898  -47.1521   14.5665 O   0  0  0  0  0  0  0  0  0  0  0  0
    2.2414  -45.0067   10.7948 C   0  0  1  0  0  0  0  0  0  0  0  0
    1.8392  -43.8968   11.6699 O   0  0  0  0  0  0  0  0  0  0  0  0
   -5.4712  -49.9447    6.5219 C   0  0  0  0  0  0  0  0  0  0  0  0
   -5.5861  -51.3803    6.1679 N   0  0  0  0  0  0  0  0  0  0  0  0
   -6.4574  -49.7567   -0.4508 C   0  0  0  0  0  0  0  0  0  0  0  0
   -6.0833  -51.0259    0.1687 O   0  0  0  0  0  0  0  0  0  0  0  0
  1  2  1  6  0  0  0
  1  8  1  0  0  0  0
  1 36  1  0  0  0  0
  3  4  1  6  0  0  0
  3 10  1  0  0  0  0
  3 47  1  0  0  0  0
  5 11  1  0  0  0  0
  5 30  1  0  0  0  0
  5 38  1  1  0  0  0
  6 21  1  1  0  0  0
  6 42  1  0  0  0  0
  7 15  1  0  0  0  0
  7 44  1  0  0  0  0
  7 32  1  1  0  0  0
  8  9  1  6  0  0  0
  8 17  1  0  0  0  0
 11 12  1  6  0  0  0
 11 20  1  0  0  0  0
 13  6  1  0  0  0  0
 13 14  1  6  0  0  0
 15 16  1  6  0  0  0
 15 24  1  0  0  0  0
 17 26  1  0  0  0  0
 18 10  1  0  0  0  0
 18 19  1  6  0  0  0
 20 21  1  6  0  0  0
 20 29  1  0  0  0  0
 22 13  1  0  0  0  0
 22 23  1  1  0  0  0
 24 25  1  6  0  0  0
 24 33  1  0  0  0  0
 26 27  1  6  0  0  0
 26 35  1  0  0  0  0
 28  2  1  1  0  0  0
 28 18  1  0  0  0  0
 29 30  1  0  0  0  0
 29 39  1  1  0  0  0
 31 22  1  0  0  0  0
 31 32  1  1  0  0  0
 31 41  1  0  0  0  0
 33 34  1  1  0  0  0
 33 43  1  0  0  0  0
 35 36  1  0  0  0  0
 35 45  1  1  0  0  0
 37 28  1  0  0  0  0
 37 38  1  6  0  0  0
 39 40  1  0  0  0  0
 41 42  1  0  0  0  0
 41 49  1  6  0  0  0
 43 44  1  0  0  0  0
 43 51  1  6  0  0  0
 45 46  1  0  0  0  0
 47 37  1  0  0  0  0
 47 48  1  1  0  0  0
 49 50  1  0  0  0  0
 51 52  1  0  0  0  0
M  END
>  <CHROM.1>
-171.90114056,107.63739787,-179.45781407,177.99617021,73.82984434,52.43558634
63.17079506,59.30341707,-67.57204131,-70.98305717,66.95987161,-171.98999689
-2.06032122,-47.58278608,7.75704042,0.38648392,0.88458481,2.59500288

>  <Name>
2fd0_lig

>  <RI>
3.4301e+07

>  <Rbt.Current_Directory>
/home/itssahil/PROJECTS/Mol_Feturizer/New_Systems/rnas/2fd0

>  <Rbt.Executable>
rbdock ($Id: //depot/dev/client3/rdock/2013.1/src/exe/rbdock.cxx#4 $)

>  <Rbt.Library>
libRbt.so (2013.1, Build901 2013/11/27)

>  <Rbt.Parameter_File>
/export/apps/rDock/src/rDock_2013.1_src/data/scripts/dock_solv.prm

>  <Rbt.Receptor>
prm/pocket_docking_7.prm

>  <SCORE>
-10.1935

>  <SCORE.INTER>
-3.74512

>  <SCORE.INTER.CONST>
1

>  <SCORE.INTER.POLAR>
-1.78719

>  <SCORE.INTER.ROT>
12

>  <SCORE.INTER.SOLV>
9.74104

>  <SCORE.INTER.VDW>
-11.3865

>  <SCORE.INTER.norm>
-0.0720216

>  <SCORE.INTRA>
-6.44839

>  <SCORE.INTRA.DIHEDRAL>
-13.2373

>  <SCORE.INTRA.DIHEDRAL.0>
23.9727

>  <SCORE.INTRA.POLAR>
0

>  <SCORE.INTRA.POLAR.0>
0

>  <SCORE.INTRA.REPUL>
0

>  <SCORE.INTRA.REPUL.0>
0

>  <SCORE.INTRA.SOLV>
-1.77119

>  <SCORE.INTRA.SOLV.lig_0>
-115.028

>  <SCORE.INTRA.VDW>
1.05584

>  <SCORE.INTRA.VDW.0>
-6.82393

>  <SCORE.INTRA.norm>
-0.124007

>  <SCORE.RESTR>
0

>  <SCORE.RESTR.CAVITY>
0

>  <SCORE.RESTR.norm>
0

>  <SCORE.SYSTEM>
0

>  <SCORE.SYSTEM.CONST>
0

>  <SCORE.SYSTEM.DIHEDRAL>
0

>  <SCORE.SYSTEM.SOLV>
0

>  <SCORE.SYSTEM.norm>
0

>  <SCORE.heavy>
52

>  <SCORE.norm>
-0.196029

>  <RMSD>
6.109

$$$$
2fd0_lig
 OpenBabel11021811433D
libRbt.so/2013.1/901 2013/11/27
 52 56  0  0  0  0  0  0  0  0999 V2000
   -0.1306  -44.5680   14.0697 C   0  0  2  0  0  0  0  0  0  0  0  0
    1.2936  -44.7137   13.9829 O   0  0  0  0  0  0  0  0  0  0  0  0
    4.1846  -44.8637   10.7407 C   0  0  2  0  0  0  0  0  0  0  0  0
    4.9422  -45.3214    9.5645 N   0  0  0  0  0  0  0  0  0  0  0  0
   -0.3488  -45.1610   10.9466 C   0  0  1  0  0  0  0  0  0  0  0  0
   -3.8026  -46.5186    8.2605 C   0  0  1  0  0  0  0  0  0  0  0  0
   -4.1357  -50.5787    5.3036 C   0  0  1  0  0  0  0  0  0  0  0  0
   -0.4805  -43.8835   15.4411 C   0  0  2  0  0  0  0  0  0  0  0  0
    0.1909  -42.6003   15.5938 N   0  0  0  0  0  0  0  0  0  0  0  0
    4.2751  -45.9406   11.9091 C   0  0  0  0  0  0  0  0  0  0  0  0
   -1.5470  -44.6106   10.1949 C   0  0  2  0  0  0  0  0  0  0  0  0
   -2.6890  -44.3836   11.0680 O   0  0  0  0  0  0  0  0  0  0  0  0
   -4.9098  -47.5828    8.7090 C   0  0  2  0  0  0  0  0  0  0  0  0
   -4.2674  -48.8567    9.1332 N   0  0  0  0  0  0  0  0  0  0  0  0
   -4.2763  -51.8007    6.2388 C   0  0  1  0  0  0  0  0  0  0  0  0
   -5.6770  -52.1574    6.3421 O   0  0  0  0  0  0  0  0  0  0  0  0
   -0.1471  -44.8508   16.6368 C   0  0  0  0  0  0  0  0  0  0  0  0
    3.4587  -45.4350   13.1926 C   0  0  2  0  0  0  0  0  0  0  0  0
    3.5242  -46.4144   14.2873 N   0  0  0  0  0  0  0  0  0  0  0  0
   -1.7476  -45.6276    9.0840 C   0  0  2  0  0  0  0  0  0  0  0  0
   -2.8845  -46.4160    9.3094 O   0  0  0  0  0  0  0  0  0  0  0  0
   -5.9744  -47.7089    7.5001 C   0  0  1  0  0  0  0  0  0  0  0  0
   -6.5008  -46.3964    7.2332 O   0  0  0  0  0  0  0  0  0  0  0  0
   -3.4789  -53.0805    5.8682 C   0  0  1  0  0  0  0  0  0  0  0  0
   -4.3343  -53.9221    5.0844 O   0  0  0  0  0  0  0  0  0  0  0  0
   -0.9063  -46.1990   16.4115 C   0  0  2  0  0  0  0  0  0  0  0  0
   -0.6447  -47.0979   17.4846 O   0  0  0  0  0  0  0  0  0  0  0  0
    1.9793  -45.1830   12.7885 C   0  0  2  0  0  0  0  0  0  0  0  0
   -0.5572  -46.6161    9.0963 C   0  0  2  0  0  0  0  0  0  0  0  0
    0.3187  -46.0310   10.0492 O   0  0  0  0  0  0  0  0  0  0  0  0
   -5.2749  -48.2103    6.1313 C   0  0  2  0  0  0  0  0  0  0  0  0
   -4.7807  -49.5272    6.4398 O   0  0  0  0  0  0  0  0  0  0  0  0
   -2.1570  -52.8586    5.0975 C   0  0  2  0  0  0  0  0  0  0  0  0
   -1.2096  -53.7868    5.6695 O   0  0  0  0  0  0  0  0  0  0  0  0
   -0.4486  -46.8320   15.0663 C   0  0  2  0  0  0  0  0  0  0  0  0
   -0.7525  -45.8757   13.9788 O   0  0  0  0  0  0  0  0  0  0  0  0
    1.8395  -44.1763   11.6061 C   0  0  2  0  0  0  0  0  0  0  0  0
    0.4299  -44.0608   11.2966 O   0  0  0  0  0  0  0  0  0  0  0  0
    0.1904  -46.7449    7.7739 C   0  0  0  0  0  0  0  0  0  0  0  0
   -0.6599  -47.4787    6.8796 O   0  0  0  0  0  0  0  0  0  0  0  0
   -4.0899  -47.2879    5.9158 C   0  0  1  0  0  0  0  0  0  0  0  0
   -3.1342  -46.9279    6.9352 O   0  0  0  0  0  0  0  0  0  0  0  0
   -1.7112  -51.4013    5.1820 C   0  0  2  0  0  0  0  0  0  0  0  0
   -2.7316  -50.4301    4.8203 O   0  0  0  0  0  0  0  0  0  0  0  0
   -1.1665  -48.1110   14.7736 C   0  0  0  0  0  0  0  0  0  0  0  0
   -2.5313  -47.8208   14.6364 O   0  0  0  0  0  0  0  0  0  0  0  0
    2.6591  -44.6844   10.3640 C   0  0  1  0  0  0  0  0  0  0  0  0
    2.5464  -43.6876    9.2902 O   0  0  0  0  0  0  0  0  0  0  0  0
   -3.2471  -47.6502    4.6419 C   0  0  0  0  0  0  0  0  0  0  0  0
   -3.9078  -47.2803    3.3667 N   0  0  0  0  0  0  0  0  0  0  0  0
   -0.4393  -50.9039    4.4987 C   0  0  0  0  0  0  0  0  0  0  0  0
   -0.5042  -51.1533    3.0606 O   0  0  0  0  0  0  0  0  0  0  0  0
  1  2  1  1  0  0  0
  1  8  1  0  0  0  0
  1 36  1  0  0  0  0
  3  4  1  6  0  0  0
  3 10  1  0  0  0  0
  3 47  1  0  0  0  0
  5 11  1  0  0  0  0
  5 30  1  0  0  0  0
  5 38  1  6  0  0  0
  6 21  1  1  0  0  0
  6 42  1  0  0  0  0
  7 15  1  0  0  0  0
  7 44  1  0  0  0  0
  7 32  1  1  0  0  0
  8  9  1  1  0  0  0
  8 17  1  0  0  0  0
 11 12  1  1  0  0  0
 11 20  1  0  0  0  0
 13  6  1  0  0  0  0
 13 14  1  6  0  0  0
 15 16  1  6  0  0  0
 15 24  1  0  0  0  0
 17 26  1  0  0  0  0
 18 10  1  0  0  0  0
 18 19  1  1  0  0  0
 20 21  1  1  0  0  0
 20 29  1  0  0  0  0
 22 13  1  0  0  0  0
 22 23  1  6  0  0  0
 24 25  1  6  0  0  0
 24 33  1  0  0  0  0
 26 27  1  1  0  0  0
 26 35  1  0  0  0  0
 28  2  1  1  0  0  0
 28 18  1  0  0  0  0
 29 30  1  0  0  0  0
 29 39  1  6  0  0  0
 31 22  1  0  0  0  0
 31 32  1  1  0  0  0
 31 41  1  0  0  0  0
 33 34  1  1  0  0  0
 33 43  1  0  0  0  0
 35 36  1  0  0  0  0
 35 45  1  6  0  0  0
 37 28  1  0  0  0  0
 37 38  1  6  0  0  0
 39 40  1  0  0  0  0
 41 42  1  0  0  0  0
 41 49  1  6  0  0  0
 43 44  1  0  0  0  0
 43 51  1  6  0  0  0
 45 46  1  0  0  0  0
 47 37  1  0  0  0  0
 47 48  1  6  0  0  0
 49 50  1  0  0  0  0
 51 52  1  0  0  0  0
M  END
>  <CHROM.1>
-173.42282179,-158.34622061,174.07845889,-163.49893712,128.70303694,-170.09624673
-72.63751947,171.90726888,62.82553017,-57.70810258,73.98024232,58.56948931
-1.30335479,-47.36636092,9.56729831,1.12845638,0.32186928,1.14758158

>  <Name>
2fd0_lig

>  <RI>
3.4301e+07

>  <Rbt.Current_Directory>
/home/itssahil/PROJECTS/Mol_Feturizer/New_Systems/rnas/2fd0

>  <Rbt.Executable>
rbdock ($Id: //depot/dev/client3/rdock/2013.1/src/exe/rbdock.cxx#4 $)

>  <Rbt.Library>
libRbt.so (2013.1, Build901 2013/11/27)

>  <Rbt.Parameter_File>
/export/apps/rDock/src/rDock_2013.1_src/data/scripts/dock_solv.prm

>  <Rbt.Receptor>
prm/pocket_docking_7.prm

>  <SCORE>
-10.2844

>  <SCORE.INTER>
-5.07283

>  <SCORE.INTER.CONST>
1

>  <SCORE.INTER.POLAR>
-1.13018

>  <SCORE.INTER.ROT>
12

>  <SCORE.INTER.SOLV>
12.4203

>  <SCORE.INTER.VDW>
-15.3547

>  <SCORE.INTER.norm>
-0.0975545

>  <SCORE.INTRA>
-5.21155

>  <SCORE.INTRA.DIHEDRAL>
-10.0063

>  <SCORE.INTRA.DIHEDRAL.0>
23.9727

>  <SCORE.INTRA.POLAR>
0

>  <SCORE.INTRA.POLAR.0>
0

>  <SCORE.INTRA.REPUL>
0

>  <SCORE.INTRA.REPUL.0>
0

>  <SCORE.INTRA.SOLV>
-2.57996

>  <SCORE.INTRA.SOLV.lig_0>
-115.028

>  <SCORE.INTRA.VDW>
1.08158

>  <SCORE.INTRA.VDW.0>
-6.82393

>  <SCORE.INTRA.norm>
-0.100222

>  <SCORE.RESTR>
0

>  <SCORE.RESTR.CAVITY>
0

>  <SCORE.RESTR.norm>
0

>  <SCORE.SYSTEM>
0

>  <SCORE.SYSTEM.CONST>
0

>  <SCORE.SYSTEM.DIHEDRAL>
0

>  <SCORE.SYSTEM.SOLV>
0

>  <SCORE.SYSTEM.norm>
0

>  <SCORE.heavy>
52

>  <SCORE.norm>
-0.197777

>  <RMSD>
6.171

$$$$
2fd0_lig
 OpenBabel11021811433D
libRbt.so/2013.1/901 2013/11/27
 52 56  0  0  0  0  0  0  0  0999 V2000
    2.7207  -47.3465   13.1254 C   0  0  2  0  0  0  0  0  0  0  0  0
    2.0366  -48.1500   12.1540 O   0  0  0  0  0  0  0  0  0  0  0  0
   -2.0988  -47.9766   13.4809 C   0  0  2  0  0  0  0  0  0  0  0  0
   -3.5631  -48.1244   13.5131 N   0  0  0  0  0  0  0  0  0  0  0  0
    0.2954  -51.5318   12.3574 C   0  0  1  0  0  0  0  0  0  0  0  0
   -0.6570  -51.8482    8.2423 C   0  0  1  0  0  0  0  0  0  0  0  0
    0.7937  -52.8621    3.5971 C   0  0  1  0  0  0  0  0  0  0  0  0
    4.2497  -47.3159   12.7614 C   0  0  2  0  0  0  0  0  0  0  0  0
    4.4762  -46.8179   11.4118 N   0  0  0  0  0  0  0  0  0  0  0  0
   -1.6575  -47.1271   12.2095 C   0  0  0  0  0  0  0  0  0  0  0  0
    0.3533  -50.9543   10.9550 C   0  0  2  0  0  0  0  0  0  0  0  0
   -0.8995  -50.3240   10.5660 O   0  0  0  0  0  0  0  0  0  0  0  0
   -1.7209  -52.7052    7.4097 C   0  0  2  0  0  0  0  0  0  0  0  0
   -1.1640  -54.0439    7.0735 N   0  0  0  0  0  0  0  0  0  0  0  0
   -0.0612  -52.3380    2.4214 C   0  0  1  0  0  0  0  0  0  0  0  0
   -0.2494  -50.9093    2.5746 O   0  0  0  0  0  0  0  0  0  0  0  0
    4.8891  -48.7398   12.9618 C   0  0  0  0  0  0  0  0  0  0  0  0
   -0.0637  -46.9580   12.1826 C   0  0  2  0  0  0  0  0  0  0  0  0
    0.3711  -46.1780   11.0145 N   0  0  0  0  0  0  0  0  0  0  0  0
    0.7915  -52.1427   10.1158 C   0  0  2  0  0  0  0  0  0  0  0  0
   -0.2611  -52.6318    9.3299 O   0  0  0  0  0  0  0  0  0  0  0  0
   -2.1821  -51.8065    6.1485 C   0  0  1  0  0  0  0  0  0  0  0  0
   -2.7019  -50.5639    6.6551 O   0  0  0  0  0  0  0  0  0  0  0  0
    0.4605  -52.6041    0.9833 C   0  0  1  0  0  0  0  0  0  0  0  0
    1.2317  -51.4667    0.5759 O   0  0  0  0  0  0  0  0  0  0  0  0
    4.6160  -49.2048   14.4294 C   0  0  2  0  0  0  0  0  0  0  0  0
    5.1961  -50.4853   14.6574 O   0  0  0  0  0  0  0  0  0  0  0  0
    0.5975  -48.3645   12.1625 C   0  0  2  0  0  0  0  0  0  0  0  0
    1.1673  -53.3067   11.0636 C   0  0  2  0  0  0  0  0  0  0  0  0
    1.1071  -52.6932   12.3433 O   0  0  0  0  0  0  0  0  0  0  0  0
   -0.9354  -51.4268    5.1914 C   0  0  2  0  0  0  0  0  0  0  0  0
   -0.4612  -52.6933    4.6967 O   0  0  0  0  0  0  0  0  0  0  0  0
    1.3156  -53.8784    0.7952 C   0  0  2  0  0  0  0  0  0  0  0  0
    0.8871  -54.4563   -0.4573 O   0  0  0  0  0  0  0  0  0  0  0  0
    3.0813  -49.2669   14.6753 C   0  0  2  0  0  0  0  0  0  0  0  0
    2.5216  -47.9167   14.4447 O   0  0  0  0  0  0  0  0  0  0  0  0
    0.1513  -49.2584   13.3595 C   0  0  2  0  0  0  0  0  0  0  0  0
    0.7947  -50.5462   13.2050 O   0  0  0  0  0  0  0  0  0  0  0  0
    2.5697  -53.8724   10.8690 C   0  0  0  0  0  0  0  0  0  0  0  0
    2.6283  -54.4025    9.5360 O   0  0  0  0  0  0  0  0  0  0  0  0
    0.1209  -50.8404    6.1089 C   0  0  1  0  0  0  0  0  0  0  0  0
    0.5333  -51.4227    7.3631 O   0  0  0  0  0  0  0  0  0  0  0  0
    1.1640  -54.8210    1.9861 C   0  0  2  0  0  0  0  0  0  0  0  0
    1.3747  -54.2007    3.2846 O   0  0  0  0  0  0  0  0  0  0  0  0
    2.7523  -49.6722   16.0770 C   0  0  0  0  0  0  0  0  0  0  0  0
    1.3576  -49.6499   16.2190 O   0  0  0  0  0  0  0  0  0  0  0  0
   -1.4149  -49.3986   13.3748 C   0  0  1  0  0  0  0  0  0  0  0  0
   -1.8007  -50.2023   14.5430 O   0  0  0  0  0  0  0  0  0  0  0  0
    1.4431  -50.4477    5.3593 C   0  0  0  0  0  0  0  0  0  0  0  0
    2.4758  -49.8572    6.2447 N   0  0  0  0  0  0  0  0  0  0  0  0
    1.9089  -56.1518    2.0640 C   0  0  0  0  0  0  0  0  0  0  0  0
    1.4754  -56.9091    3.2358 O   0  0  0  0  0  0  0  0  0  0  0  0
  1  2  1  6  0  0  0
  1  8  1  0  0  0  0
  1 36  1  0  0  0  0
  3  4  1  6  0  0  0
  3 10  1  0  0  0  0
  3 47  1  0  0  0  0
  5 11  1  0  0  0  0
  5 30  1  0  0  0  0
  5 38  1  1  0  0  0
  6 21  1  1  0  0  0
  6 42  1  0  0  0  0
  7 15  1  0  0  0  0
  7 44  1  0  0  0  0
  7 32  1  1  0  0  0
  8  9  1  6  0  0  0
  8 17  1  0  0  0  0
 11 12  1  6  0  0  0
 11 20  1  0  0  0  0
 13  6  1  0  0  0  0
 13 14  1  6  0  0  0
 15 16  1  1  0  0  0
 15 24  1  0  0  0  0
 17 26  1  0  0  0  0
 18 10  1  0  0  0  0
 18 19  1  6  0  0  0
 20 21  1  6  0  0  0
 20 29  1  0  0  0  0
 22 13  1  0  0  0  0
 22 23  1  1  0  0  0
 24 25  1  1  0  0  0
 24 33  1  0  0  0  0
 26 27  1  6  0  0  0
 26 35  1  0  0  0  0
 28  2  1  1  0  0  0
 28 18  1  0  0  0  0
 29 30  1  0  0  0  0
 29 39  1  6  0  0  0
 31 22  1  0  0  0  0
 31 32  1  1  0  0  0
 31 41  1  0  0  0  0
 33 34  1  6  0  0  0
 33 43  1  0  0  0  0
 35 36  1  0  0  0  0
 35 45  1  1  0  0  0
 37 28  1  0  0  0  0
 37 38  1  6  0  0  0
 39 40  1  0  0  0  0
 41 42  1  0  0  0  0
 41 49  1  6  0  0  0
 43 44  1  0  0  0  0
 43 51  1  6  0  0  0
 45 46  1  0  0  0  0
 47 37  1  0  0  0  0
 47 48  1  1  0  0  0
 49 50  1  0  0  0  0
 51 52  1  0  0  0  0
M  END
>  <CHROM.1>
-178.20284087,62.66557141,172.66002545,-72.58540785,71.99959794,53.92045128
-62.08271091,177.25180353,177.72565475,-81.44207350,179.25367521,-174.13844135
0.81658660,-50.97748612,9.03133101,-1.48598560,0.45436485,-1.99492677

>  <Name>
2fd0_lig

>  <RI>
0

>  <Rbt.Current_Directory>
/home/itssahil/PROJECTS/Mol_Feturizer/New_Systems/rnas/2fd0

>  <Rbt.Executable>
rbdock ($Id: //depot/dev/client3/rdock/2013.1/src/exe/rbdock.cxx#4 $)

>  <Rbt.Library>
libRbt.so (2013.1, Build901 2013/11/27)

>  <Rbt.Parameter_File>
/export/apps/rDock/src/rDock_2013.1_src/data/scripts/dock_solv.prm

>  <Rbt.Receptor>
prm/pocket_docking_8.prm

>  <SCORE>
-16.3993

>  <SCORE.INTER>
-9.17105

>  <SCORE.INTER.CONST>
1

>  <SCORE.INTER.POLAR>
-0.938083

>  <SCORE.INTER.ROT>
12

>  <SCORE.INTER.SOLV>
11.9297

>  <SCORE.INTER.VDW>
-18.5636

>  <SCORE.INTER.norm>
-0.176366

>  <SCORE.INTRA>
-7.22829

>  <SCORE.INTRA.DIHEDRAL>
-18.0739

>  <SCORE.INTRA.DIHEDRAL.0>
23.9727

>  <SCORE.INTRA.POLAR>
0

>  <SCORE.INTRA.POLAR.0>
0

>  <SCORE.INTRA.REPUL>
0

>  <SCORE.INTRA.REPUL.0>
0

>  <SCORE.INTRA.SOLV>
-2.82922

>  <SCORE.INTRA.SOLV.lig_0>
-115.028

>  <SCORE.INTRA.VDW>
3.22328

>  <SCORE.INTRA.VDW.0>
-6.82393

>  <SCORE.INTRA.norm>
-0.139006

>  <SCORE.RESTR>
0

>  <SCORE.RESTR.CAVITY>
0

>  <SCORE.RESTR.norm>
0

>  <SCORE.SYSTEM>
0

>  <SCORE.SYSTEM.CONST>
0

>  <SCORE.SYSTEM.DIHEDRAL>
0

>  <SCORE.SYSTEM.SOLV>
0

>  <SCORE.SYSTEM.norm>
0

>  <SCORE.heavy>
52

>  <SCORE.norm>
-0.315372

>  <RMSD>
6.216

$$$$
2fd0_lig
 OpenBabel11021811433D
libRbt.so/2013.1/901 2013/11/27
 52 56  0  0  0  0  0  0  0  0999 V2000
    3.1415  -43.1690   12.5792 C   0  0  2  0  0  0  0  0  0  0  0  0
    3.8379  -43.9966   13.5211 O   0  0  0  0  0  0  0  0  0  0  0  0
    7.9515  -43.9085   12.1199 C   0  0  2  0  0  0  0  0  0  0  0  0
    9.3854  -44.2093   11.9767 N   0  0  0  0  0  0  0  0  0  0  0  0
    4.8863  -46.8683   10.5935 C   0  0  1  0  0  0  0  0  0  0  0  0
    3.5470  -50.5735    9.3780 C   0  0  1  0  0  0  0  0  0  0  0  0
    2.7254  -54.4040    6.7563 C   0  0  1  0  0  0  0  0  0  0  0  0
    2.9747  -41.7349   13.2013 C   0  0  2  0  0  0  0  0  0  0  0  0
    4.2569  -41.1506   13.5692 N   0  0  0  0  0  0  0  0  0  0  0  0
    7.6305  -43.4449   13.6081 C   0  0  0  0  0  0  0  0  0  0  0  0
    3.9140  -48.0213   10.7631 C   0  0  2  0  0  0  0  0  0  0  0  0
    4.5465  -49.1947   11.3472 O   0  0  0  0  0  0  0  0  0  0  0  0
    4.2545  -51.7226    8.5187 C   0  0  2  0  0  0  0  0  0  0  0  0
    3.8599  -51.6213    7.0872 N   0  0  0  0  0  0  0  0  0  0  0  0
    1.5764  -54.2527    5.7342 C   0  0  1  0  0  0  0  0  0  0  0  0
    1.5698  -52.8945    5.2289 O   0  0  0  0  0  0  0  0  0  0  0  0
    1.9925  -41.7817   14.4300 C   0  0  0  0  0  0  0  0  0  0  0  0
    6.0707  -43.1073   13.7587 C   0  0  2  0  0  0  0  0  0  0  0  0
    5.7466  -42.6783   15.1272 N   0  0  0  0  0  0  0  0  0  0  0  0
    3.3460  -48.1955    9.3647 C   0  0  2  0  0  0  0  0  0  0  0  0
    3.8366  -49.3573    8.7528 O   0  0  0  0  0  0  0  0  0  0  0  0
    3.9224  -53.1328    9.2342 C   0  0  1  0  0  0  0  0  0  0  0  0
    4.3794  -53.0579   10.5967 O   0  0  0  0  0  0  0  0  0  0  0  0
    1.5682  -55.2192    4.5189 C   0  0  1  0  0  0  0  0  0  0  0  0
    2.2532  -54.5745    3.4375 O   0  0  0  0  0  0  0  0  0  0  0  0
    0.6395  -42.4092   13.9606 C   0  0  2  0  0  0  0  0  0  0  0  0
   -0.2859  -42.4527   15.0423 O   0  0  0  0  0  0  0  0  0  0  0  0
    5.2387  -44.3647   13.3814 C   0  0  2  0  0  0  0  0  0  0  0  0
    3.8428  -47.0278    8.4792 C   0  0  2  0  0  0  0  0  0  0  0  0
    4.4881  -46.1814    9.4198 O   0  0  0  0  0  0  0  0  0  0  0  0
    2.3318  -53.4159    9.2981 C   0  0  2  0  0  0  0  0  0  0  0  0
    1.9243  -53.4997    7.9195 O   0  0  0  0  0  0  0  0  0  0  0  0
    2.2030  -56.6096    4.7518 C   0  0  2  0  0  0  0  0  0  0  0  0
    1.3370  -57.5525    4.0828 O   0  0  0  0  0  0  0  0  0  0  0  0
    0.8945  -43.8465   13.4231 C   0  0  2  0  0  0  0  0  0  0  0  0
    1.8453  -43.7550   12.2931 O   0  0  0  0  0  0  0  0  0  0  0  0
    5.5595  -44.8938   11.9503 C   0  0  2  0  0  0  0  0  0  0  0  0
    4.7611  -46.0824   11.7361 O   0  0  0  0  0  0  0  0  0  0  0  0
    2.7445  -46.2271    7.7886 C   0  0  0  0  0  0  0  0  0  0  0  0
    1.9284  -47.1649    7.0703 O   0  0  0  0  0  0  0  0  0  0  0  0
    1.7186  -52.1696    9.9082 C   0  0  1  0  0  0  0  0  0  0  0  0
    2.0326  -50.8197    9.5066 O   0  0  0  0  0  0  0  0  0  0  0  0
    2.3760  -56.8906    6.2420 C   0  0  2  0  0  0  0  0  0  0  0  0
    3.0559  -55.8412    6.9848 O   0  0  0  0  0  0  0  0  0  0  0  0
   -0.3594  -44.4908   12.9234 C   0  0  0  0  0  0  0  0  0  0  0  0
   -0.8311  -43.7384   11.8385 O   0  0  0  0  0  0  0  0  0  0  0  0
    7.0956  -45.2043   11.8208 C   0  0  1  0  0  0  0  0  0  0  0  0
    7.3681  -45.6499   10.4472 O   0  0  0  0  0  0  0  0  0  0  0  0
    0.1536  -52.2368   10.0117 C   0  0  0  0  0  0  0  0  0  0  0  0
   -0.3407  -53.3813   10.8148 N   0  0  0  0  0  0  0  0  0  0  0  0
    2.9905  -58.1916    6.7536 C   0  0  0  0  0  0  0  0  0  0  0  0
    4.2950  -58.4153    6.1349 O   0  0  0  0  0  0  0  0  0  0  0  0
  1  2  1  1  0  0  0
  1  8  1  0  0  0  0
  1 36  1  0  0  0  0
  3  4  1  1  0  0  0
  3 10  1  0  0  0  0
  3 47  1  0  0  0  0
  5 11  1  0  0  0  0
  5 30  1  0  0  0  0
  5 38  1  1  0  0  0
  6 21  1  6  0  0  0
  6 42  1  0  0  0  0
  7 15  1  0  0  0  0
  7 44  1  0  0  0  0
  7 32  1  1  0  0  0
  8  9  1  1  0  0  0
  8 17  1  0  0  0  0
 11 12  1  6  0  0  0
 11 20  1  0  0  0  0
 13  6  1  0  0  0  0
 13 14  1  6  0  0  0
 15 16  1  6  0  0  0
 15 24  1  0  0  0  0
 17 26  1  0  0  0  0
 18 10  1  0  0  0  0
 18 19  1  1  0  0  0
 20 21  1  6  0  0  0
 20 29  1  0  0  0  0
 22 13  1  0  0  0  0
 22 23  1  1  0  0  0
 24 25  1  6  0  0  0
 24 33  1  0  0  0  0
 26 27  1  1  0  0  0
 26 35  1  0  0  0  0
 28  2  1  6  0  0  0
 28 18  1  0  0  0  0
 29 30  1  0  0  0  0
 29 39  1  1  0  0  0
 31 22  1  0  0  0  0
 31 32  1  6  0  0  0
 31 41  1  0  0  0  0
 33 34  1  1  0  0  0
 33 43  1  0  0  0  0
 35 36  1  0  0  0  0
 35 45  1  6  0  0  0
 37 28  1  0  0  0  0
 37 38  1  1  0  0  0
 39 40  1  0  0  0  0
 41 42  1  0  0  0  0
 41 49  1  6  0  0  0
 43 44  1  0  0  0  0
 43 51  1  6  0  0  0
 45 46  1  0  0  0  0
 47 37  1  0  0  0  0
 47 48  1  6  0  0  0
 49 50  1  0  0  0  0
 51 52  1  0  0  0  0
M  END
>  <CHROM.1>
-104.32573670,178.66834010,-178.07321759,168.10230543,61.13861995,75.09911263
-53.62704028,47.34464567,63.00174360,-174.73675784,58.51977236,53.92846936
3.28404979,-48.79085357,9.94579820,1.46187733,0.04287698,0.51573871

>  <Name>
2fd0_lig

>  <RI>
0

>  <Rbt.Current_Directory>
/home/itssahil/PROJECTS/Mol_Feturizer/New_Systems/rnas/2fd0

>  <Rbt.Executable>
rbdock ($Id: //depot/dev/client3/rdock/2013.1/src/exe/rbdock.cxx#4 $)

>  <Rbt.Library>
libRbt.so (2013.1, Build901 2013/11/27)

>  <Rbt.Parameter_File>
/export/apps/rDock/src/rDock_2013.1_src/data/scripts/dock_solv.prm

>  <Rbt.Receptor>
prm/pocket_docking_8.prm

>  <SCORE>
-16.9509

>  <SCORE.INTER>
-15.6085

>  <SCORE.INTER.CONST>
1

>  <SCORE.INTER.POLAR>
-2.11766

>  <SCORE.INTER.ROT>
12

>  <SCORE.INTER.SOLV>
19.4611

>  <SCORE.INTER.VDW>
-21.4339

>  <SCORE.INTER.norm>
-0.300164

>  <SCORE.INTRA>
-1.36866

>  <SCORE.INTRA.DIHEDRAL>
-13.3105

>  <SCORE.INTRA.DIHEDRAL.0>
23.9727

>  <SCORE.INTRA.POLAR>
0

>  <SCORE.INTRA.POLAR.0>
0

>  <SCORE.INTRA.REPUL>
0

>  <SCORE.INTRA.REPUL.0>
0

>  <SCORE.INTRA.SOLV>
2.2455

>  <SCORE.INTRA.SOLV.lig_0>
-115.028

>  <SCORE.INTRA.VDW>
4.16386

>  <SCORE.INTRA.VDW.0>
-6.82393

>  <SCORE.INTRA.norm>
-0.0263204

>  <SCORE.RESTR>
0.0263115

>  <SCORE.RESTR.CAVITY>
0.0263115

>  <SCORE.RESTR.norm>
0.000505991

>  <SCORE.SYSTEM>
0

>  <SCORE.SYSTEM.CONST>
0

>  <SCORE.SYSTEM.DIHEDRAL>
0

>  <SCORE.SYSTEM.SOLV>
0

>  <SCORE.SYSTEM.norm>
0

>  <SCORE.heavy>
52

>  <SCORE.norm>
-0.325978

>  <RMSD>
6.335

$$$$
2fd0_lig
 OpenBabel11021811433D
libRbt.so/2013.1/901 2013/11/27
 52 56  0  0  0  0  0  0  0  0999 V2000
    6.3810  -43.8636   13.7270 C   0  0  2  0  0  0  0  0  0  0  0  0
    6.5852  -45.2432   13.3925 O   0  0  0  0  0  0  0  0  0  0  0  0
    7.8775  -48.8936   15.3667 C   0  0  2  0  0  0  0  0  0  0  0  0
    8.0202  -49.9677   16.3632 N   0  0  0  0  0  0  0  0  0  0  0  0
    4.1487  -48.5819   12.7353 C   0  0  1  0  0  0  0  0  0  0  0  0
    0.2581  -49.9558   10.7448 C   0  0  1  0  0  0  0  0  0  0  0  0
    0.3030  -53.6376    8.4994 C   0  0  1  0  0  0  0  0  0  0  0  0
    4.8346  -43.5847   13.7761 C   0  0  2  0  0  0  0  0  0  0  0  0
    4.1549  -44.4618   14.7192 N   0  0  0  0  0  0  0  0  0  0  0  0
    8.2577  -47.4888   16.0109 C   0  0  0  0  0  0  0  0  0  0  0  0
    2.6721  -48.2589   12.8730 C   0  0  2  0  0  0  0  0  0  0  0  0
    2.0732  -48.9004   14.0340 O   0  0  0  0  0  0  0  0  0  0  0  0
   -0.7691  -50.9813   11.4175 C   0  0  2  0  0  0  0  0  0  0  0  0
   -0.0810  -52.2531   11.7700 N   0  0  0  0  0  0  0  0  0  0  0  0
    0.1403  -55.0055    9.1995 C   0  0  1  0  0  0  0  0  0  0  0  0
   -0.9775  -55.7103    8.6048 O   0  0  0  0  0  0  0  0  0  0  0  0
    4.2114  -43.6988   12.3356 C   0  0  0  0  0  0  0  0  0  0  0  0
    8.1123  -46.3223   14.9211 C   0  0  2  0  0  0  0  0  0  0  0  0
    8.4556  -45.0117   15.4922 N   0  0  0  0  0  0  0  0  0  0  0  0
    2.1082  -48.6638   11.5215 C   0  0  2  0  0  0  0  0  0  0  0  0
    1.3463  -49.8367   11.6140 O   0  0  0  0  0  0  0  0  0  0  0  0
   -2.0297  -51.1262   10.4171 C   0  0  1  0  0  0  0  0  0  0  0  0
   -2.5757  -49.8129   10.1977 O   0  0  0  0  0  0  0  0  0  0  0  0
    1.3659  -55.9589    9.2005 C   0  0  1  0  0  0  0  0  0  0  0  0
    1.2493  -56.8288    8.0674 O   0  0  0  0  0  0  0  0  0  0  0  0
    4.9812  -42.7268   11.3831 C   0  0  2  0  0  0  0  0  0  0  0  0
    4.4341  -42.7868   10.0696 O   0  0  0  0  0  0  0  0  0  0  0  0
    6.6539  -46.3060   14.3840 C   0  0  2  0  0  0  0  0  0  0  0  0
    3.2841  -49.0150   10.5790 C   0  0  2  0  0  0  0  0  0  0  0  0
    4.4172  -48.6314   11.3449 O   0  0  0  0  0  0  0  0  0  0  0  0
   -1.5866  -51.6875    8.9670 C   0  0  2  0  0  0  0  0  0  0  0  0
   -1.0651  -53.0032    9.2331 O   0  0  0  0  0  0  0  0  0  0  0  0
    2.7549  -55.2806    9.1663 C   0  0  2  0  0  0  0  0  0  0  0  0
    3.5812  -56.0337   10.0810 O   0  0  0  0  0  0  0  0  0  0  0  0
    6.4860  -43.1197   11.3488 C   0  0  2  0  0  0  0  0  0  0  0  0
    7.0185  -43.0285   12.7263 O   0  0  0  0  0  0  0  0  0  0  0  0
    6.2126  -47.6798   13.7933 C   0  0  2  0  0  0  0  0  0  0  0  0
    4.8338  -47.5499   13.3714 O   0  0  0  0  0  0  0  0  0  0  0  0
    3.3115  -48.2442    9.2639 C   0  0  0  0  0  0  0  0  0  0  0  0
    1.9883  -48.3093    8.7105 O   0  0  0  0  0  0  0  0  0  0  0  0
   -0.4441  -50.7974    8.5154 C   0  0  1  0  0  0  0  0  0  0  0  0
    0.6796  -50.4229    9.3395 O   0  0  0  0  0  0  0  0  0  0  0  0
    2.6501  -53.7988    9.5168 C   0  0  2  0  0  0  0  0  0  0  0  0
    1.6558  -53.0611    8.7536 O   0  0  0  0  0  0  0  0  0  0  0  0
    7.2870  -42.2028   10.4800 C   0  0  0  0  0  0  0  0  0  0  0  0
    8.6101  -42.6663   10.4639 O   0  0  0  0  0  0  0  0  0  0  0  0
    6.3771  -48.8104   14.8737 C   0  0  1  0  0  0  0  0  0  0  0  0
    6.0022  -50.0951   14.2666 O   0  0  0  0  0  0  0  0  0  0  0  0
    0.1586  -51.2195    7.1287 C   0  0  0  0  0  0  0  0  0  0  0  0
   -0.7240  -50.9104    5.9777 N   0  0  0  0  0  0  0  0  0  0  0  0
    3.8743  -52.8865    9.5473 C   0  0  0  0  0  0  0  0  0  0  0  0
    4.5026  -52.8347    8.2293 O   0  0  0  0  0  0  0  0  0  0  0  0
  1  2  1  6  0  0  0
  1  8  1  0  0  0  0
  1 36  1  0  0  0  0
  3  4  1  1  0  0  0
  3 10  1  0  0  0  0
  3 47  1  0  0  0  0
  5 11  1  0  0  0  0
  5 30  1  0  0  0  0
  5 38  1  1  0  0  0
  6 21  1  1  0  0  0
  6 42  1  0  0  0  0
  7 15  1  0  0  0  0
  7 44  1  0  0  0  0
  7 32  1  1  0  0  0
  8  9  1  1  0  0  0
  8 17  1  0  0  0  0
 11 12  1  1  0  0  0
 11 20  1  0  0  0  0
 13  6  1  0  0  0  0
 13 14  1  6  0  0  0
 15 16  1  6  0  0  0
 15 24  1  0  0  0  0
 17 26  1  0  0  0  0
 18 10  1  0  0  0  0
 18 19  1  1  0  0  0
 20 21  1  1  0  0  0
 20 29  1  0  0  0  0
 22 13  1  0  0  0  0
 22 23  1  6  0  0  0
 24 25  1  6  0  0  0
 24 33  1  0  0  0  0
 26 27  1  6  0  0  0
 26 35  1  0  0  0  0
 28  2  1  6  0  0  0
 28 18  1  0  0  0  0
 29 30  1  0  0  0  0
 29 39  1  6  0  0  0
 31 22  1  0  0  0  0
 31 32  1  1  0  0  0
 31 41  1  0  0  0  0
 33 34  1  1  0  0  0
 33 43  1  0  0  0  0
 35 36  1  0  0  0  0
 35 45  1  6  0  0  0
 37 28  1  0  0  0  0
 37 38  1  1  0  0  0
 39 40  1  0  0  0  0
 41 42  1  0  0  0  0
 41 49  1  6  0  0  0
 43 44  1  0  0  0  0
 43 51  1  6  0  0  0
 45 46  1  0  0  0  0
 47 37  1  0  0  0  0
 47 48  1  6  0  0  0
 49 50  1  0  0  0  0
 51 52  1  0  0  0  0
M  END
>  <CHROM.1>
-88.52715895,161.60245630,-156.29756160,-176.70874811,147.40696143,-83.17437695
-47.96709370,-139.17631887,-177.46068884,176.75779871,72.51043510,60.91813362
3.33722956,-49.19759460,11.27855835,0.79754406,-0.68393539,-0.08684675

>  <Name>
2fd0_lig

>  <RI>
3.4301e+07

>  <Rbt.Current_Directory>
/home/itssahil/PROJECTS/Mol_Feturizer/New_Systems/rnas/2fd0

>  <Rbt.Executable>
rbdock ($Id: //depot/dev/client3/rdock/2013.1/src/exe/rbdock.cxx#4 $)

>  <Rbt.Library>
libRbt.so (2013.1, Build901 2013/11/27)

>  <Rbt.Parameter_File>
/export/apps/rDock/src/rDock_2013.1_src/data/scripts/dock_solv.prm

>  <Rbt.Receptor>
prm/pocket_docking_7.prm

>  <SCORE>
-10.8846

>  <SCORE.INTER>
-11.9056

>  <SCORE.INTER.CONST>
1

>  <SCORE.INTER.POLAR>
-1.73604

>  <SCORE.INTER.ROT>
12

>  <SCORE.INTER.SOLV>
12.9288

>  <SCORE.INTER.VDW>
-18.0599

>  <SCORE.INTER.norm>
-0.228954

>  <SCORE.INTRA>
1.02095

>  <SCORE.INTRA.DIHEDRAL>
-2.46236

>  <SCORE.INTRA.DIHEDRAL.0>
23.9727

>  <SCORE.INTRA.POLAR>
0

>  <SCORE.INTRA.POLAR.0>
0

>  <SCORE.INTRA.REPUL>
0

>  <SCORE.INTRA.REPUL.0>
0

>  <SCORE.INTRA.SOLV>
0.286835

>  <SCORE.INTRA.SOLV.lig_0>
-115.028

>  <SCORE.INTRA.VDW>
2.10871

>  <SCORE.INTRA.VDW.0>
-6.82393

>  <SCORE.INTRA.norm>
0.0196337

>  <SCORE.RESTR>
0

>  <SCORE.RESTR.CAVITY>
0

>  <SCORE.RESTR.norm>
0

>  <SCORE.SYSTEM>
0

>  <SCORE.SYSTEM.CONST>
0

>  <SCORE.SYSTEM.DIHEDRAL>
0

>  <SCORE.SYSTEM.SOLV>
0

>  <SCORE.SYSTEM.norm>
0

>  <SCORE.heavy>
52

>  <SCORE.norm>
-0.20932

>  <RMSD>
6.371

$$$$
2fd0_lig
 OpenBabel11021811433D
libRbt.so/2013.1/901 2013/11/27
 52 56  0  0  0  0  0  0  0  0999 V2000
    4.9377  -44.4842   12.9440 C   0  0  2  0  0  0  0  0  0  0  0  0
    4.0676  -44.5992   14.0783 O   0  0  0  0  0  0  0  0  0  0  0  0
   -0.2065  -44.5966   14.8683 C   0  0  2  0  0  0  0  0  0  0  0  0
   -1.6154  -44.1745   14.9311 N   0  0  0  0  0  0  0  0  0  0  0  0
    2.5770  -46.3460   11.2553 C   0  0  1  0  0  0  0  0  0  0  0  0
    0.6758  -49.7153    8.9074 C   0  0  1  0  0  0  0  0  0  0  0  0
    0.9002  -54.7813    7.2863 C   0  0  1  0  0  0  0  0  0  0  0  0
    6.3117  -45.1617   13.2971 C   0  0  2  0  0  0  0  0  0  0  0  0
    6.1445  -46.5528   13.6942 N   0  0  0  0  0  0  0  0  0  0  0  0
    0.7199  -43.5414   15.6175 C   0  0  0  0  0  0  0  0  0  0  0  0
    1.2683  -47.0168   10.8798 C   0  0  2  0  0  0  0  0  0  0  0  0
    0.8338  -47.9781   11.8823 O   0  0  0  0  0  0  0  0  0  0  0  0
    0.4585  -51.0360    9.7837 C   0  0  2  0  0  0  0  0  0  0  0  0
    1.7508  -51.7461    9.9863 N   0  0  0  0  0  0  0  0  0  0  0  0
   -0.1135  -55.1828    8.3812 C   0  0  1  0  0  0  0  0  0  0  0  0
   -1.4321  -54.7219    7.9957 O   0  0  0  0  0  0  0  0  0  0  0  0
    7.0609  -44.3348   14.4069 C   0  0  0  0  0  0  0  0  0  0  0  0
    2.2520  -44.0087   15.5574 C   0  0  2  0  0  0  0  0  0  0  0  0
    3.1307  -43.0483   16.2411 N   0  0  0  0  0  0  0  0  0  0  0  0
    1.5584  -47.5781    9.4980 C   0  0  2  0  0  0  0  0  0  0  0  0
    1.6854  -48.9738    9.5276 O   0  0  0  0  0  0  0  0  0  0  0  0
   -0.7064  -51.9003    9.0716 C   0  0  1  0  0  0  0  0  0  0  0  0
   -1.8765  -51.0689    8.9692 O   0  0  0  0  0  0  0  0  0  0  0  0
   -0.2160  -56.6893    8.7432 C   0  0  1  0  0  0  0  0  0  0  0  0
   -1.2590  -57.2648    7.9463 O   0  0  0  0  0  0  0  0  0  0  0  0
    7.2125  -42.8601   13.9099 C   0  0  2  0  0  0  0  0  0  0  0  0
    7.9039  -42.0808   14.8810 O   0  0  0  0  0  0  0  0  0  0  0  0
    2.6802  -44.1608   14.0711 C   0  0  2  0  0  0  0  0  0  0  0  0
    2.9366  -47.0534    9.0293 C   0  0  2  0  0  0  0  0  0  0  0  0
    3.2671  -46.1117   10.0400 O   0  0  0  0  0  0  0  0  0  0  0  0
   -0.3077  -52.3201    7.5620 C   0  0  2  0  0  0  0  0  0  0  0  0
    0.8515  -53.1607    7.7152 O   0  0  0  0  0  0  0  0  0  0  0  0
    1.0723  -57.5231    8.5545 C   0  0  2  0  0  0  0  0  0  0  0  0
    1.1410  -58.4022    9.6985 O   0  0  0  0  0  0  0  0  0  0  0  0
    5.8037  -42.2544   13.6496 C   0  0  2  0  0  0  0  0  0  0  0  0
    5.1274  -43.0814   12.6258 O   0  0  0  0  0  0  0  0  0  0  0  0
    1.7658  -45.1426   13.2768 C   0  0  2  0  0  0  0  0  0  0  0  0
    2.2354  -45.1641   11.9075 O   0  0  0  0  0  0  0  0  0  0  0  0
    2.9315  -46.3325    7.6859 C   0  0  0  0  0  0  0  0  0  0  0  0
    1.9329  -45.3039    7.7642 O   0  0  0  0  0  0  0  0  0  0  0  0
    0.1154  -51.0339    6.8779 C   0  0  1  0  0  0  0  0  0  0  0  0
    1.0161  -50.0602    7.4459 O   0  0  0  0  0  0  0  0  0  0  0  0
    2.2931  -56.6194    8.4047 C   0  0  2  0  0  0  0  0  0  0  0  0
    2.1586  -55.5752    7.4013 O   0  0  0  0  0  0  0  0  0  0  0  0
    5.8807  -40.8517   13.1361 C   0  0  0  0  0  0  0  0  0  0  0  0
    6.3864  -40.0412   14.1623 O   0  0  0  0  0  0  0  0  0  0  0  0
    0.2673  -44.6735   13.3614 C   0  0  1  0  0  0  0  0  0  0  0  0
   -0.5687  -45.6485   12.6473 O   0  0  0  0  0  0  0  0  0  0  0  0
    0.5884  -51.2474    5.3963 C   0  0  0  0  0  0  0  0  0  0  0  0
    1.2121  -50.0452    4.7920 N   0  0  0  0  0  0  0  0  0  0  0  0
    3.6963  -57.1841    8.1945 C   0  0  0  0  0  0  0  0  0  0  0  0
    3.7821  -57.8652    6.9048 O   0  0  0  0  0  0  0  0  0  0  0  0
  1  2  1  1  0  0  0
  1  8  1  0  0  0  0
  1 36  1  0  0  0  0
  3  4  1  6  0  0  0
  3 10  1  0  0  0  0
  3 47  1  0  0  0  0
  5 11  1  0  0  0  0
  5 30  1  0  0  0  0
  5 38  1  6  0  0  0
  6 21  1  1  0  0  0
  6 42  1  0  0  0  0
  7 15  1  0  0  0  0
  7 44  1  0  0  0  0
  7 32  1  1  0  0  0
  8  9  1  1  0  0  0
  8 17  1  0  0  0  0
 11 12  1  1  0  0  0
 11 20  1  0  0  0  0
 13  6  1  0  0  0  0
 13 14  1  6  0  0  0
 15 16  1  6  0  0  0
 15 24  1  0  0  0  0
 17 26  1  0  0  0  0
 18 10  1  0  0  0  0
 18 19  1  6  0  0  0
 20 21  1  1  0  0  0
 20 29  1  0  0  0  0
 22 13  1  0  0  0  0
 22 23  1  6  0  0  0
 24 25  1  6  0  0  0
 24 33  1  0  0  0  0
 26 27  1  1  0  0  0
 26 35  1  0  0  0  0
 28  2  1  1  0  0  0
 28 18  1  0  0  0  0
 29 30  1  0  0  0  0
 29 39  1  6  0  0  0
 31 22  1  0  0  0  0
 31 32  1  1  0  0  0
 31 41  1  0  0  0  0
 33 34  1  1  0  0  0
 33 43  1  0  0  0  0
 35 36  1  0  0  0  0
 35 45  1  6  0  0  0
 37 28  1  0  0  0  0
 37 38  1  6  0  0  0
 39 40  1  0  0  0  0
 41 42  1  0  0  0  0
 41 49  1  6  0  0  0
 43 44  1  0  0  0  0
 43 51  1  6  0  0  0
 45 46  1  0  0  0  0
 47 37  1  0  0  0  0
 47 48  1  6  0  0  0
 49 50  1  0  0  0  0
 51 52  1  0  0  0  0
M  END
>  <CHROM.1>
-175.64261040,76.54755393,-143.87764557,-66.53350982,110.88402060,-161.29484098
53.30313531,116.39158882,-67.27169662,125.53012037,-170.45827876,65.74917489
2.16345929,-48.64781567,10.68012538,-1.31628059,0.06287566,-2.68972951

>  <Name>
2fd0_lig

>  <RI>
0

>  <Rbt.Current_Directory>
/home/itssahil/PROJECTS/Mol_Feturizer/New_Systems/rnas/2fd0

>  <Rbt.Executable>
rbdock ($Id: //depot/dev/client3/rdock/2013.1/src/exe/rbdock.cxx#4 $)

>  <Rbt.Library>
libRbt.so (2013.1, Build901 2013/11/27)

>  <Rbt.Parameter_File>
/export/apps/rDock/src/rDock_2013.1_src/data/scripts/dock_solv.prm

>  <Rbt.Receptor>
prm/pocket_docking_8.prm

>  <SCORE>
-2.42234

>  <SCORE.INTER>
-5.75855

>  <SCORE.INTER.CONST>
1

>  <SCORE.INTER.POLAR>
-1.58403

>  <SCORE.INTER.ROT>
12

>  <SCORE.INTER.SOLV>
16.3769

>  <SCORE.INTER.VDW>
-15.6179

>  <SCORE.INTER.norm>
-0.110741

>  <SCORE.INTRA>
3.32981

>  <SCORE.INTRA.DIHEDRAL>
6.80291

>  <SCORE.INTRA.DIHEDRAL.0>
23.9727

>  <SCORE.INTRA.POLAR>
0

>  <SCORE.INTRA.POLAR.0>
0

>  <SCORE.INTRA.REPUL>
0

>  <SCORE.INTRA.REPUL.0>
0

>  <SCORE.INTRA.SOLV>
-3.34131

>  <SCORE.INTRA.SOLV.lig_0>
-115.028

>  <SCORE.INTRA.VDW>
1.59901

>  <SCORE.INTRA.VDW.0>
-6.82393

>  <SCORE.INTRA.norm>
0.0640348

>  <SCORE.RESTR>
0.00639562

>  <SCORE.RESTR.CAVITY>
0.00639562

>  <SCORE.RESTR.norm>
0.000122993

>  <SCORE.SYSTEM>
0

>  <SCORE.SYSTEM.CONST>
0

>  <SCORE.SYSTEM.DIHEDRAL>
0

>  <SCORE.SYSTEM.SOLV>
0

>  <SCORE.SYSTEM.norm>
0

>  <SCORE.heavy>
52

>  <SCORE.norm>
-0.0465835

>  <RMSD>
6.666

$$$$
2fd0_lig
 OpenBabel11021811433D
libRbt.so/2013.1/901 2013/11/27
 52 56  0  0  0  0  0  0  0  0999 V2000
    2.0457  -49.7339   12.2644 C   0  0  2  0  0  0  0  0  0  0  0  0
    1.5757  -49.2200   11.0107 O   0  0  0  0  0  0  0  0  0  0  0  0
    3.5665  -45.3666   10.7274 C   0  0  2  0  0  0  0  0  0  0  0  0
    4.0614  -44.0853   10.1978 N   0  0  0  0  0  0  0  0  0  0  0  0
   -0.7100  -46.4990   10.0569 C   0  0  1  0  0  0  0  0  0  0  0  0
   -4.4527  -45.7459    7.7447 C   0  0  1  0  0  0  0  0  0  0  0  0
   -7.5826  -47.4426    4.2586 C   0  0  1  0  0  0  0  0  0  0  0  0
    1.5443  -51.2161   12.4169 C   0  0  2  0  0  0  0  0  0  0  0  0
    1.9801  -52.0530   11.3076 N   0  0  0  0  0  0  0  0  0  0  0  0
    4.0826  -46.5728    9.8264 C   0  0  0  0  0  0  0  0  0  0  0  0
   -2.0566  -47.1869   10.1873 C   0  0  2  0  0  0  0  0  0  0  0  0
   -2.0669  -48.5019    9.5636 O   0  0  0  0  0  0  0  0  0  0  0  0
   -5.8805  -46.1862    8.3164 C   0  0  2  0  0  0  0  0  0  0  0  0
   -6.0829  -47.6506    8.1430 N   0  0  0  0  0  0  0  0  0  0  0  0
   -8.4094  -48.6225    4.8171 C   0  0  1  0  0  0  0  0  0  0  0  0
   -9.7116  -48.1351    5.2253 O   0  0  0  0  0  0  0  0  0  0  0  0
   -0.0204  -51.2508   12.5810 C   0  0  0  0  0  0  0  0  0  0  0  0
    3.5517  -47.9675   10.4113 C   0  0  2  0  0  0  0  0  0  0  0  0
    4.0130  -49.0997    9.5944 N   0  0  0  0  0  0  0  0  0  0  0  0
   -3.0183  -46.1646    9.6055 C   0  0  2  0  0  0  0  0  0  0  0  0
   -3.4978  -46.5669    8.3513 O   0  0  0  0  0  0  0  0  0  0  0  0
   -6.9909  -45.2427    7.6179 C   0  0  1  0  0  0  0  0  0  0  0  0
   -6.6481  -43.8729    7.8961 O   0  0  0  0  0  0  0  0  0  0  0  0
   -8.6229  -49.8490    3.8890 C   0  0  1  0  0  0  0  0  0  0  0  0
   -9.8610  -49.6641    3.1910 O   0  0  0  0  0  0  0  0  0  0  0  0
   -0.4132  -50.3416   13.7909 C   0  0  2  0  0  0  0  0  0  0  0  0
   -1.8239  -50.3605   13.9848 O   0  0  0  0  0  0  0  0  0  0  0  0
    1.9985  -47.9412   10.4602 C   0  0  2  0  0  0  0  0  0  0  0  0
   -2.2451  -44.8500    9.3437 C   0  0  2  0  0  0  0  0  0  0  0  0
   -0.9811  -45.1135    9.9355 O   0  0  0  0  0  0  0  0  0  0  0  0
   -6.9881  -45.3991    6.0087 C   0  0  2  0  0  0  0  0  0  0  0  0
   -7.3514  -46.7735    5.7789 O   0  0  0  0  0  0  0  0  0  0  0  0
   -7.5054  -50.1228    2.8562 C   0  0  2  0  0  0  0  0  0  0  0  0
   -7.3264  -51.5560    2.8434 O   0  0  0  0  0  0  0  0  0  0  0  0
    0.0654  -48.8863   13.5213 C   0  0  2  0  0  0  0  0  0  0  0  0
    1.5341  -48.9087   13.3426 O   0  0  0  0  0  0  0  0  0  0  0  0
    1.4406  -46.7416   11.2852 C   0  0  2  0  0  0  0  0  0  0  0  0
   -0.0044  -46.8016   11.2186 O   0  0  0  0  0  0  0  0  0  0  0  0
   -2.8350  -43.6098   10.0057 C   0  0  0  0  0  0  0  0  0  0  0  0
   -2.7289  -43.7996   11.4248 O   0  0  0  0  0  0  0  0  0  0  0  0
   -5.5459  -45.2028    5.5810 C   0  0  1  0  0  0  0  0  0  0  0  0
   -4.4106  -45.8352    6.2082 O   0  0  0  0  0  0  0  0  0  0  0  0
   -6.2351  -49.3520    3.2057 C   0  0  2  0  0  0  0  0  0  0  0  0
   -6.4312  -47.9307    3.4442 O   0  0  0  0  0  0  0  0  0  0  0  0
   -0.2494  -47.9706   14.6613 C   0  0  0  0  0  0  0  0  0  0  0  0
    0.0397  -46.6595   14.2572 O   0  0  0  0  0  0  0  0  0  0  0  0
    1.9853  -45.3860   10.7035 C   0  0  1  0  0  0  0  0  0  0  0  0
    1.4817  -44.2845   11.5356 O   0  0  0  0  0  0  0  0  0  0  0  0
   -5.3312  -45.3653    4.0344 C   0  0  0  0  0  0  0  0  0  0  0  0
   -3.9284  -45.1520    3.6031 N   0  0  0  0  0  0  0  0  0  0  0  0
   -4.9771  -49.4331    2.3439 C   0  0  0  0  0  0  0  0  0  0  0  0
   -3.8355  -48.8643    3.0563 O   0  0  0  0  0  0  0  0  0  0  0  0
  1  2  1  6  0  0  0
  1  8  1  0  0  0  0
  1 36  1  0  0  0  0
  3  4  1  6  0  0  0
  3 10  1  0  0  0  0
  3 47  1  0  0  0  0
  5 11  1  0  0  0  0
  5 30  1  0  0  0  0
  5 38  1  1  0  0  0
  6 21  1  1  0  0  0
  6 42  1  0  0  0  0
  7 15  1  0  0  0  0
  7 44  1  0  0  0  0
  7 32  1  1  0  0  0
  8  9  1  6  0  0  0
  8 17  1  0  0  0  0
 11 12  1  6  0  0  0
 11 20  1  0  0  0  0
 13  6  1  0  0  0  0
 13 14  1  6  0  0  0
 15 16  1  6  0  0  0
 15 24  1  0  0  0  0
 17 26  1  0  0  0  0
 18 10  1  0  0  0  0
 18 19  1  6  0  0  0
 20 21  1  6  0  0  0
 20 29  1  0  0  0  0
 22 13  1  0  0  0  0
 22 23  1  6  0  0  0
 24 25  1  6  0  0  0
 24 33  1  0  0  0  0
 26 27  1  6  0  0  0
 26 35  1  0  0  0  0
 28  2  1  1  0  0  0
 28 18  1  0  0  0  0
 29 30  1  0  0  0  0
 29 39  1  1  0  0  0
 31 22  1  0  0  0  0
 31 32  1  1  0  0  0
 31 41  1  0  0  0  0
 33 34  1  1  0  0  0
 33 43  1  0  0  0  0
 35 36  1  0  0  0  0
 35 45  1  1  0  0  0
 37 28  1  0  0  0  0
 37 38  1  6  0  0  0
 39 40  1  0  0  0  0
 41 42  1  0  0  0  0
 41 49  1  6  0  0  0
 43 44  1  0  0  0  0
 43 51  1  6  0  0  0
 45 46  1  0  0  0  0
 47 37  1  0  0  0  0
 47 48  1  1  0  0  0
 49 50  1  0  0  0  0
 51 52  1  0  0  0  0
M  END
>  <CHROM.1>
-171.53171377,157.76928972,-85.40350823,-160.05435460,176.40716484,54.50279104
64.91994331,176.27507935,-171.69283731,-71.62302596,178.99713198,-166.82476313
-2.57559604,-47.43021729,8.59980256,-0.06818917,0.71326394,-3.05490678

>  <Name>
2fd0_lig

>  <RI>
0

>  <Rbt.Current_Directory>
/home/itssahil/PROJECTS/Mol_Feturizer/New_Systems/rnas/2fd0

>  <Rbt.Executable>
rbdock ($Id: //depot/dev/client3/rdock/2013.1/src/exe/rbdock.cxx#4 $)

>  <Rbt.Library>
libRbt.so (2013.1, Build901 2013/11/27)

>  <Rbt.Parameter_File>
/export/apps/rDock/src/rDock_2013.1_src/data/scripts/dock_solv.prm

>  <Rbt.Receptor>
prm/pocket_docking_8.prm

>  <SCORE>
-9.46358

>  <SCORE.INTER>
-2.91162

>  <SCORE.INTER.CONST>
1

>  <SCORE.INTER.POLAR>
-1.80343

>  <SCORE.INTER.ROT>
12

>  <SCORE.INTER.SOLV>
9.63442

>  <SCORE.INTER.VDW>
-10.7411

>  <SCORE.INTER.norm>
-0.0559926

>  <SCORE.INTRA>
-6.55196

>  <SCORE.INTRA.DIHEDRAL>
-13.4402

>  <SCORE.INTRA.DIHEDRAL.0>
23.9727

>  <SCORE.INTRA.POLAR>
0

>  <SCORE.INTRA.POLAR.0>
0

>  <SCORE.INTRA.REPUL>
0

>  <SCORE.INTRA.REPUL.0>
0

>  <SCORE.INTRA.SOLV>
-2.02459

>  <SCORE.INTRA.SOLV.lig_0>
-115.028

>  <SCORE.INTRA.VDW>
1.18044

>  <SCORE.INTRA.VDW.0>
-6.82393

>  <SCORE.INTRA.norm>
-0.125999

>  <SCORE.RESTR>
0

>  <SCORE.RESTR.CAVITY>
0

>  <SCORE.RESTR.norm>
0

>  <SCORE.SYSTEM>
0

>  <SCORE.SYSTEM.CONST>
0

>  <SCORE.SYSTEM.DIHEDRAL>
0

>  <SCORE.SYSTEM.SOLV>
0

>  <SCORE.SYSTEM.norm>
0

>  <SCORE.heavy>
52

>  <SCORE.norm>
-0.181992

>  <RMSD>
6.719

$$$$
2fd0_lig
 OpenBabel11021811433D
libRbt.so/2013.1/901 2013/11/27
 52 56  0  0  0  0  0  0  0  0999 V2000
    3.2648  -46.4768   10.5206 C   0  0  2  0  0  0  0  0  0  0  0  0
    4.3090  -45.7948   11.2288 O   0  0  0  0  0  0  0  0  0  0  0  0
    7.0887  -47.3905   14.1647 C   0  0  2  0  0  0  0  0  0  0  0  0
    7.6789  -47.8094   15.4465 N   0  0  0  0  0  0  0  0  0  0  0  0
    3.8014  -49.6978   11.6590 C   0  0  1  0  0  0  0  0  0  0  0  0
    0.7759  -52.6624   10.0438 C   0  0  1  0  0  0  0  0  0  0  0  0
    0.1809  -56.4923    6.7640 C   0  0  1  0  0  0  0  0  0  0  0  0
    3.0700  -45.7803    9.1246 C   0  0  2  0  0  0  0  0  0  0  0  0
    4.3042  -45.7593    8.3520 N   0  0  0  0  0  0  0  0  0  0  0  0
    6.7261  -45.8413   14.2038 C   0  0  0  0  0  0  0  0  0  0  0  0
    2.3360  -50.0932   11.6530 C   0  0  2  0  0  0  0  0  0  0  0  0
    1.9832  -50.9198   12.7977 O   0  0  0  0  0  0  0  0  0  0  0  0
    0.6971  -54.1211   10.6959 C   0  0  2  0  0  0  0  0  0  0  0  0
    1.8818  -54.9325   10.3041 N   0  0  0  0  0  0  0  0  0  0  0  0
    1.2209  -57.5427    7.2144 C   0  0  1  0  0  0  0  0  0  0  0  0
    0.5673  -58.5221    8.0591 O   0  0  0  0  0  0  0  0  0  0  0  0
    2.4865  -44.3310    9.3123 C   0  0  0  0  0  0  0  0  0  0  0  0
    6.0939  -45.3851   12.8033 C   0  0  2  0  0  0  0  0  0  0  0  0
    5.7470  -43.9563   12.8139 N   0  0  0  0  0  0  0  0  0  0  0  0
    2.1630  -50.7356   10.2870 C   0  0  2  0  0  0  0  0  0  0  0  0
    2.0200  -52.1264   10.3886 O   0  0  0  0  0  0  0  0  0  0  0  0
   -0.7382  -54.7489   10.2999 C   0  0  1  0  0  0  0  0  0  0  0  0
   -1.7600  -53.8470   10.7621 O   0  0  0  0  0  0  0  0  0  0  0  0
    1.9958  -58.3036    6.1047 C   0  0  1  0  0  0  0  0  0  0  0  0
    1.2887  -59.5188    5.8265 O   0  0  0  0  0  0  0  0  0  0  0  0
    1.1631  -44.4316   10.1389 C   0  0  2  0  0  0  0  0  0  0  0  0
    0.5921  -43.1390   10.3155 O   0  0  0  0  0  0  0  0  0  0  0  0
    4.8290  -46.2402   12.5127 C   0  0  2  0  0  0  0  0  0  0  0  0
    3.4585  -50.5178    9.4694 C   0  0  2  0  0  0  0  0  0  0  0  0
    4.2036  -49.6404   10.3015 O   0  0  0  0  0  0  0  0  0  0  0  0
   -0.9219  -54.8689    8.6980 C   0  0  2  0  0  0  0  0  0  0  0  0
    0.1054  -55.7896    8.2849 O   0  0  0  0  0  0  0  0  0  0  0  0
    2.2108  -57.5381    4.7786 C   0  0  2  0  0  0  0  0  0  0  0  0
    3.5628  -57.8379    4.3681 O   0  0  0  0  0  0  0  0  0  0  0  0
    1.4656  -45.0712   11.5242 C   0  0  2  0  0  0  0  0  0  0  0  0
    2.0403  -46.4156   11.2966 O   0  0  0  0  0  0  0  0  0  0  0  0
    5.1208  -47.7718   12.5207 C   0  0  2  0  0  0  0  0  0  0  0  0
    3.8666  -48.4554   12.2844 O   0  0  0  0  0  0  0  0  0  0  0  0
    3.2635  -49.8441    8.1157 C   0  0  0  0  0  0  0  0  0  0  0  0
    2.4310  -48.6950    8.3336 O   0  0  0  0  0  0  0  0  0  0  0  0
   -0.5911  -53.4958    8.1443 C   0  0  1  0  0  0  0  0  0  0  0  0
    0.5633  -52.7158    8.5199 O   0  0  0  0  0  0  0  0  0  0  0  0
    1.9437  -56.0460    4.9575 C   0  0  2  0  0  0  0  0  0  0  0  0
    0.6689  -55.7258    5.5802 O   0  0  0  0  0  0  0  0  0  0  0  0
    0.2304  -45.2289   12.3527 C   0  0  0  0  0  0  0  0  0  0  0  0
    0.6077  -45.7451   13.6004 O   0  0  0  0  0  0  0  0  0  0  0  0
    5.7532  -48.1942   13.8970 C   0  0  1  0  0  0  0  0  0  0  0  0
    6.0617  -49.6301   13.8485 O   0  0  0  0  0  0  0  0  0  0  0  0
   -0.6698  -53.4245    6.5780 C   0  0  0  0  0  0  0  0  0  0  0  0
   -0.7095  -52.0405    6.0469 N   0  0  0  0  0  0  0  0  0  0  0  0
    2.0724  -55.0572    3.8010 C   0  0  0  0  0  0  0  0  0  0  0  0
    1.5949  -53.7370    4.2055 O   0  0  0  0  0  0  0  0  0  0  0  0
  1  2  1  1  0  0  0
  1  8  1  0  0  0  0
  1 36  1  0  0  0  0
  3  4  1  1  0  0  0
  3 10  1  0  0  0  0
  3 47  1  0  0  0  0
  5 11  1  0  0  0  0
  5 30  1  0  0  0  0
  5 38  1  6  0  0  0
  6 21  1  6  0  0  0
  6 42  1  0  0  0  0
  7 15  1  0  0  0  0
  7 44  1  0  0  0  0
  7 32  1  1  0  0  0
  8  9  1  1  0  0  0
  8 17  1  0  0  0  0
 11 12  1  1  0  0  0
 11 20  1  0  0  0  0
 13  6  1  0  0  0  0
 13 14  1  6  0  0  0
 15 16  1  6  0  0  0
 15 24  1  0  0  0  0
 17 26  1  0  0  0  0
 18 10  1  0  0  0  0
 18 19  1  1  0  0  0
 20 21  1  1  0  0  0
 20 29  1  0  0  0  0
 22 13  1  0  0  0  0
 22 23  1  6  0  0  0
 24 25  1  6  0  0  0
 24 33  1  0  0  0  0
 26 27  1  1  0  0  0
 26 35  1  0  0  0  0
 28  2  1  6  0  0  0
 28 18  1  0  0  0  0
 29 30  1  0  0  0  0
 29 39  1  6  0  0  0
 31 22  1  0  0  0  0
 31 32  1  6  0  0  0
 31 41  1  0  0  0  0
 33 34  1  1  0  0  0
 33 43  1  0  0  0  0
 35 36  1  0  0  0  0
 35 45  1  1  0  0  0
 37 28  1  0  0  0  0
 37 38  1  1  0  0  0
 39 40  1  0  0  0  0
 41 42  1  0  0  0  0
 41 49  1  6  0  0  0
 43 44  1  0  0  0  0
 43 51  1  6  0  0  0
 45 46  1  0  0  0  0
 47 37  1  0  0  0  0
 47 48  1  6  0  0  0
 49 50  1  0  0  0  0
 51 52  1  0  0  0  0
M  END
>  <CHROM.1>
-174.81031932,177.72311465,-161.12528327,-165.97976748,112.64076257,170.30643028
48.17042016,167.88036399,-177.00605678,150.96470792,164.56370404,172.65186874
2.36236924,-50.80141032,9.69813505,1.19151216,-0.82753140,0.21250445

>  <Name>
2fd0_lig

>  <RI>
0

>  <Rbt.Current_Directory>
/home/itssahil/PROJECTS/Mol_Feturizer/New_Systems/rnas/2fd0

>  <Rbt.Executable>
rbdock ($Id: //depot/dev/client3/rdock/2013.1/src/exe/rbdock.cxx#4 $)

>  <Rbt.Library>
libRbt.so (2013.1, Build901 2013/11/27)

>  <Rbt.Parameter_File>
/export/apps/rDock/src/rDock_2013.1_src/data/scripts/dock_solv.prm

>  <Rbt.Receptor>
prm/pocket_docking_8.prm

>  <SCORE>
-21.5933

>  <SCORE.INTER>
-16.8274

>  <SCORE.INTER.CONST>
1

>  <SCORE.INTER.POLAR>
-2.50748

>  <SCORE.INTER.ROT>
12

>  <SCORE.INTER.SOLV>
18.1635

>  <SCORE.INTER.VDW>
-20.5145

>  <SCORE.INTER.norm>
-0.323604

>  <SCORE.INTRA>
-4.76588

>  <SCORE.INTRA.DIHEDRAL>
-6.84835

>  <SCORE.INTRA.DIHEDRAL.0>
23.9727

>  <SCORE.INTRA.POLAR>
0

>  <SCORE.INTRA.POLAR.0>
0

>  <SCORE.INTRA.REPUL>
0

>  <SCORE.INTRA.REPUL.0>
0

>  <SCORE.INTRA.SOLV>
-3.09691

>  <SCORE.INTRA.SOLV.lig_0>
-115.028

>  <SCORE.INTRA.VDW>
0.206753

>  <SCORE.INTRA.VDW.0>
-6.82393

>  <SCORE.INTRA.norm>
-0.0916514

>  <SCORE.RESTR>
0

>  <SCORE.RESTR.CAVITY>
0

>  <SCORE.RESTR.norm>
0

>  <SCORE.SYSTEM>
0

>  <SCORE.SYSTEM.CONST>
0

>  <SCORE.SYSTEM.DIHEDRAL>
0

>  <SCORE.SYSTEM.SOLV>
0

>  <SCORE.SYSTEM.norm>
0

>  <SCORE.heavy>
52

>  <SCORE.norm>
-0.415255

>  <RMSD>
6.720

$$$$
2fd0_lig
 OpenBabel11021811433D
libRbt.so/2013.1/901 2013/11/27
 52 56  0  0  0  0  0  0  0  0999 V2000
    3.5245  -49.5417    8.0644 C   0  0  2  0  0  0  0  0  0  0  0  0
    2.5942  -49.2808    9.1243 O   0  0  0  0  0  0  0  0  0  0  0  0
    2.4669  -46.1913   12.1790 C   0  0  2  0  0  0  0  0  0  0  0  0
    2.3487  -44.8784   12.8341 N   0  0  0  0  0  0  0  0  0  0  0  0
   -0.3680  -47.5367    8.8691 C   0  0  1  0  0  0  0  0  0  0  0  0
   -3.7602  -46.8009    5.8679 C   0  0  1  0  0  0  0  0  0  0  0  0
   -6.1036  -50.3136    3.3423 C   0  0  1  0  0  0  0  0  0  0  0  0
    2.7149  -49.9061    6.7669 C   0  0  2  0  0  0  0  0  0  0  0  0
    1.7780  -48.8537    6.3987 N   0  0  0  0  0  0  0  0  0  0  0  0
    3.6388  -46.1678   11.1024 C   0  0  0  0  0  0  0  0  0  0  0  0
   -1.5575  -48.2734    8.2810 C   0  0  2  0  0  0  0  0  0  0  0  0
   -1.1655  -49.2103    7.2385 O   0  0  0  0  0  0  0  0  0  0  0  0
   -4.6128  -48.1358    6.0927 C   0  0  2  0  0  0  0  0  0  0  0  0
   -3.8595  -49.3240    5.6067 N   0  0  0  0  0  0  0  0  0  0  0  0
   -4.9242  -51.0080    2.6250 C   0  0  1  0  0  0  0  0  0  0  0  0
   -3.7998  -51.0892    3.5355 O   0  0  0  0  0  0  0  0  0  0  0  0
    1.9831  -51.2875    6.9478 C   0  0  0  0  0  0  0  0  0  0  0  0
    3.7729  -47.6016   10.3984 C   0  0  2  0  0  0  0  0  0  0  0  0
    4.8485  -47.6060    9.3959 N   0  0  0  0  0  0  0  0  0  0  0  0
   -2.4784  -47.1438    7.8515 C   0  0  2  0  0  0  0  0  0  0  0  0
   -2.5097  -47.0096    6.4566 O   0  0  0  0  0  0  0  0  0  0  0  0
   -6.0600  -47.9033    5.4126 C   0  0  1  0  0  0  0  0  0  0  0  0
   -6.6457  -46.7300    6.0053 O   0  0  0  0  0  0  0  0  0  0  0  0
   -5.1758  -52.4249    2.0420 C   0  0  1  0  0  0  0  0  0  0  0  0
   -4.7865  -53.3852    3.0322 O   0  0  0  0  0  0  0  0  0  0  0  0
    3.0474  -52.3668    7.3314 C   0  0  2  0  0  0  0  0  0  0  0  0
    2.4264  -53.6389    7.4867 O   0  0  0  0  0  0  0  0  0  0  0  0
    2.4185  -47.9700    9.7310 C   0  0  2  0  0  0  0  0  0  0  0  0
   -1.9014  -45.8074    8.3765 C   0  0  2  0  0  0  0  0  0  0  0  0
   -0.8286  -46.2386    9.2016 O   0  0  0  0  0  0  0  0  0  0  0  0
   -5.9401  -47.6063    3.8278 C   0  0  2  0  0  0  0  0  0  0  0  0
   -5.3681  -48.8078    3.2775 O   0  0  0  0  0  0  0  0  0  0  0  0
   -6.6247  -52.7293    1.5962 C   0  0  2  0  0  0  0  0  0  0  0  0
   -6.5075  -53.4622    0.3571 O   0  0  0  0  0  0  0  0  0  0  0  0
    3.7484  -51.9539    8.6572 C   0  0  2  0  0  0  0  0  0  0  0  0
    4.3932  -50.6385    8.4485 O   0  0  0  0  0  0  0  0  0  0  0  0
    1.2258  -47.9507   10.7350 C   0  0  2  0  0  0  0  0  0  0  0  0
    0.0243  -48.2636    9.9902 O   0  0  0  0  0  0  0  0  0  0  0  0
   -2.8579  -44.9799    9.2278 C   0  0  0  0  0  0  0  0  0  0  0  0
   -2.0596  -44.0457    9.9703 O   0  0  0  0  0  0  0  0  0  0  0  0
   -4.9265  -46.4851    3.6973 C   0  0  1  0  0  0  0  0  0  0  0  0
   -3.6521  -46.4481    4.3731 O   0  0  0  0  0  0  0  0  0  0  0  0
   -7.4409  -51.4456    1.4714 C   0  0  2  0  0  0  0  0  0  0  0  0
   -7.3921  -50.5769    2.6369 O   0  0  0  0  0  0  0  0  0  0  0  0
    4.8067  -52.9304    9.0616 C   0  0  0  0  0  0  0  0  0  0  0  0
    4.1719  -54.0717    9.5716 O   0  0  0  0  0  0  0  0  0  0  0  0
    1.1221  -46.5409   11.4238 C   0  0  1  0  0  0  0  0  0  0  0  0
    0.0228  -46.5766   12.3983 O   0  0  0  0  0  0  0  0  0  0  0  0
   -4.6376  -46.0821    2.2078 C   0  0  0  0  0  0  0  0  0  0  0  0
   -3.5209  -45.1176    2.0585 N   0  0  0  0  0  0  0  0  0  0  0  0
   -8.9103  -51.4588    1.0558 C   0  0  0  0  0  0  0  0  0  0  0  0
   -9.4276  -50.0949    0.9740 O   0  0  0  0  0  0  0  0  0  0  0  0
  1  2  1  1  0  0  0
  1  8  1  0  0  0  0
  1 36  1  0  0  0  0
  3  4  1  6  0  0  0
  3 10  1  0  0  0  0
  3 47  1  0  0  0  0
  5 11  1  0  0  0  0
  5 30  1  0  0  0  0
  5 38  1  1  0  0  0
  6 21  1  6  0  0  0
  6 42  1  0  0  0  0
  7 15  1  0  0  0  0
  7 44  1  0  0  0  0
  7 32  1  6  0  0  0
  8  9  1  1  0  0  0
  8 17  1  0  0  0  0
 11 12  1  6  0  0  0
 11 20  1  0  0  0  0
 13  6  1  0  0  0  0
 13 14  1  6  0  0  0
 15 16  1  1  0  0  0
 15 24  1  0  0  0  0
 17 26  1  0  0  0  0
 18 10  1  0  0  0  0
 18 19  1  6  0  0  0
 20 21  1  6  0  0  0
 20 29  1  0  0  0  0
 22 13  1  0  0  0  0
 22 23  1  1  0  0  0
 24 25  1  1  0  0  0
 24 33  1  0  0  0  0
 26 27  1  1  0  0  0
 26 35  1  0  0  0  0
 28  2  1  1  0  0  0
 28 18  1  0  0  0  0
 29 30  1  0  0  0  0
 29 39  1  1  0  0  0
 31 22  1  0  0  0  0
 31 32  1  6  0  0  0
 31 41  1  0  0  0  0
 33 34  1  6  0  0  0
 33 43  1  0  0  0  0
 35 36  1  0  0  0  0
 35 45  1  6  0  0  0
 37 28  1  0  0  0  0
 37 38  1  6  0  0  0
 39 40  1  0  0  0  0
 41 42  1  0  0  0  0
 41 49  1  6  0  0  0
 43 44  1  0  0  0  0
 43 51  1  1  0  0  0
 45 46  1  0  0  0  0
 47 37  1  0  0  0  0
 47 48  1  1  0  0  0
 49 50  1  0  0  0  0
 51 52  1  0  0  0  0
M  END
>  <CHROM.1>
-113.50782049,173.02006568,-66.43975267,-178.65094744,136.96881742,-63.00463277
161.36660075,62.05606808,-75.10789499,-55.40097650,-172.28822697,-178.07814008
-1.62101950,-48.90942664,6.61026228,-0.45516454,0.55110703,-2.59271883

>  <Name>
2fd0_lig

>  <RI>
0

>  <Rbt.Current_Directory>
/home/itssahil/PROJECTS/Mol_Feturizer/New_Systems/rnas/2fd0

>  <Rbt.Executable>
rbdock ($Id: //depot/dev/client3/rdock/2013.1/src/exe/rbdock.cxx#4 $)

>  <Rbt.Library>
libRbt.so (2013.1, Build901 2013/11/27)

>  <Rbt.Parameter_File>
/export/apps/rDock/src/rDock_2013.1_src/data/scripts/dock_solv.prm

>  <Rbt.Receptor>
prm/pocket_docking_6.prm

>  <SCORE>
-4.63505

>  <SCORE.INTER>
-4.38458

>  <SCORE.INTER.CONST>
1

>  <SCORE.INTER.POLAR>
-1.99512

>  <SCORE.INTER.ROT>
12

>  <SCORE.INTER.SOLV>
10.2867

>  <SCORE.INTER.VDW>
-11.3015

>  <SCORE.INTER.norm>
-0.0843189

>  <SCORE.INTRA>
-0.250468

>  <SCORE.INTRA.DIHEDRAL>
-6.74172

>  <SCORE.INTRA.DIHEDRAL.0>
23.9727

>  <SCORE.INTRA.POLAR>
0

>  <SCORE.INTRA.POLAR.0>
0

>  <SCORE.INTRA.REPUL>
0

>  <SCORE.INTRA.REPUL.0>
0

>  <SCORE.INTRA.SOLV>
1.98849

>  <SCORE.INTRA.SOLV.lig_0>
-115.028

>  <SCORE.INTRA.VDW>
2.12615

>  <SCORE.INTRA.VDW.0>
-6.82393

>  <SCORE.INTRA.norm>
-0.00481669

>  <SCORE.RESTR>
0

>  <SCORE.RESTR.CAVITY>
0

>  <SCORE.RESTR.norm>
0

>  <SCORE.SYSTEM>
0

>  <SCORE.SYSTEM.CONST>
0

>  <SCORE.SYSTEM.DIHEDRAL>
0

>  <SCORE.SYSTEM.SOLV>
0

>  <SCORE.SYSTEM.norm>
0

>  <SCORE.heavy>
52

>  <SCORE.norm>
-0.0891356

>  <RMSD>
6.931

$$$$
2fd0_lig
 OpenBabel11021811433D
libRbt.so/2013.1/901 2013/11/27
 52 56  0  0  0  0  0  0  0  0999 V2000
    5.7751  -43.7252   12.4843 C   0  0  2  0  0  0  0  0  0  0  0  0
    5.7909  -44.3744   13.7631 O   0  0  0  0  0  0  0  0  0  0  0  0
    3.2162  -46.8217   16.2680 C   0  0  2  0  0  0  0  0  0  0  0  0
    2.2326  -47.8296   16.6965 N   0  0  0  0  0  0  0  0  0  0  0  0
    6.4401  -47.6361   13.1127 C   0  0  1  0  0  0  0  0  0  0  0  0
    3.5372  -49.7326   10.2432 C   0  0  1  0  0  0  0  0  0  0  0  0
    2.2017  -54.4695    9.3723 C   0  0  1  0  0  0  0  0  0  0  0  0
    7.1973  -43.1103   12.2182 C   0  0  2  0  0  0  0  0  0  0  0  0
    8.2455  -44.1190   12.2843 N   0  0  0  0  0  0  0  0  0  0  0  0
    2.5545  -45.8092   15.2336 C   0  0  0  0  0  0  0  0  0  0  0  0
    5.2124  -48.5256   13.1837 C   0  0  2  0  0  0  0  0  0  0  0  0
    5.5508  -49.9101   13.4781 O   0  0  0  0  0  0  0  0  0  0  0  0
    2.8464  -50.9638   10.9958 C   0  0  2  0  0  0  0  0  0  0  0  0
    3.8352  -52.0501   11.2355 N   0  0  0  0  0  0  0  0  0  0  0  0
    3.2935  -55.2643    8.6213 C   0  0  1  0  0  0  0  0  0  0  0  0
    4.5671  -55.0553    9.2803 O   0  0  0  0  0  0  0  0  0  0  0  0
    7.4775  -41.9262   13.2162 C   0  0  0  0  0  0  0  0  0  0  0  0
    3.6241  -44.7062   14.7770 C   0  0  2  0  0  0  0  0  0  0  0  0
    3.0380  -43.7585   13.8176 N   0  0  0  0  0  0  0  0  0  0  0  0
    4.5327  -48.2739   11.8483 C   0  0  2  0  0  0  0  0  0  0  0  0
    4.6629  -49.3750   10.9908 O   0  0  0  0  0  0  0  0  0  0  0  0
    1.5446  -51.3848   10.1361 C   0  0  1  0  0  0  0  0  0  0  0  0
    0.6993  -50.2266   10.0143 O   0  0  0  0  0  0  0  0  0  0  0  0
    3.0803  -56.7936    8.4581 C   0  0  1  0  0  0  0  0  0  0  0  0
    3.7353  -57.4498    9.5512 O   0  0  0  0  0  0  0  0  0  0  0  0
    6.3217  -40.8815   13.0843 C   0  0  2  0  0  0  0  0  0  0  0  0
    6.5480  -39.7819   13.9606 O   0  0  0  0  0  0  0  0  0  0  0  0
    4.8513  -45.4185   14.1428 C   0  0  2  0  0  0  0  0  0  0  0  0
    5.2617  -47.1117   11.1326 C   0  0  2  0  0  0  0  0  0  0  0  0
    6.1633  -46.6535   12.1299 O   0  0  0  0  0  0  0  0  0  0  0  0
    1.9346  -51.8291    8.6312 C   0  0  2  0  0  0  0  0  0  0  0  0
    2.7620  -52.9953    8.8020 O   0  0  0  0  0  0  0  0  0  0  0  0
    1.6115  -57.2728    8.3981 C   0  0  2  0  0  0  0  0  0  0  0  0
    1.5729  -58.2902    7.3736 O   0  0  0  0  0  0  0  0  0  0  0  0
    4.9663  -41.5630   13.4282 C   0  0  2  0  0  0  0  0  0  0  0  0
    4.7623  -42.6863   12.4868 O   0  0  0  0  0  0  0  0  0  0  0  0
    5.5020  -46.4650   15.0980 C   0  0  2  0  0  0  0  0  0  0  0  0
    6.5965  -47.0866   14.3826 O   0  0  0  0  0  0  0  0  0  0  0  0
    4.3705  -45.9455   10.7201 C   0  0  0  0  0  0  0  0  0  0  0  0
    4.9836  -45.3314    9.5763 O   0  0  0  0  0  0  0  0  0  0  0  0
    2.7921  -50.7047    8.0818 C   0  0  1  0  0  0  0  0  0  0  0  0
    3.8903  -50.0902    8.7878 O   0  0  0  0  0  0  0  0  0  0  0  0
    0.6643  -56.1052    8.1350 C   0  0  2  0  0  0  0  0  0  0  0  0
    0.8386  -54.9672    9.0238 O   0  0  0  0  0  0  0  0  0  0  0  0
    3.8119  -40.6228   13.2858 C   0  0  0  0  0  0  0  0  0  0  0  0
    3.6708  -40.3119   11.9259 O   0  0  0  0  0  0  0  0  0  0  0  0
    4.4324  -47.5277   15.5444 C   0  0  1  0  0  0  0  0  0  0  0  0
    5.0672  -48.4644   16.4820 O   0  0  0  0  0  0  0  0  0  0  0  0
    3.3128  -50.9777    6.6263 C   0  0  0  0  0  0  0  0  0  0  0  0
    3.9371  -49.7945    5.9863 N   0  0  0  0  0  0  0  0  0  0  0  0
   -0.8476  -56.2964    8.0379 C   0  0  0  0  0  0  0  0  0  0  0  0
   -1.4785  -55.0938    7.4992 O   0  0  0  0  0  0  0  0  0  0  0  0
  1  2  1  1  0  0  0
  1  8  1  0  0  0  0
  1 36  1  0  0  0  0
  3  4  1  6  0  0  0
  3 10  1  0  0  0  0
  3 47  1  0  0  0  0
  5 11  1  0  0  0  0
  5 30  1  0  0  0  0
  5 38  1  1  0  0  0
  6 21  1  1  0  0  0
  6 42  1  0  0  0  0
  7 15  1  0  0  0  0
  7 44  1  0  0  0  0
  7 32  1  6  0  0  0
  8  9  1  1  0  0  0
  8 17  1  0  0  0  0
 11 12  1  6  0  0  0
 11 20  1  0  0  0  0
 13  6  1  0  0  0  0
 13 14  1  6  0  0  0
 15 16  1  1  0  0  0
 15 24  1  0  0  0  0
 17 26  1  0  0  0  0
 18 10  1  0  0  0  0
 18 19  1  6  0  0  0
 20 21  1  6  0  0  0
 20 29  1  0  0  0  0
 22 13  1  0  0  0  0
 22 23  1  6  0  0  0
 24 25  1  1  0  0  0
 24 33  1  0  0  0  0
 26 27  1  1  0  0  0
 26 35  1  0  0  0  0
 28  2  1  1  0  0  0
 28 18  1  0  0  0  0
 29 30  1  0  0  0  0
 29 39  1  1  0  0  0
 31 22  1  0  0  0  0
 31 32  1  1  0  0  0
 31 41  1  0  0  0  0
 33 34  1  6  0  0  0
 33 43  1  0  0  0  0
 35 36  1  0  0  0  0
 35 45  1  6  0  0  0
 37 28  1  0  0  0  0
 37 38  1  6  0  0  0
 39 40  1  0  0  0  0
 41 42  1  0  0  0  0
 41 49  1  6  0  0  0
 43 44  1  0  0  0  0
 43 51  1  1  0  0  0
 45 46  1  0  0  0  0
 47 37  1  0  0  0  0
 47 48  1  1  0  0  0
 49 50  1  0  0  0  0
 51 52  1  0  0  0  0
M  END
>  <CHROM.1>
-158.00803716,-48.95771882,-99.71521716,152.89419171,138.58023864,-89.24399395
-152.30249444,68.33753128,67.28681589,-51.47797577,169.38994005,-167.68956167
3.90627392,-48.74440489,11.40123637,0.09927148,-1.30412965,-1.06573129

>  <Name>
2fd0_lig

>  <RI>
3.4301e+07

>  <Rbt.Current_Directory>
/home/itssahil/PROJECTS/Mol_Feturizer/New_Systems/rnas/2fd0

>  <Rbt.Executable>
rbdock ($Id: //depot/dev/client3/rdock/2013.1/src/exe/rbdock.cxx#4 $)

>  <Rbt.Library>
libRbt.so (2013.1, Build901 2013/11/27)

>  <Rbt.Parameter_File>
/export/apps/rDock/src/rDock_2013.1_src/data/scripts/dock_solv.prm

>  <Rbt.Receptor>
prm/pocket_docking_7.prm

>  <SCORE>
-21.2175

>  <SCORE.INTER>
-26.9432

>  <SCORE.INTER.CONST>
1

>  <SCORE.INTER.POLAR>
-4.4613

>  <SCORE.INTER.ROT>
12

>  <SCORE.INTER.SOLV>
22.3472

>  <SCORE.INTER.VDW>
-22.1402

>  <SCORE.INTER.norm>
-0.518139

>  <SCORE.INTRA>
5.7257

>  <SCORE.INTRA.DIHEDRAL>
1.7128

>  <SCORE.INTRA.DIHEDRAL.0>
23.9727

>  <SCORE.INTRA.POLAR>
0

>  <SCORE.INTRA.POLAR.0>
0

>  <SCORE.INTRA.REPUL>
0

>  <SCORE.INTRA.REPUL.0>
0

>  <SCORE.INTRA.SOLV>
2.69777

>  <SCORE.INTRA.SOLV.lig_0>
-115.028

>  <SCORE.INTRA.VDW>
3.52041

>  <SCORE.INTRA.VDW.0>
-6.82393

>  <SCORE.INTRA.norm>
0.11011

>  <SCORE.RESTR>
0

>  <SCORE.RESTR.CAVITY>
0

>  <SCORE.RESTR.norm>
0

>  <SCORE.SYSTEM>
0

>  <SCORE.SYSTEM.CONST>
0

>  <SCORE.SYSTEM.DIHEDRAL>
0

>  <SCORE.SYSTEM.SOLV>
0

>  <SCORE.SYSTEM.norm>
0

>  <SCORE.heavy>
52

>  <SCORE.norm>
-0.408029

>  <RMSD>
7.015

$$$$
2fd0_lig
 OpenBabel11021811433D
libRbt.so/2013.1/901 2013/11/27
 52 56  0  0  0  0  0  0  0  0999 V2000
   -0.6189  -44.8428   14.7160 C   0  0  2  0  0  0  0  0  0  0  0  0
    0.7214  -45.1274   14.2924 O   0  0  0  0  0  0  0  0  0  0  0  0
    4.3257  -42.6985   14.2406 C   0  0  2  0  0  0  0  0  0  0  0  0
    5.4890  -41.9151   14.6878 N   0  0  0  0  0  0  0  0  0  0  0  0
    3.8136  -47.4480   14.0593 C   0  0  1  0  0  0  0  0  0  0  0  0
    3.1576  -49.2397   10.2110 C   0  0  1  0  0  0  0  0  0  0  0  0
    1.3530  -53.8285    8.3656 C   0  0  1  0  0  0  0  0  0  0  0  0
   -1.3960  -46.2015   14.8628 C   0  0  2  0  0  0  0  0  0  0  0  0
   -0.7322  -47.1088   15.7885 N   0  0  0  0  0  0  0  0  0  0  0  0
    2.9833  -42.0794   14.8303 C   0  0  0  0  0  0  0  0  0  0  0  0
    3.1136  -47.4263   12.7128 C   0  0  2  0  0  0  0  0  0  0  0  0
    1.9556  -48.3072   12.6790 O   0  0  0  0  0  0  0  0  0  0  0  0
    2.0650  -50.2689   10.7643 C   0  0  2  0  0  0  0  0  0  0  0  0
    2.7216  -51.5057   11.2689 N   0  0  0  0  0  0  0  0  0  0  0  0
    2.3344  -54.6303    9.2496 C   0  0  1  0  0  0  0  0  0  0  0  0
    2.0814  -54.3155   10.6413 O   0  0  0  0  0  0  0  0  0  0  0  0
   -1.6015  -46.8700   13.4531 C   0  0  0  0  0  0  0  0  0  0  0  0
    1.7172  -42.9275   14.3331 C   0  0  2  0  0  0  0  0  0  0  0  0
    0.4626  -42.3771   14.8669 N   0  0  0  0  0  0  0  0  0  0  0  0
    4.2340  -47.7589   11.7419 C   0  0  2  0  0  0  0  0  0  0  0  0
    4.0991  -49.0559   11.2276 O   0  0  0  0  0  0  0  0  0  0  0  0
    0.9735  -50.4885    9.5933 C   0  0  1  0  0  0  0  0  0  0  0  0
    0.4362  -49.2011    9.2399 O   0  0  0  0  0  0  0  0  0  0  0  0
    2.3353  -56.1756    9.0974 C   0  0  1  0  0  0  0  0  0  0  0  0
    1.4370  -56.7160   10.0748 O   0  0  0  0  0  0  0  0  0  0  0  0
   -2.3249  -45.8462   12.5187 C   0  0  2  0  0  0  0  0  0  0  0  0
   -2.5466  -46.4211   11.2347 O   0  0  0  0  0  0  0  0  0  0  0  0
    1.8862  -44.4058   14.7820 C   0  0  2  0  0  0  0  0  0  0  0  0
    5.5743  -47.7646   12.5152 C   0  0  2  0  0  0  0  0  0  0  0  0
    5.1944  -47.2738   13.7928 O   0  0  0  0  0  0  0  0  0  0  0  0
    1.6434  -51.0909    8.2507 C   0  0  2  0  0  0  0  0  0  0  0  0
    2.1494  -52.3796    8.6466 O   0  0  0  0  0  0  0  0  0  0  0  0
    1.9430  -56.7218    7.7051 C   0  0  2  0  0  0  0  0  0  0  0  0
    2.8491  -57.8161    7.4442 O   0  0  0  0  0  0  0  0  0  0  0  0
   -1.4537  -44.5648   12.3823 C   0  0  2  0  0  0  0  0  0  0  0  0
   -1.2616  -43.9911   13.7327 O   0  0  0  0  0  0  0  0  0  0  0  0
    3.2171  -45.0418   14.2768 C   0  0  2  0  0  0  0  0  0  0  0  0
    3.2780  -46.3929   14.7934 O   0  0  0  0  0  0  0  0  0  0  0  0
    6.6514  -46.8456   11.9497 C   0  0  0  0  0  0  0  0  0  0  0  0
    6.9754  -47.3338   10.6391 O   0  0  0  0  0  0  0  0  0  0  0  0
    2.8197  -50.1852    7.9386 C   0  0  1  0  0  0  0  0  0  0  0  0
    3.7971  -49.7469    8.9055 O   0  0  0  0  0  0  0  0  0  0  0  0
    1.9957  -55.6207    6.6495 C   0  0  2  0  0  0  0  0  0  0  0  0
    1.2657  -54.4109    6.9943 O   0  0  0  0  0  0  0  0  0  0  0  0
   -2.1088  -43.5277   11.5265 C   0  0  0  0  0  0  0  0  0  0  0  0
   -2.1480  -44.0120   10.2114 O   0  0  0  0  0  0  0  0  0  0  0  0
    4.4436  -44.1865   14.7634 C   0  0  1  0  0  0  0  0  0  0  0  0
    5.6734  -44.7851   14.2263 O   0  0  0  0  0  0  0  0  0  0  0  0
    3.6345  -50.6414    6.6767 C   0  0  0  0  0  0  0  0  0  0  0  0
    4.0226  -52.0725    6.7048 N   0  0  0  0  0  0  0  0  0  0  0  0
    1.6443  -55.8849    5.1871 C   0  0  0  0  0  0  0  0  0  0  0  0
    2.1989  -54.8368    4.3337 O   0  0  0  0  0  0  0  0  0  0  0  0
  1  2  1  6  0  0  0
  1  8  1  0  0  0  0
  1 36  1  0  0  0  0
  3  4  1  1  0  0  0
  3 10  1  0  0  0  0
  3 47  1  0  0  0  0
  5 11  1  0  0  0  0
  5 30  1  0  0  0  0
  5 38  1  1  0  0  0
  6 21  1  1  0  0  0
  6 42  1  0  0  0  0
  7 15  1  0  0  0  0
  7 44  1  0  0  0  0
  7 32  1  6  0  0  0
  8  9  1  1  0  0  0
  8 17  1  0  0  0  0
 11 12  1  1  0  0  0
 11 20  1  0  0  0  0
 13  6  1  0  0  0  0
 13 14  1  6  0  0  0
 15 16  1  1  0  0  0
 15 24  1  0  0  0  0
 17 26  1  0  0  0  0
 18 10  1  0  0  0  0
 18 19  1  1  0  0  0
 20 21  1  1  0  0  0
 20 29  1  0  0  0  0
 22 13  1  0  0  0  0
 22 23  1  6  0  0  0
 24 25  1  1  0  0  0
 24 33  1  0  0  0  0
 26 27  1  6  0  0  0
 26 35  1  0  0  0  0
 28  2  1  6  0  0  0
 28 18  1  0  0  0  0
 29 30  1  0  0  0  0
 29 39  1  6  0  0  0
 31 22  1  0  0  0  0
 31 32  1  1  0  0  0
 31 41  1  0  0  0  0
 33 34  1  6  0  0  0
 33 43  1  0  0  0  0
 35 36  1  0  0  0  0
 35 45  1  6  0  0  0
 37 28  1  0  0  0  0
 37 38  1  1  0  0  0
 39 40  1  0  0  0  0
 41 42  1  0  0  0  0
 41 49  1  6  0  0  0
 43 44  1  0  0  0  0
 43 51  1  6  0  0  0
 45 46  1  0  0  0  0
 47 37  1  0  0  0  0
 47 48  1  6  0  0  0
 49 50  1  0  0  0  0
 51 52  1  0  0  0  0
M  END
>  <CHROM.1>
-141.30651096,-52.04472265,-118.09107139,-170.71176647,78.24195530,-62.98260552
-63.68047622,98.87993951,-67.69971544,143.45448274,-50.52097731,-160.66466442
2.08875594,-48.74091442,11.23010202,1.61422927,-0.08820030,0.55577825

>  <Name>
2fd0_lig

>  <RI>
0

>  <Rbt.Current_Directory>
/home/itssahil/PROJECTS/Mol_Feturizer/New_Systems/rnas/2fd0

>  <Rbt.Executable>
rbdock ($Id: //depot/dev/client3/rdock/2013.1/src/exe/rbdock.cxx#4 $)

>  <Rbt.Library>
libRbt.so (2013.1, Build901 2013/11/27)

>  <Rbt.Parameter_File>
/export/apps/rDock/src/rDock_2013.1_src/data/scripts/dock_solv.prm

>  <Rbt.Receptor>
prm/pocket_docking_8.prm

>  <SCORE>
-0.856239

>  <SCORE.INTER>
-6.50276

>  <SCORE.INTER.CONST>
1

>  <SCORE.INTER.POLAR>
-1.79309

>  <SCORE.INTER.ROT>
12

>  <SCORE.INTER.SOLV>
14.0438

>  <SCORE.INTER.VDW>
-14.6395

>  <SCORE.INTER.norm>
-0.125053

>  <SCORE.INTRA>
5.64652

>  <SCORE.INTRA.DIHEDRAL>
3.65524

>  <SCORE.INTRA.DIHEDRAL.0>
23.9727

>  <SCORE.INTRA.POLAR>
0

>  <SCORE.INTRA.POLAR.0>
0

>  <SCORE.INTRA.REPUL>
0

>  <SCORE.INTRA.REPUL.0>
0

>  <SCORE.INTRA.SOLV>
3.40526

>  <SCORE.INTRA.SOLV.lig_0>
-115.028

>  <SCORE.INTRA.VDW>
2.11627

>  <SCORE.INTRA.VDW.0>
-6.82393

>  <SCORE.INTRA.norm>
0.108587

>  <SCORE.RESTR>
0

>  <SCORE.RESTR.CAVITY>
0

>  <SCORE.RESTR.norm>
0

>  <SCORE.SYSTEM>
0

>  <SCORE.SYSTEM.CONST>
0

>  <SCORE.SYSTEM.DIHEDRAL>
0

>  <SCORE.SYSTEM.SOLV>
0

>  <SCORE.SYSTEM.norm>
0

>  <SCORE.heavy>
52

>  <SCORE.norm>
-0.0164661

>  <RMSD>
7.061

$$$$
2fd0_lig
 OpenBabel11021811433D
libRbt.so/2013.1/901 2013/11/27
 52 56  0  0  0  0  0  0  0  0999 V2000
    2.6089  -46.8261   10.7097 C   0  0  2  0  0  0  0  0  0  0  0  0
    1.7901  -46.6353    9.5478 O   0  0  0  0  0  0  0  0  0  0  0  0
   -1.7524  -44.6772   11.1319 C   0  0  2  0  0  0  0  0  0  0  0  0
   -3.0125  -43.9205   11.2119 N   0  0  0  0  0  0  0  0  0  0  0  0
   -1.8579  -48.8305    9.4237 C   0  0  1  0  0  0  0  0  0  0  0  0
   -4.0980  -51.2978    6.7939 C   0  0  1  0  0  0  0  0  0  0  0  0
   -8.7813  -51.6503    5.4309 C   0  0  1  0  0  0  0  0  0  0  0  0
    3.8823  -47.6490   10.2943 C   0  0  2  0  0  0  0  0  0  0  0  0
    4.6264  -46.9951    9.2268 N   0  0  0  0  0  0  0  0  0  0  0  0
   -0.6199  -43.7931   10.4473 C   0  0  0  0  0  0  0  0  0  0  0  0
   -2.0238  -49.4718    8.0582 C   0  0  2  0  0  0  0  0  0  0  0  0
   -2.9827  -48.7592    7.2270 O   0  0  0  0  0  0  0  0  0  0  0  0
   -5.4149  -50.4106    6.5986 C   0  0  2  0  0  0  0  0  0  0  0  0
   -6.4537  -50.7926    7.5937 N   0  0  0  0  0  0  0  0  0  0  0  0
   -9.5029  -52.8196    6.1381 C   0  0  1  0  0  0  0  0  0  0  0  0
   -9.1072  -52.8446    7.5319 O   0  0  0  0  0  0  0  0  0  0  0  0
    3.4798  -49.1174    9.8962 C   0  0  0  0  0  0  0  0  0  0  0  0
    0.7541  -44.6150   10.3714 C   0  0  2  0  0  0  0  0  0  0  0  0
    1.8178  -43.8205    9.7397 N   0  0  0  0  0  0  0  0  0  0  0  0
   -2.3746  -50.9104    8.3987 C   0  0  2  0  0  0  0  0  0  0  0  0
   -3.7238  -51.1854    8.1360 O   0  0  0  0  0  0  0  0  0  0  0  0
   -5.8554  -50.5371    5.0491 C   0  0  1  0  0  0  0  0  0  0  0  0
   -4.7441  -50.1190    4.2359 O   0  0  0  0  0  0  0  0  0  0  0  0
  -11.0542  -52.8447    6.0768 C   0  0  1  0  0  0  0  0  0  0  0  0
  -11.5530  -52.1846    7.2471 O   0  0  0  0  0  0  0  0  0  0  0  0
    2.6960  -49.7578   11.0879 C   0  0  2  0  0  0  0  0  0  0  0  0
    2.3284  -51.0974   10.7737 O   0  0  0  0  0  0  0  0  0  0  0  0
    0.5195  -45.9265    9.5710 C   0  0  2  0  0  0  0  0  0  0  0  0
   -2.2067  -51.1137    9.9234 C   0  0  2  0  0  0  0  0  0  0  0  0
   -1.6153  -49.8892   10.3338 O   0  0  0  0  0  0  0  0  0  0  0  0
   -6.1760  -52.0674    4.6370 C   0  0  2  0  0  0  0  0  0  0  0  0
   -7.2994  -52.4350    5.4595 O   0  0  0  0  0  0  0  0  0  0  0  0
  -11.6958  -52.1966    4.8282 C   0  0  2  0  0  0  0  0  0  0  0  0
  -12.7828  -53.0690    4.4489 O   0  0  0  0  0  0  0  0  0  0  0  0
    1.4228  -48.9142   11.3828 C   0  0  2  0  0  0  0  0  0  0  0  0
    1.8486  -47.5378   11.7200 O   0  0  0  0  0  0  0  0  0  0  0  0
   -0.6227  -46.8029   10.1696 C   0  0  2  0  0  0  0  0  0  0  0  0
   -0.7733  -47.9636    9.3174 O   0  0  0  0  0  0  0  0  0  0  0  0
   -1.2771  -52.2533   10.3256 C   0  0  0  0  0  0  0  0  0  0  0  0
   -1.7595  -52.7685   11.5758 O   0  0  0  0  0  0  0  0  0  0  0  0
   -4.9688  -52.8720    5.0807 C   0  0  1  0  0  0  0  0  0  0  0  0
   -4.3376  -52.7594    6.3733 O   0  0  0  0  0  0  0  0  0  0  0  0
  -10.6622  -51.9933    3.7237 C   0  0  2  0  0  0  0  0  0  0  0  0
   -9.4506  -51.3062    4.1422 O   0  0  0  0  0  0  0  0  0  0  0  0
    0.6448  -49.4557   12.5398 C   0  0  0  0  0  0  0  0  0  0  0  0
   -0.6042  -48.8191   12.5588 O   0  0  0  0  0  0  0  0  0  0  0  0
   -1.9559  -45.9729   10.2482 C   0  0  1  0  0  0  0  0  0  0  0  0
   -2.9934  -46.8123   10.8635 O   0  0  0  0  0  0  0  0  0  0  0  0
   -5.1142  -54.4102    4.8032 C   0  0  0  0  0  0  0  0  0  0  0  0
   -6.3716  -54.9934    5.3308 N   0  0  0  0  0  0  0  0  0  0  0  0
  -11.0260  -51.3608    2.3823 C   0  0  0  0  0  0  0  0  0  0  0  0
   -9.9121  -51.4817    1.4446 O   0  0  0  0  0  0  0  0  0  0  0  0
  1  2  1  6  0  0  0
  1  8  1  0  0  0  0
  1 36  1  0  0  0  0
  3  4  1  6  0  0  0
  3 10  1  0  0  0  0
  3 47  1  0  0  0  0
  5 11  1  0  0  0  0
  5 30  1  0  0  0  0
  5 38  1  6  0  0  0
  6 21  1  1  0  0  0
  6 42  1  0  0  0  0
  7 15  1  0  0  0  0
  7 44  1  0  0  0  0
  7 32  1  6  0  0  0
  8  9  1  6  0  0  0
  8 17  1  0  0  0  0
 11 12  1  1  0  0  0
 11 20  1  0  0  0  0
 13  6  1  0  0  0  0
 13 14  1  1  0  0  0
 15 16  1  1  0  0  0
 15 24  1  0  0  0  0
 17 26  1  0  0  0  0
 18 10  1  0  0  0  0
 18 19  1  6  0  0  0
 20 21  1  1  0  0  0
 20 29  1  0  0  0  0
 22 13  1  0  0  0  0
 22 23  1  6  0  0  0
 24 25  1  1  0  0  0
 24 33  1  0  0  0  0
 26 27  1  6  0  0  0
 26 35  1  0  0  0  0
 28  2  1  1  0  0  0
 28 18  1  0  0  0  0
 29 30  1  0  0  0  0
 29 39  1  6  0  0  0
 31 22  1  0  0  0  0
 31 32  1  1  0  0  0
 31 41  1  0  0  0  0
 33 34  1  6  0  0  0
 33 43  1  0  0  0  0
 35 36  1  0  0  0  0
 35 45  1  1  0  0  0
 37 28  1  0  0  0  0
 37 38  1  6  0  0  0
 39 40  1  0  0  0  0
 41 42  1  0  0  0  0
 41 49  1  1  0  0  0
 43 44  1  0  0  0  0
 43 51  1  6  0  0  0
 45 46  1  0  0  0  0
 47 37  1  0  0  0  0
 47 48  1  1  0  0  0
 49 50  1  0  0  0  0
 51 52  1  0  0  0  0
M  END
>  <CHROM.1>
179.20695906,154.18642653,-132.29929088,162.81692503,72.95661683,46.61607638
-149.29678348,59.77215888,-167.92340670,-168.27521994,-51.83476115,-170.98935059
-3.50515529,-49.82101307,8.10075758,0.46552552,-0.44257329,0.15305771

>  <Name>
2fd0_lig

>  <RI>
3.4301e+07

>  <Rbt.Current_Directory>
/home/itssahil/PROJECTS/Mol_Feturizer/New_Systems/rnas/2fd0

>  <Rbt.Executable>
rbdock ($Id: //depot/dev/client3/rdock/2013.1/src/exe/rbdock.cxx#4 $)

>  <Rbt.Library>
libRbt.so (2013.1, Build901 2013/11/27)

>  <Rbt.Parameter_File>
/export/apps/rDock/src/rDock_2013.1_src/data/scripts/dock_solv.prm

>  <Rbt.Receptor>
prm/pocket_docking_7.prm

>  <SCORE>
-1.43606

>  <SCORE.INTER>
1.34465

>  <SCORE.INTER.CONST>
1

>  <SCORE.INTER.POLAR>
-0.91798

>  <SCORE.INTER.ROT>
12

>  <SCORE.INTER.SOLV>
13.9321

>  <SCORE.INTER.VDW>
-12.2877

>  <SCORE.INTER.norm>
0.0258586

>  <SCORE.INTRA>
-2.78071

>  <SCORE.INTRA.DIHEDRAL>
-5.87861

>  <SCORE.INTRA.DIHEDRAL.0>
23.9727

>  <SCORE.INTRA.POLAR>
0

>  <SCORE.INTRA.POLAR.0>
0

>  <SCORE.INTRA.REPUL>
0

>  <SCORE.INTRA.REPUL.0>
0

>  <SCORE.INTRA.SOLV>
0.392592

>  <SCORE.INTRA.SOLV.lig_0>
-115.028

>  <SCORE.INTRA.VDW>
-0.0377034

>  <SCORE.INTRA.VDW.0>
-6.82393

>  <SCORE.INTRA.norm>
-0.0534752

>  <SCORE.RESTR>
0

>  <SCORE.RESTR.CAVITY>
0

>  <SCORE.RESTR.norm>
0

>  <SCORE.SYSTEM>
0

>  <SCORE.SYSTEM.CONST>
0

>  <SCORE.SYSTEM.DIHEDRAL>
0

>  <SCORE.SYSTEM.SOLV>
0

>  <SCORE.SYSTEM.norm>
0

>  <SCORE.heavy>
52

>  <SCORE.norm>
-0.0276166

>  <RMSD>
7.233

$$$$
2fd0_lig
 OpenBabel11021811433D
libRbt.so/2013.1/901 2013/11/27
 52 56  0  0  0  0  0  0  0  0999 V2000
    2.1774  -53.1110    9.2897 C   0  0  2  0  0  0  0  0  0  0  0  0
    2.9451  -52.4683   10.3166 O   0  0  0  0  0  0  0  0  0  0  0  0
    2.0671  -50.1091   13.8600 C   0  0  2  0  0  0  0  0  0  0  0  0
    1.6103  -49.0143   14.7317 N   0  0  0  0  0  0  0  0  0  0  0  0
   -0.2947  -51.6660   10.2275 C   0  0  1  0  0  0  0  0  0  0  0  0
   -3.0553  -52.4112    7.1380 C   0  0  1  0  0  0  0  0  0  0  0  0
   -1.9711  -52.9376    2.4328 C   0  0  1  0  0  0  0  0  0  0  0  0
    3.0004  -54.3330    8.7411 C   0  0  2  0  0  0  0  0  0  0  0  0
    3.3525  -55.2690    9.7996 N   0  0  0  0  0  0  0  0  0  0  0  0
    3.1484  -49.5740   12.8220 C   0  0  0  0  0  0  0  0  0  0  0  0
   -1.3881  -52.5357    9.6345 C   0  0  2  0  0  0  0  0  0  0  0  0
   -0.9009  -53.3669    8.5438 O   0  0  0  0  0  0  0  0  0  0  0  0
   -1.8813  -52.8880    6.1613 C   0  0  2  0  0  0  0  0  0  0  0  0
   -1.3549  -51.7373    5.3777 N   0  0  0  0  0  0  0  0  0  0  0  0
   -2.7114  -54.0777    1.6980 C   0  0  1  0  0  0  0  0  0  0  0  0
   -3.7816  -53.5101    0.9027 O   0  0  0  0  0  0  0  0  0  0  0  0
    4.2778  -53.8316    7.9709 C   0  0  0  0  0  0  0  0  0  0  0  0
    3.6524  -50.7701   11.8814 C   0  0  2  0  0  0  0  0  0  0  0  0
    4.6516  -50.3012   10.9101 N   0  0  0  0  0  0  0  0  0  0  0  0
   -2.4667  -51.5277    9.2753 C   0  0  2  0  0  0  0  0  0  0  0  0
   -2.5553  -51.3433    7.8886 O   0  0  0  0  0  0  0  0  0  0  0  0
   -2.4524  -54.1217    5.2880 C   0  0  1  0  0  0  0  0  0  0  0  0
   -2.9029  -55.1401    6.1996 O   0  0  0  0  0  0  0  0  0  0  0  0
   -1.8677  -55.0035    0.7804 C   0  0  1  0  0  0  0  0  0  0  0  0
   -1.9225  -54.4747   -0.5506 O   0  0  0  0  0  0  0  0  0  0  0  0
    3.8244  -52.8423    6.8482 C   0  0  2  0  0  0  0  0  0  0  0  0
    4.9531  -52.3784    6.1139 O   0  0  0  0  0  0  0  0  0  0  0  0
    2.4322  -51.3834   11.1394 C   0  0  2  0  0  0  0  0  0  0  0  0
   -2.0638  -50.1466    9.8450 C   0  0  2  0  0  0  0  0  0  0  0  0
   -0.9193  -50.4583   10.6264 O   0  0  0  0  0  0  0  0  0  0  0  0
   -3.7386  -53.6919    4.4075 C   0  0  2  0  0  0  0  0  0  0  0  0
   -3.2382  -52.6892    3.5031 O   0  0  0  0  0  0  0  0  0  0  0  0
   -0.3861  -55.1906    1.1810 C   0  0  2  0  0  0  0  0  0  0  0  0
   -0.0975  -56.5904    0.9717 O   0  0  0  0  0  0  0  0  0  0  0  0
    3.0784  -51.6378    7.4903 C   0  0  2  0  0  0  0  0  0  0  0  0
    1.9067  -52.1602    8.2277 O   0  0  0  0  0  0  0  0  0  0  0  0
    1.3164  -51.8713   12.1131 C   0  0  2  0  0  0  0  0  0  0  0  0
    0.2248  -52.3760   11.3069 O   0  0  0  0  0  0  0  0  0  0  0  0
   -3.1004  -49.4938   10.7527 C   0  0  0  0  0  0  0  0  0  0  0  0
   -2.5905  -48.2006   11.1116 O   0  0  0  0  0  0  0  0  0  0  0  0
   -4.6973  -53.0304    5.3795 C   0  0  1  0  0  0  0  0  0  0  0  0
   -4.3221  -52.0306    6.3499 O   0  0  0  0  0  0  0  0  0  0  0  0
   -0.1426  -54.7246    2.6138 C   0  0  2  0  0  0  0  0  0  0  0  0
   -0.6308  -53.3871    2.9107 O   0  0  0  0  0  0  0  0  0  0  0  0
    2.5857  -50.6689    6.4628 C   0  0  0  0  0  0  0  0  0  0  0  0
    2.1655  -49.5081    7.1273 O   0  0  0  0  0  0  0  0  0  0  0  0
    0.8478  -50.6868   13.0350 C   0  0  1  0  0  0  0  0  0  0  0  0
   -0.1640  -51.1955   13.9714 O   0  0  0  0  0  0  0  0  0  0  0  0
   -6.0048  -52.4975    4.6934 C   0  0  0  0  0  0  0  0  0  0  0  0
   -5.7731  -51.3510    3.7816 N   0  0  0  0  0  0  0  0  0  0  0  0
    1.2391  -54.7883    3.2611 C   0  0  0  0  0  0  0  0  0  0  0  0
    1.1422  -54.5183    4.6936 O   0  0  0  0  0  0  0  0  0  0  0  0
  1  2  1  1  0  0  0
  1  8  1  0  0  0  0
  1 36  1  0  0  0  0
  3  4  1  1  0  0  0
  3 10  1  0  0  0  0
  3 47  1  0  0  0  0
  5 11  1  0  0  0  0
  5 30  1  0  0  0  0
  5 38  1  1  0  0  0
  6 21  1  6  0  0  0
  6 42  1  0  0  0  0
  7 15  1  0  0  0  0
  7 44  1  0  0  0  0
  7 32  1  1  0  0  0
  8  9  1  1  0  0  0
  8 17  1  0  0  0  0
 11 12  1  6  0  0  0
 11 20  1  0  0  0  0
 13  6  1  0  0  0  0
 13 14  1  6  0  0  0
 15 16  1  6  0  0  0
 15 24  1  0  0  0  0
 17 26  1  0  0  0  0
 18 10  1  0  0  0  0
 18 19  1  6  0  0  0
 20 21  1  6  0  0  0
 20 29  1  0  0  0  0
 22 13  1  0  0  0  0
 22 23  1  1  0  0  0
 24 25  1  6  0  0  0
 24 33  1  0  0  0  0
 26 27  1  1  0  0  0
 26 35  1  0  0  0  0
 28  2  1  1  0  0  0
 28 18  1  0  0  0  0
 29 30  1  0  0  0  0
 29 39  1  1  0  0  0
 31 22  1  0  0  0  0
 31 32  1  6  0  0  0
 31 41  1  0  0  0  0
 33 34  1  1  0  0  0
 33 43  1  0  0  0  0
 35 36  1  0  0  0  0
 35 45  1  6  0  0  0
 37 28  1  0  0  0  0
 37 38  1  6  0  0  0
 39 40  1  0  0  0  0
 41 42  1  0  0  0  0
 41 49  1  6  0  0  0
 43 44  1  0  0  0  0
 43 51  1  6  0  0  0
 45 46  1  0  0  0  0
 47 37  1  0  0  0  0
 47 48  1  1  0  0  0
 49 50  1  0  0  0  0
 51 52  1  0  0  0  0
M  END
>  <CHROM.1>
-173.45306691,178.75503513,-116.89691937,60.29128488,69.40061833,-167.48525443
-176.49774842,57.29432212,-168.73136883,-48.13525006,-68.12074012,-169.56233823
-0.26101825,-52.40373324,7.29753977,-1.17737290,0.20243432,-1.98059018

>  <Name>
2fd0_lig

>  <RI>
3.4301e+07

>  <Rbt.Current_Directory>
/home/itssahil/PROJECTS/Mol_Feturizer/New_Systems/rnas/2fd0

>  <Rbt.Executable>
rbdock ($Id: //depot/dev/client3/rdock/2013.1/src/exe/rbdock.cxx#4 $)

>  <Rbt.Library>
libRbt.so (2013.1, Build901 2013/11/27)

>  <Rbt.Parameter_File>
/export/apps/rDock/src/rDock_2013.1_src/data/scripts/dock_solv.prm

>  <Rbt.Receptor>
prm/pocket_docking_7.prm

>  <SCORE>
-15.2829

>  <SCORE.INTER>
-10.0471

>  <SCORE.INTER.CONST>
1

>  <SCORE.INTER.POLAR>
-1.1084

>  <SCORE.INTER.ROT>
12

>  <SCORE.INTER.SOLV>
15.5522

>  <SCORE.INTER.VDW>
-19.7874

>  <SCORE.INTER.norm>
-0.193213

>  <SCORE.INTRA>
-5.23584

>  <SCORE.INTRA.DIHEDRAL>
-12.0035

>  <SCORE.INTRA.DIHEDRAL.0>
23.9727

>  <SCORE.INTRA.POLAR>
0

>  <SCORE.INTRA.POLAR.0>
0

>  <SCORE.INTRA.REPUL>
0

>  <SCORE.INTRA.REPUL.0>
0

>  <SCORE.INTRA.SOLV>
0.0240276

>  <SCORE.INTRA.SOLV.lig_0>
-115.028

>  <SCORE.INTRA.VDW>
0.753879

>  <SCORE.INTRA.VDW.0>
-6.82393

>  <SCORE.INTRA.norm>
-0.100689

>  <SCORE.RESTR>
0

>  <SCORE.RESTR.CAVITY>
0

>  <SCORE.RESTR.norm>
0

>  <SCORE.SYSTEM>
0

>  <SCORE.SYSTEM.CONST>
0

>  <SCORE.SYSTEM.DIHEDRAL>
0

>  <SCORE.SYSTEM.SOLV>
0

>  <SCORE.SYSTEM.norm>
0

>  <SCORE.heavy>
52

>  <SCORE.norm>
-0.293902

>  <RMSD>
7.256

$$$$
2fd0_lig
 OpenBabel11021811433D
libRbt.so/2013.1/901 2013/11/27
 52 56  0  0  0  0  0  0  0  0999 V2000
    2.9799  -51.5238    7.7431 C   0  0  2  0  0  0  0  0  0  0  0  0
    2.0783  -51.2826    8.8320 O   0  0  0  0  0  0  0  0  0  0  0  0
    1.9843  -49.7063   12.8816 C   0  0  2  0  0  0  0  0  0  0  0  0
    2.3180  -48.9288   14.0862 N   0  0  0  0  0  0  0  0  0  0  0  0
   -0.3845  -48.3373    8.9417 C   0  0  1  0  0  0  0  0  0  0  0  0
   -3.1723  -46.8694    5.6096 C   0  0  1  0  0  0  0  0  0  0  0  0
   -7.5024  -49.2766    4.6638 C   0  0  1  0  0  0  0  0  0  0  0  0
    3.1550  -50.1875    6.9335 C   0  0  2  0  0  0  0  0  0  0  0  0
    3.6279  -49.0995    7.7782 N   0  0  0  0  0  0  0  0  0  0  0  0
    3.2391  -50.5669   12.4147 C   0  0  0  0  0  0  0  0  0  0  0  0
   -0.2779  -47.4698    7.7010 C   0  0  2  0  0  0  0  0  0  0  0  0
   -0.2602  -46.0500    8.0206 O   0  0  0  0  0  0  0  0  0  0  0  0
   -4.4940  -46.0242    5.9231 C   0  0  2  0  0  0  0  0  0  0  0  0
   -5.2522  -46.6391    7.0467 N   0  0  0  0  0  0  0  0  0  0  0  0
   -8.2983  -49.0867    5.9746 C   0  0  1  0  0  0  0  0  0  0  0  0
   -9.2367  -47.9958    5.8033 O   0  0  0  0  0  0  0  0  0  0  0  0
    1.8118  -49.8071    6.2073 C   0  0  0  0  0  0  0  0  0  0  0  0
    2.8700  -51.4210   11.1095 C   0  0  2  0  0  0  0  0  0  0  0  0
    4.0147  -52.2243   10.6553 N   0  0  0  0  0  0  0  0  0  0  0  0
   -1.4428  -47.9481    6.8507 C   0  0  2  0  0  0  0  0  0  0  0  0
   -2.4743  -46.9998    6.8136 O   0  0  0  0  0  0  0  0  0  0  0  0
   -5.3080  -45.8709    4.5357 C   0  0  1  0  0  0  0  0  0  0  0  0
   -4.4341  -45.2522    3.5742 O   0  0  0  0  0  0  0  0  0  0  0  0
   -9.0788  -50.3126    6.5215 C   0  0  1  0  0  0  0  0  0  0  0  0
  -10.4181  -50.2448    6.0156 O   0  0  0  0  0  0  0  0  0  0  0  0
    1.3709  -51.0130    5.3149 C   0  0  2  0  0  0  0  0  0  0  0  0
    0.1651  -50.7009    4.6243 O   0  0  0  0  0  0  0  0  0  0  0  0
    2.4134  -50.4549    9.9809 C   0  0  2  0  0  0  0  0  0  0  0  0
   -2.0628  -49.1988    7.5184 C   0  0  2  0  0  0  0  0  0  0  0  0
   -1.1474  -49.4720    8.5696 O   0  0  0  0  0  0  0  0  0  0  0  0
   -5.7252  -47.3066    3.9202 C   0  0  2  0  0  0  0  0  0  0  0  0
   -6.6084  -47.8781    4.9036 O   0  0  0  0  0  0  0  0  0  0  0  0
   -8.4884  -51.7009    6.1825 C   0  0  2  0  0  0  0  0  0  0  0  0
   -8.6260  -52.4892    7.3850 O   0  0  0  0  0  0  0  0  0  0  0  0
    1.1600  -52.2684    6.2089 C   0  0  2  0  0  0  0  0  0  0  0  0
    2.4372  -52.5674    6.8937 O   0  0  0  0  0  0  0  0  0  0  0  0
    1.2206  -49.5468   10.4093 C   0  0  2  0  0  0  0  0  0  0  0  0
    0.9202  -48.6691    9.2978 O   0  0  0  0  0  0  0  0  0  0  0  0
   -2.1500  -50.4321    6.6264 C   0  0  0  0  0  0  0  0  0  0  0  0
   -3.0830  -51.3323    7.2432 O   0  0  0  0  0  0  0  0  0  0  0  0
   -4.4475  -48.1238    3.8856 C   0  0  1  0  0  0  0  0  0  0  0  0
   -3.5130  -48.2324    4.9797 O   0  0  0  0  0  0  0  0  0  0  0  0
   -7.0476  -51.5793    5.6937 C   0  0  2  0  0  0  0  0  0  0  0  0
   -6.8472  -50.6168    4.6219 O   0  0  0  0  0  0  0  0  0  0  0  0
    0.7705  -53.4700    5.4081 C   0  0  0  0  0  0  0  0  0  0  0  0
    1.8376  -53.7882    4.5561 O   0  0  0  0  0  0  0  0  0  0  0  0
    1.5992  -48.7300   11.6985 C   0  0  1  0  0  0  0  0  0  0  0  0
    0.4362  -47.9272   12.1014 O   0  0  0  0  0  0  0  0  0  0  0  0
   -4.6615  -49.5850    3.3533 C   0  0  0  0  0  0  0  0  0  0  0  0
   -4.8468  -49.6615    1.8839 N   0  0  0  0  0  0  0  0  0  0  0  0
   -6.2283  -52.7999    5.2802 C   0  0  0  0  0  0  0  0  0  0  0  0
   -6.8895  -53.5095    4.1876 O   0  0  0  0  0  0  0  0  0  0  0  0
  1  2  1  1  0  0  0
  1  8  1  0  0  0  0
  1 36  1  0  0  0  0
  3  4  1  1  0  0  0
  3 10  1  0  0  0  0
  3 47  1  0  0  0  0
  5 11  1  0  0  0  0
  5 30  1  0  0  0  0
  5 38  1  6  0  0  0
  6 21  1  1  0  0  0
  6 42  1  0  0  0  0
  7 15  1  0  0  0  0
  7 44  1  0  0  0  0
  7 32  1  1  0  0  0
  8  9  1  1  0  0  0
  8 17  1  0  0  0  0
 11 12  1  1  0  0  0
 11 20  1  0  0  0  0
 13  6  1  0  0  0  0
 13 14  1  1  0  0  0
 15 16  1  6  0  0  0
 15 24  1  0  0  0  0
 17 26  1  0  0  0  0
 18 10  1  0  0  0  0
 18 19  1  6  0  0  0
 20 21  1  1  0  0  0
 20 29  1  0  0  0  0
 22 13  1  0  0  0  0
 22 23  1  6  0  0  0
 24 25  1  6  0  0  0
 24 33  1  0  0  0  0
 26 27  1  1  0  0  0
 26 35  1  0  0  0  0
 28  2  1  6  0  0  0
 28 18  1  0  0  0  0
 29 30  1  0  0  0  0
 29 39  1  6  0  0  0
 31 22  1  0  0  0  0
 31 32  1  1  0  0  0
 31 41  1  0  0  0  0
 33 34  1  1  0  0  0
 33 43  1  0  0  0  0
 35 36  1  0  0  0  0
 35 45  1  6  0  0  0
 37 28  1  0  0  0  0
 37 38  1  6  0  0  0
 39 40  1  0  0  0  0
 41 42  1  0  0  0  0
 41 49  1  1  0  0  0
 43 44  1  0  0  0  0
 43 51  1  6  0  0  0
 45 46  1  0  0  0  0
 47 37  1  0  0  0  0
 47 48  1  1  0  0  0
 49 50  1  0  0  0  0
 51 52  1  0  0  0  0
M  END
>  <CHROM.1>
-69.46909391,-177.08789673,166.13551755,-171.40618921,143.81914608,-97.47032990
-163.05784353,171.00797699,64.04731194,140.79425938,75.34889743,58.91660153
-2.19979071,-49.67156095,6.99843087,-0.18375698,0.41626227,-2.52672005

>  <Name>
2fd0_lig

>  <RI>
0

>  <Rbt.Current_Directory>
/home/itssahil/PROJECTS/Mol_Feturizer/New_Systems/rnas/2fd0

>  <Rbt.Executable>
rbdock ($Id: //depot/dev/client3/rdock/2013.1/src/exe/rbdock.cxx#4 $)

>  <Rbt.Library>
libRbt.so (2013.1, Build901 2013/11/27)

>  <Rbt.Parameter_File>
/export/apps/rDock/src/rDock_2013.1_src/data/scripts/dock_solv.prm

>  <Rbt.Receptor>
prm/pocket_docking_5.prm

>  <SCORE>
-4.1826

>  <SCORE.INTER>
-1.47589

>  <SCORE.INTER.CONST>
1

>  <SCORE.INTER.POLAR>
-0.91824

>  <SCORE.INTER.ROT>
12

>  <SCORE.INTER.SOLV>
10.5171

>  <SCORE.INTER.VDW>
-13.0288

>  <SCORE.INTER.norm>
-0.0283825

>  <SCORE.INTRA>
-2.7067

>  <SCORE.INTRA.DIHEDRAL>
-3.81823

>  <SCORE.INTRA.DIHEDRAL.0>
23.9727

>  <SCORE.INTRA.POLAR>
0

>  <SCORE.INTRA.POLAR.0>
0

>  <SCORE.INTRA.REPUL>
0.0173643

>  <SCORE.INTRA.REPUL.0>
0

>  <SCORE.INTRA.SOLV>
0.368268

>  <SCORE.INTRA.SOLV.lig_0>
-115.028

>  <SCORE.INTRA.VDW>
-1.06855

>  <SCORE.INTRA.VDW.0>
-6.82393

>  <SCORE.INTRA.norm>
-0.052052

>  <SCORE.RESTR>
0

>  <SCORE.RESTR.CAVITY>
0

>  <SCORE.RESTR.norm>
0

>  <SCORE.SYSTEM>
0

>  <SCORE.SYSTEM.CONST>
0

>  <SCORE.SYSTEM.DIHEDRAL>
0

>  <SCORE.SYSTEM.SOLV>
0

>  <SCORE.SYSTEM.norm>
0

>  <SCORE.heavy>
52

>  <SCORE.norm>
-0.0804345

>  <RMSD>
7.507

$$$$
2fd0_lig
 OpenBabel11021811433D
libRbt.so/2013.1/901 2013/11/27
 52 56  0  0  0  0  0  0  0  0999 V2000
    2.6985  -43.5332   13.3217 C   0  0  2  0  0  0  0  0  0  0  0  0
    1.5107  -42.9749   13.8998 O   0  0  0  0  0  0  0  0  0  0  0  0
   -2.6856  -43.7649   13.0876 C   0  0  2  0  0  0  0  0  0  0  0  0
   -4.0186  -43.7299   12.4639 N   0  0  0  0  0  0  0  0  0  0  0  0
    0.9319  -46.1193   11.3522 C   0  0  1  0  0  0  0  0  0  0  0  0
    3.1221  -49.8197   10.3694 C   0  0  1  0  0  0  0  0  0  0  0  0
    1.5172  -53.7297    7.8767 C   0  0  1  0  0  0  0  0  0  0  0  0
    3.8021  -43.6251   14.4376 C   0  0  2  0  0  0  0  0  0  0  0  0
    3.3539  -44.4083   15.5806 N   0  0  0  0  0  0  0  0  0  0  0  0
   -2.2452  -42.3014   13.5316 C   0  0  0  0  0  0  0  0  0  0  0  0
    2.2535  -46.2185   10.6126 C   0  0  2  0  0  0  0  0  0  0  0  0
    2.0956  -46.0475    9.1759 O   0  0  0  0  0  0  0  0  0  0  0  0
    3.3461  -50.5971    8.9892 C   0  0  2  0  0  0  0  0  0  0  0  0
    2.1408  -50.4813    8.1236 N   0  0  0  0  0  0  0  0  0  0  0  0
    1.5144  -55.1302    8.5297 C   0  0  1  0  0  0  0  0  0  0  0  0
    0.2093  -55.3788    9.1082 O   0  0  0  0  0  0  0  0  0  0  0  0
    4.2607  -42.1845   14.8743 C   0  0  0  0  0  0  0  0  0  0  0  0
   -0.7984  -42.3436   14.2203 C   0  0  2  0  0  0  0  0  0  0  0  0
   -0.3662  -41.0018   14.6381 N   0  0  0  0  0  0  0  0  0  0  0  0
    2.7986  -47.5612   11.0692 C   0  0  2  0  0  0  0  0  0  0  0  0
    2.7288  -48.5177   10.0470 O   0  0  0  0  0  0  0  0  0  0  0  0
    3.7991  -52.1047    9.3536 C   0  0  1  0  0  0  0  0  0  0  0  0
    4.9763  -52.0277   10.1777 O   0  0  0  0  0  0  0  0  0  0  0  0
    1.8807  -56.3404    7.6283 C   0  0  1  0  0  0  0  0  0  0  0  0
    0.6634  -56.8813    7.0995 O   0  0  0  0  0  0  0  0  0  0  0  0
    4.7354  -41.4078   13.6031 C   0  0  2  0  0  0  0  0  0  0  0  0
    5.1772  -40.1015   13.9592 O   0  0  0  0  0  0  0  0  0  0  0  0
    0.2252  -42.9472   13.2186 C   0  0  2  0  0  0  0  0  0  0  0  0
    1.8921  -48.1055   12.1991 C   0  0  2  0  0  0  0  0  0  0  0  0
    1.0221  -47.0111   12.4497 O   0  0  0  0  0  0  0  0  0  0  0  0
    2.6775  -52.8765   10.2257 C   0  0  2  0  0  0  0  0  0  0  0  0
    1.5298  -52.9448    9.3587 O   0  0  0  0  0  0  0  0  0  0  0  0
    2.8458  -56.0477    6.4563 C   0  0  2  0  0  0  0  0  0  0  0  0
    3.7563  -57.1681    6.4096 O   0  0  0  0  0  0  0  0  0  0  0  0
    3.5615  -41.3116   12.5870 C   0  0  2  0  0  0  0  0  0  0  0  0
    3.1447  -42.6861   12.2315 O   0  0  0  0  0  0  0  0  0  0  0  0
   -0.1911  -44.3603   12.7079 C   0  0  2  0  0  0  0  0  0  0  0  0
    0.8105  -44.7921   11.7559 O   0  0  0  0  0  0  0  0  0  0  0  0
    2.6134  -48.4513   13.4970 C   0  0  0  0  0  0  0  0  0  0  0  0
    3.2181  -47.2411   13.9776 O   0  0  0  0  0  0  0  0  0  0  0  0
    2.3532  -51.9528   11.3846 C   0  0  1  0  0  0  0  0  0  0  0  0
    2.0917  -50.5393   11.2589 O   0  0  0  0  0  0  0  0  0  0  0  0
    3.5422  -54.7024    6.6426 C   0  0  2  0  0  0  0  0  0  0  0  0
    2.6496  -53.5869    6.9152 O   0  0  0  0  0  0  0  0  0  0  0  0
    3.9624  -40.6084   11.3293 C   0  0  0  0  0  0  0  0  0  0  0  0
    5.0349  -41.3112   10.7623 O   0  0  0  0  0  0  0  0  0  0  0  0
   -1.6179  -44.2983   12.0498 C   0  0  1  0  0  0  0  0  0  0  0  0
   -1.9976  -45.6539   11.6285 O   0  0  0  0  0  0  0  0  0  0  0  0
    1.2352  -52.5165   12.3315 C   0  0  0  0  0  0  0  0  0  0  0  0
   -0.1233  -52.4748   11.7382 N   0  0  0  0  0  0  0  0  0  0  0  0
    4.5424  -54.1616    5.6231 C   0  0  0  0  0  0  0  0  0  0  0  0
    5.0797  -52.8785    6.0696 O   0  0  0  0  0  0  0  0  0  0  0  0
  1  2  1  1  0  0  0
  1  8  1  0  0  0  0
  1 36  1  0  0  0  0
  3  4  1  6  0  0  0
  3 10  1  0  0  0  0
  3 47  1  0  0  0  0
  5 11  1  0  0  0  0
  5 30  1  0  0  0  0
  5 38  1  1  0  0  0
  6 21  1  6  0  0  0
  6 42  1  0  0  0  0
  7 15  1  0  0  0  0
  7 44  1  0  0  0  0
  7 32  1  1  0  0  0
  8  9  1  1  0  0  0
  8 17  1  0  0  0  0
 11 12  1  6  0  0  0
 11 20  1  0  0  0  0
 13  6  1  0  0  0  0
 13 14  1  1  0  0  0
 15 16  1  6  0  0  0
 15 24  1  0  0  0  0
 17 26  1  0  0  0  0
 18 10  1  0  0  0  0
 18 19  1  6  0  0  0
 20 21  1  6  0  0  0
 20 29  1  0  0  0  0
 22 13  1  0  0  0  0
 22 23  1  1  0  0  0
 24 25  1  6  0  0  0
 24 33  1  0  0  0  0
 26 27  1  1  0  0  0
 26 35  1  0  0  0  0
 28  2  1  1  0  0  0
 28 18  1  0  0  0  0
 29 30  1  0  0  0  0
 29 39  1  1  0  0  0
 31 22  1  0  0  0  0
 31 32  1  6  0  0  0
 31 41  1  0  0  0  0
 33 34  1  1  0  0  0
 33 43  1  0  0  0  0
 35 36  1  0  0  0  0
 35 45  1  6  0  0  0
 37 28  1  0  0  0  0
 37 38  1  6  0  0  0
 39 40  1  0  0  0  0
 41 42  1  0  0  0  0
 41 49  1  6  0  0  0
 43 44  1  0  0  0  0
 43 51  1  6  0  0  0
 45 46  1  0  0  0  0
 47 37  1  0  0  0  0
 47 48  1  1  0  0  0
 49 50  1  0  0  0  0
 51 52  1  0  0  0  0
M  END
>  <CHROM.1>
-169.58462914,-167.82275237,-164.43599260,73.24637265,-176.03625129,176.57942281
60.74029620,61.01988362,58.49274828,164.01347778,-72.67325472,-178.44283302
2.00919298,-48.08610535,10.96893888,-1.63769708,-0.24732183,-2.73793594

>  <Name>
2fd0_lig

>  <RI>
0

>  <Rbt.Current_Directory>
/home/itssahil/PROJECTS/Mol_Feturizer/New_Systems/rnas/2fd0

>  <Rbt.Executable>
rbdock ($Id: //depot/dev/client3/rdock/2013.1/src/exe/rbdock.cxx#4 $)

>  <Rbt.Library>
libRbt.so (2013.1, Build901 2013/11/27)

>  <Rbt.Parameter_File>
/export/apps/rDock/src/rDock_2013.1_src/data/scripts/dock_solv.prm

>  <Rbt.Receptor>
prm/pocket_docking_8.prm

>  <SCORE>
-16.3652

>  <SCORE.INTER>
-9.15301

>  <SCORE.INTER.CONST>
1

>  <SCORE.INTER.POLAR>
-0.934424

>  <SCORE.INTER.ROT>
12

>  <SCORE.INTER.SOLV>
18.2106

>  <SCORE.INTER.VDW>
-20.6575

>  <SCORE.INTER.norm>
-0.176019

>  <SCORE.INTRA>
-7.21676

>  <SCORE.INTRA.DIHEDRAL>
-17.2928

>  <SCORE.INTRA.DIHEDRAL.0>
23.9727

>  <SCORE.INTRA.POLAR>
0

>  <SCORE.INTRA.POLAR.0>
0

>  <SCORE.INTRA.REPUL>
0

>  <SCORE.INTRA.REPUL.0>
0

>  <SCORE.INTRA.SOLV>
-1.11681

>  <SCORE.INTRA.SOLV.lig_0>
-115.028

>  <SCORE.INTRA.VDW>
1.98804

>  <SCORE.INTRA.VDW.0>
-6.82393

>  <SCORE.INTRA.norm>
-0.138784

>  <SCORE.RESTR>
0.00454097

>  <SCORE.RESTR.CAVITY>
0.00454097

>  <SCORE.RESTR.norm>
8.73264e-05

>  <SCORE.SYSTEM>
0

>  <SCORE.SYSTEM.CONST>
0

>  <SCORE.SYSTEM.DIHEDRAL>
0

>  <SCORE.SYSTEM.SOLV>
0

>  <SCORE.SYSTEM.norm>
0

>  <SCORE.heavy>
52

>  <SCORE.norm>
-0.314716

>  <RMSD>
7.520

$$$$
2fd0_lig
 OpenBabel11021811433D
libRbt.so/2013.1/901 2013/11/27
 52 56  0  0  0  0  0  0  0  0999 V2000
    2.4178  -48.3380    7.6051 C   0  0  2  0  0  0  0  0  0  0  0  0
    2.7581  -49.0415    8.8076 O   0  0  0  0  0  0  0  0  0  0  0  0
    4.4359  -53.0385    9.1259 C   0  0  2  0  0  0  0  0  0  0  0  0
    4.5479  -54.4996    9.2665 N   0  0  0  0  0  0  0  0  0  0  0  0
    1.5050  -51.4236    6.1933 C   0  0  1  0  0  0  0  0  0  0  0  0
   -1.7275  -50.7617    3.6099 C   0  0  1  0  0  0  0  0  0  0  0  0
   -6.5649  -50.9157    1.7384 C   0  0  1  0  0  0  0  0  0  0  0  0
    2.7456  -46.8138    7.8078 C   0  0  2  0  0  0  0  0  0  0  0  0
    4.1413  -46.6020    8.1653 N   0  0  0  0  0  0  0  0  0  0  0  0
    3.6641  -52.4213   10.3734 C   0  0  0  0  0  0  0  0  0  0  0  0
    0.9135  -50.6908    5.0030 C   0  0  2  0  0  0  0  0  0  0  0  0
   -0.0238  -49.6525    5.4048 O   0  0  0  0  0  0  0  0  0  0  0  0
   -2.9263  -50.3507    4.5863 C   0  0  2  0  0  0  0  0  0  0  0  0
   -3.7664  -51.5363    4.9087 N   0  0  0  0  0  0  0  0  0  0  0  0
   -7.3767  -49.6908    2.2160 C   0  0  1  0  0  0  0  0  0  0  0  0
   -6.7929  -48.4893    1.6542 O   0  0  0  0  0  0  0  0  0  0  0  0
    1.7779  -46.1829    8.8764 C   0  0  0  0  0  0  0  0  0  0  0  0
    3.5531  -50.8293   10.2235 C   0  0  2  0  0  0  0  0  0  0  0  0
    2.8408  -50.2337   11.3635 N   0  0  0  0  0  0  0  0  0  0  0  0
    0.3405  -51.8179    4.1605 C   0  0  2  0  0  0  0  0  0  0  0  0
   -1.0603  -51.8338    4.2094 O   0  0  0  0  0  0  0  0  0  0  0  0
   -3.7045  -49.1125    3.8989 C   0  0  1  0  0  0  0  0  0  0  0  0
   -2.7501  -48.0597    3.6713 O   0  0  0  0  0  0  0  0  0  0  0  0
   -8.8985  -49.6769    1.9078 C   0  0  1  0  0  0  0  0  0  0  0  0
   -9.0917  -48.9825    0.6689 O   0  0  0  0  0  0  0  0  0  0  0  0
    0.3034  -46.4395    8.4241 C   0  0  2  0  0  0  0  0  0  0  0  0
   -0.6062  -45.8663    9.3581 O   0  0  0  0  0  0  0  0  0  0  0  0
    2.8157  -50.4927    8.8974 C   0  0  2  0  0  0  0  0  0  0  0  0
    0.7848  -53.1684    4.7715 C   0  0  2  0  0  0  0  0  0  0  0  0
    1.7022  -52.7638    5.7776 O   0  0  0  0  0  0  0  0  0  0  0  0
   -4.3059  -49.5082    2.4512 C   0  0  2  0  0  0  0  0  0  0  0  0
   -5.2633  -50.5472    2.7297 O   0  0  0  0  0  0  0  0  0  0  0  0
   -9.5863  -51.0586    1.8165 C   0  0  2  0  0  0  0  0  0  0  0  0
  -10.8580  -50.9080    2.4847 O   0  0  0  0  0  0  0  0  0  0  0  0
    0.0550  -47.9712    8.3141 C   0  0  2  0  0  0  0  0  0  0  0  0
    1.0064  -48.5234    7.3244 O   0  0  0  0  0  0  0  0  0  0  0  0
    3.5019  -51.1243    7.6479 C   0  0  2  0  0  0  0  0  0  0  0  0
    2.7029  -50.7790    6.4910 O   0  0  0  0  0  0  0  0  0  0  0  0
    1.5090  -54.1056    3.8115 C   0  0  0  0  0  0  0  0  0  0  0  0
    0.6087  -54.3736    2.7258 O   0  0  0  0  0  0  0  0  0  0  0  0
   -3.1486  -50.1123    1.6785 C   0  0  1  0  0  0  0  0  0  0  0  0
   -2.2434  -51.1072    2.2010 O   0  0  0  0  0  0  0  0  0  0  0  0
   -8.7057  -52.1502    2.4186 C   0  0  2  0  0  0  0  0  0  0  0  0
   -7.3409  -52.1779    1.9166 O   0  0  0  0  0  0  0  0  0  0  0  0
   -1.3318  -48.2841    7.8492 C   0  0  0  0  0  0  0  0  0  0  0  0
   -2.2243  -47.9087    8.8632 O   0  0  0  0  0  0  0  0  0  0  0  0
    3.6132  -52.6831    7.8228 C   0  0  1  0  0  0  0  0  0  0  0  0
    4.3096  -53.2361    6.6529 O   0  0  0  0  0  0  0  0  0  0  0  0
   -3.5526  -50.6063    0.2442 C   0  0  0  0  0  0  0  0  0  0  0  0
   -2.4622  -51.3133   -0.4703 N   0  0  0  0  0  0  0  0  0  0  0  0
   -9.1398  -53.6139    2.4497 C   0  0  0  0  0  0  0  0  0  0  0  0
  -10.4113  -53.7521    3.1559 O   0  0  0  0  0  0  0  0  0  0  0  0
  1  2  1  1  0  0  0
  1  8  1  0  0  0  0
  1 36  1  0  0  0  0
  3  4  1  1  0  0  0
  3 10  1  0  0  0  0
  3 47  1  0  0  0  0
  5 11  1  0  0  0  0
  5 30  1  0  0  0  0
  5 38  1  6  0  0  0
  6 21  1  1  0  0  0
  6 42  1  0  0  0  0
  7 15  1  0  0  0  0
  7 44  1  0  0  0  0
  7 32  1  1  0  0  0
  8  9  1  1  0  0  0
  8 17  1  0  0  0  0
 11 12  1  1  0  0  0
 11 20  1  0  0  0  0
 13  6  1  0  0  0  0
 13 14  1  6  0  0  0
 15 16  1  6  0  0  0
 15 24  1  0  0  0  0
 17 26  1  0  0  0  0
 18 10  1  0  0  0  0
 18 19  1  1  0  0  0
 20 21  1  1  0  0  0
 20 29  1  0  0  0  0
 22 13  1  0  0  0  0
 22 23  1  6  0  0  0
 24 25  1  6  0  0  0
 24 33  1  0  0  0  0
 26 27  1  1  0  0  0
 26 35  1  0  0  0  0
 28  2  1  6  0  0  0
 28 18  1  0  0  0  0
 29 30  1  0  0  0  0
 29 39  1  6  0  0  0
 31 22  1  0  0  0  0
 31 32  1  1  0  0  0
 31 41  1  0  0  0  0
 33 34  1  1  0  0  0
 33 43  1  0  0  0  0
 35 36  1  0  0  0  0
 35 45  1  6  0  0  0
 37 28  1  0  0  0  0
 37 38  1  6  0  0  0
 39 40  1  0  0  0  0
 41 42  1  0  0  0  0
 41 49  1  6  0  0  0
 43 44  1  0  0  0  0
 43 51  1  6  0  0  0
 45 46  1  0  0  0  0
 47 37  1  0  0  0  0
 47 48  1  6  0  0  0
 49 50  1  0  0  0  0
 51 52  1  0  0  0  0
M  END
>  <CHROM.1>
-168.48227802,174.50156741,-138.10755577,-76.62441473,67.52617639,166.02883082
-59.44683534,155.78132766,-68.04121764,-77.03526117,-174.54088303,-57.44317070
-1.54288376,-50.49370089,5.22481089,0.32242782,-0.45469450,0.55396773

>  <Name>
2fd0_lig

>  <RI>
0

>  <Rbt.Current_Directory>
/home/itssahil/PROJECTS/Mol_Feturizer/New_Systems/rnas/2fd0

>  <Rbt.Executable>
rbdock ($Id: //depot/dev/client3/rdock/2013.1/src/exe/rbdock.cxx#4 $)

>  <Rbt.Library>
libRbt.so (2013.1, Build901 2013/11/27)

>  <Rbt.Parameter_File>
/export/apps/rDock/src/rDock_2013.1_src/data/scripts/dock_solv.prm

>  <Rbt.Receptor>
prm/pocket_docking_6.prm

>  <SCORE>
-12.8814

>  <SCORE.INTER>
-9.51793

>  <SCORE.INTER.CONST>
1

>  <SCORE.INTER.POLAR>
-1.76694

>  <SCORE.INTER.ROT>
12

>  <SCORE.INTER.SOLV>
14.3704

>  <SCORE.INTER.VDW>
-16.8456

>  <SCORE.INTER.norm>
-0.183037

>  <SCORE.INTRA>
-3.3635

>  <SCORE.INTRA.DIHEDRAL>
-9.30663

>  <SCORE.INTRA.DIHEDRAL.0>
23.9727

>  <SCORE.INTRA.POLAR>
0

>  <SCORE.INTRA.POLAR.0>
0

>  <SCORE.INTRA.REPUL>
0

>  <SCORE.INTRA.REPUL.0>
0

>  <SCORE.INTRA.SOLV>
-3.79435

>  <SCORE.INTRA.SOLV.lig_0>
-115.028

>  <SCORE.INTRA.VDW>
3.18699

>  <SCORE.INTRA.VDW.0>
-6.82393

>  <SCORE.INTRA.norm>
-0.0646827

>  <SCORE.RESTR>
0

>  <SCORE.RESTR.CAVITY>
0

>  <SCORE.RESTR.norm>
0

>  <SCORE.SYSTEM>
0

>  <SCORE.SYSTEM.CONST>
0

>  <SCORE.SYSTEM.DIHEDRAL>
0

>  <SCORE.SYSTEM.SOLV>
0

>  <SCORE.SYSTEM.norm>
0

>  <SCORE.heavy>
52

>  <SCORE.norm>
-0.24772

>  <RMSD>
7.885

$$$$
2fd0_lig
 OpenBabel11021811433D
libRbt.so/2013.1/901 2013/11/27
 52 56  0  0  0  0  0  0  0  0999 V2000
    8.5984  -52.8561   21.6689 C   0  0  2  0  0  0  0  0  0  0  0  0
    8.0188  -53.2591   20.4204 O   0  0  0  0  0  0  0  0  0  0  0  0
   11.4375  -54.2812   17.9384 C   0  0  2  0  0  0  0  0  0  0  0  0
   12.2682  -54.8905   16.8869 N   0  0  0  0  0  0  0  0  0  0  0  0
    8.4786  -50.9778   16.9134 C   0  0  1  0  0  0  0  0  0  0  0  0
    6.4466  -47.7355   14.3819 C   0  0  1  0  0  0  0  0  0  0  0  0
    3.4055  -47.7153   10.1954 C   0  0  1  0  0  0  0  0  0  0  0  0
    7.4454  -52.3750   22.6232 C   0  0  2  0  0  0  0  0  0  0  0  0
    6.4371  -53.4074   22.8191 N   0  0  0  0  0  0  0  0  0  0  0  0
   10.7680  -55.4111   18.8373 C   0  0  0  0  0  0  0  0  0  0  0  0
    7.1372  -50.7456   16.2423 C   0  0  2  0  0  0  0  0  0  0  0  0
    7.0104  -51.4826   14.9937 O   0  0  0  0  0  0  0  0  0  0  0  0
    5.0124  -48.3371   14.0068 C   0  0  2  0  0  0  0  0  0  0  0  0
    5.1546  -49.4632   13.0440 N   0  0  0  0  0  0  0  0  0  0  0  0
    3.4349  -46.3103    9.5529 C   0  0  1  0  0  0  0  0  0  0  0  0
    4.5769  -46.2210    8.6652 O   0  0  0  0  0  0  0  0  0  0  0  0
    6.8049  -51.0439   22.0807 C   0  0  0  0  0  0  0  0  0  0  0  0
    9.8730  -54.7451   19.9883 C   0  0  2  0  0  0  0  0  0  0  0  0
    9.2401  -55.7690   20.8326 N   0  0  0  0  0  0  0  0  0  0  0  0
    7.0690  -49.2317   16.1338 C   0  0  2  0  0  0  0  0  0  0  0  0
    7.2397  -48.8039   14.8099 O   0  0  0  0  0  0  0  0  0  0  0  0
    4.0897  -47.1077   13.5086 C   0  0  1  0  0  0  0  0  0  0  0  0
    4.0537  -46.1252   14.5595 O   0  0  0  0  0  0  0  0  0  0  0  0
    2.1756  -45.8573    8.7655 C   0  0  1  0  0  0  0  0  0  0  0  0
    2.3716  -46.1962    7.3867 O   0  0  0  0  0  0  0  0  0  0  0  0
    7.9395  -49.9827   21.9043 C   0  0  2  0  0  0  0  0  0  0  0  0
    7.3969  -48.7541   21.4309 O   0  0  0  0  0  0  0  0  0  0  0  0
    8.7873  -53.8463   19.3333 C   0  0  2  0  0  0  0  0  0  0  0  0
    8.2591  -48.6249   16.9148 C   0  0  2  0  0  0  0  0  0  0  0  0
    8.8169  -49.7619   17.5577 O   0  0  0  0  0  0  0  0  0  0  0  0
    4.7159  -46.3713   12.2125 C   0  0  2  0  0  0  0  0  0  0  0  0
    4.7161  -47.3827   11.1875 O   0  0  0  0  0  0  0  0  0  0  0  0
    0.8285  -46.4516    9.2374 C   0  0  2  0  0  0  0  0  0  0  0  0
   -0.1204  -45.3639    9.1816 O   0  0  0  0  0  0  0  0  0  0  0  0
    8.9969  -50.5182   20.8969 C   0  0  2  0  0  0  0  0  0  0  0  0
    9.5463  -51.7832   21.4330 O   0  0  0  0  0  0  0  0  0  0  0  0
    9.3907  -52.7570   18.3951 C   0  0  2  0  0  0  0  0  0  0  0  0
    8.2868  -52.0207   17.8159 O   0  0  0  0  0  0  0  0  0  0  0  0
    7.8792  -47.6075   17.9849 C   0  0  0  0  0  0  0  0  0  0  0  0
    8.9341  -46.6349   18.0341 O   0  0  0  0  0  0  0  0  0  0  0  0
    6.1536  -46.0532   12.5775 C   0  0  1  0  0  0  0  0  0  0  0  0
    7.0696  -46.9840   13.1912 O   0  0  0  0  0  0  0  0  0  0  0  0
    0.9605  -47.0761   10.6238 C   0  0  2  0  0  0  0  0  0  0  0  0
    2.0599  -48.0177   10.7655 O   0  0  0  0  0  0  0  0  0  0  0  0
   10.1314  -49.5616   20.7107 C   0  0  0  0  0  0  0  0  0  0  0  0
    9.6313  -48.4123   20.0826 O   0  0  0  0  0  0  0  0  0  0  0  0
   10.2757  -53.4311   17.2837 C   0  0  1  0  0  0  0  0  0  0  0  0
   10.8678  -52.3737   16.4526 O   0  0  0  0  0  0  0  0  0  0  0  0
    6.9509  -45.3670   11.4122 C   0  0  0  0  0  0  0  0  0  0  0  0
    7.9488  -44.3740   11.8785 N   0  0  0  0  0  0  0  0  0  0  0  0
   -0.2195  -47.7456   11.3248 C   0  0  0  0  0  0  0  0  0  0  0  0
   -1.2263  -48.1534   10.3478 O   0  0  0  0  0  0  0  0  0  0  0  0
  1  2  1  6  0  0  0
  1  8  1  0  0  0  0
  1 36  1  0  0  0  0
  3  4  1  6  0  0  0
  3 10  1  0  0  0  0
  3 47  1  0  0  0  0
  5 11  1  0  0  0  0
  5 30  1  0  0  0  0
  5 38  1  1  0  0  0
  6 21  1  6  0  0  0
  6 42  1  0  0  0  0
  7 15  1  0  0  0  0
  7 44  1  0  0  0  0
  7 32  1  1  0  0  0
  8  9  1  6  0  0  0
  8 17  1  0  0  0  0
 11 12  1  6  0  0  0
 11 20  1  0  0  0  0
 13  6  1  0  0  0  0
 13 14  1  6  0  0  0
 15 16  1  6  0  0  0
 15 24  1  0  0  0  0
 17 26  1  0  0  0  0
 18 10  1  0  0  0  0
 18 19  1  6  0  0  0
 20 21  1  6  0  0  0
 20 29  1  0  0  0  0
 22 13  1  0  0  0  0
 22 23  1  1  0  0  0
 24 25  1  6  0  0  0
 24 33  1  0  0  0  0
 26 27  1  6  0  0  0
 26 35  1  0  0  0  0
 28  2  1  1  0  0  0
 28 18  1  0  0  0  0
 29 30  1  0  0  0  0
 29 39  1  1  0  0  0
 31 22  1  0  0  0  0
 31 32  1  6  0  0  0
 31 41  1  0  0  0  0
 33 34  1  1  0  0  0
 33 43  1  0  0  0  0
 35 36  1  0  0  0  0
 35 45  1  1  0  0  0
 37 28  1  0  0  0  0
 37 38  1  6  0  0  0
 39 40  1  0  0  0  0
 41 42  1  0  0  0  0
 41 49  1  6  0  0  0
 43 44  1  0  0  0  0
 43 51  1  6  0  0  0
 45 46  1  0  0  0  0
 47 37  1  0  0  0  0
 47 48  1  6  0  0  0
 49 50  1  0  0  0  0
 51 52  1  0  0  0  0
M  END
>  <CHROM.1>
-175.67410702,163.82148109,-80.86239785,63.34904906,140.83041762,36.25886142
-146.71486113,85.76068558,-66.52980073,-179.32001476,145.71982611,22.06616272
6.58174269,-49.49105044,15.68094677,0.23736015,-1.03661199,0.81446288

>  <Name>
2fd0_lig

>  <RI>
0

>  <Rbt.Current_Directory>
/home/itssahil/PROJECTS/Mol_Feturizer/New_Systems/rnas/2fd0

>  <Rbt.Executable>
rbdock ($Id: //depot/dev/client3/rdock/2013.1/src/exe/rbdock.cxx#4 $)

>  <Rbt.Library>
libRbt.so (2013.1, Build901 2013/11/27)

>  <Rbt.Parameter_File>
/export/apps/rDock/src/rDock_2013.1_src/data/scripts/dock_solv.prm

>  <Rbt.Receptor>
prm/pocket_docking_8.prm

>  <SCORE>
-11.3887

>  <SCORE.INTER>
-11.1905

>  <SCORE.INTER.CONST>
1

>  <SCORE.INTER.POLAR>
-1.83172

>  <SCORE.INTER.ROT>
12

>  <SCORE.INTER.SOLV>
14.332

>  <SCORE.INTER.VDW>
-17.7319

>  <SCORE.INTER.norm>
-0.215201

>  <SCORE.INTRA>
-0.19823

>  <SCORE.INTRA.DIHEDRAL>
-0.211508

>  <SCORE.INTRA.DIHEDRAL.0>
23.9727

>  <SCORE.INTRA.POLAR>
0

>  <SCORE.INTRA.POLAR.0>
0

>  <SCORE.INTRA.REPUL>
0

>  <SCORE.INTRA.REPUL.0>
0

>  <SCORE.INTRA.SOLV>
-1.68059

>  <SCORE.INTRA.SOLV.lig_0>
-115.028

>  <SCORE.INTRA.VDW>
0.747821

>  <SCORE.INTRA.VDW.0>
-6.82393

>  <SCORE.INTRA.norm>
-0.00381211

>  <SCORE.RESTR>
0

>  <SCORE.RESTR.CAVITY>
0

>  <SCORE.RESTR.norm>
0

>  <SCORE.SYSTEM>
0

>  <SCORE.SYSTEM.CONST>
0

>  <SCORE.SYSTEM.DIHEDRAL>
0

>  <SCORE.SYSTEM.SOLV>
0

>  <SCORE.SYSTEM.norm>
0

>  <SCORE.heavy>
52

>  <SCORE.norm>
-0.219013

>  <RMSD>
8.748

$$$$
2fd0_lig
 OpenBabel11021811433D
libRbt.so/2013.1/901 2013/11/27
 52 56  0  0  0  0  0  0  0  0999 V2000
    3.2560  -54.6393    7.0701 C   0  0  2  0  0  0  0  0  0  0  0  0
    3.5689  -55.1335    5.7606 O   0  0  0  0  0  0  0  0  0  0  0  0
    1.4305  -55.5985    2.0052 C   0  0  2  0  0  0  0  0  0  0  0  0
    0.4641  -56.0613    0.9958 N   0  0  0  0  0  0  0  0  0  0  0  0
    0.2145  -52.6857    5.3289 C   0  0  1  0  0  0  0  0  0  0  0  0
   -2.3996  -50.3094    7.9223 C   0  0  1  0  0  0  0  0  0  0  0  0
   -4.1486  -45.9068    9.9489 C   0  0  1  0  0  0  0  0  0  0  0  0
    4.6015  -54.3671    7.8364 C   0  0  2  0  0  0  0  0  0  0  0  0
    5.4591  -53.4382    7.1136 N   0  0  0  0  0  0  0  0  0  0  0  0
    2.2582  -56.8292    2.5823 C   0  0  0  0  0  0  0  0  0  0  0  0
   -0.4141  -52.4817    6.6952 C   0  0  2  0  0  0  0  0  0  0  0  0
   -1.7316  -53.0923    6.7929 O   0  0  0  0  0  0  0  0  0  0  0  0
   -3.8657  -49.8385    7.4885 C   0  0  2  0  0  0  0  0  0  0  0  0
   -3.7938  -48.6002    6.6657 N   0  0  0  0  0  0  0  0  0  0  0  0
   -4.5749  -45.1505    8.6706 C   0  0  1  0  0  0  0  0  0  0  0  0
   -5.9797  -45.4023    8.4195 O   0  0  0  0  0  0  0  0  0  0  0  0
    5.3457  -55.7212    8.1344 C   0  0  0  0  0  0  0  0  0  0  0  0
    3.3174  -56.3215    3.6730 C   0  0  2  0  0  0  0  0  0  0  0  0
    4.0946  -57.4411    4.2247 N   0  0  0  0  0  0  0  0  0  0  0  0
   -0.3626  -50.9734    6.8712 C   0  0  2  0  0  0  0  0  0  0  0  0
   -1.6362  -50.3995    6.7549 O   0  0  0  0  0  0  0  0  0  0  0  0
   -4.7544  -49.7297    8.8336 C   0  0  1  0  0  0  0  0  0  0  0  0
   -4.7233  -51.0094    9.4911 O   0  0  0  0  0  0  0  0  0  0  0  0
   -4.3470  -43.6149    8.6385 C   0  0  1  0  0  0  0  0  0  0  0  0
   -5.5503  -42.9805    9.0899 O   0  0  0  0  0  0  0  0  0  0  0  0
    4.3720  -56.6613    8.9172 C   0  0  2  0  0  0  0  0  0  0  0  0
    5.0158  -57.8943    9.2229 O   0  0  0  0  0  0  0  0  0  0  0  0
    2.5610  -55.5830    4.8124 C   0  0  2  0  0  0  0  0  0  0  0  0
    0.4647  -50.3674    5.7124 C   0  0  2  0  0  0  0  0  0  0  0  0
    0.9789  -51.5222    5.0648 O   0  0  0  0  0  0  0  0  0  0  0  0
   -4.1373  -48.6613    9.8785 C   0  0  2  0  0  0  0  0  0  0  0  0
   -4.2045  -47.3999    9.1872 O   0  0  0  0  0  0  0  0  0  0  0  0
   -3.1607  -43.0859    9.4773 C   0  0  2  0  0  0  0  0  0  0  0  0
   -2.5313  -42.0687    8.6676 O   0  0  0  0  0  0  0  0  0  0  0  0
    3.1035  -56.9250    8.0562 C   0  0  2  0  0  0  0  0  0  0  0  0
    2.4572  -55.6238    7.7757 O   0  0  0  0  0  0  0  0  0  0  0  0
    1.6877  -54.4016    4.2904 C   0  0  2  0  0  0  0  0  0  0  0  0
    1.0048  -53.8277    5.4308 O   0  0  0  0  0  0  0  0  0  0  0  0
    1.6396  -49.4963    6.1429 C   0  0  0  0  0  0  0  0  0  0  0  0
    1.1009  -48.4206    6.9264 O   0  0  0  0  0  0  0  0  0  0  0  0
   -2.6787  -49.0451   10.0425 C   0  0  1  0  0  0  0  0  0  0  0  0
   -1.7821  -49.3466    8.9529 O   0  0  0  0  0  0  0  0  0  0  0  0
   -2.2195  -44.2207    9.8723 C   0  0  2  0  0  0  0  0  0  0  0  0
   -2.8702  -45.3632   10.4943 O   0  0  0  0  0  0  0  0  0  0  0  0
    2.1125  -57.7919    8.7657 C   0  0  0  0  0  0  0  0  0  0  0  0
    1.6223  -57.0778    9.8681 O   0  0  0  0  0  0  0  0  0  0  0  0
    0.6669  -54.9195    3.2123 C   0  0  1  0  0  0  0  0  0  0  0  0
   -0.1010  -53.7729    2.7070 O   0  0  0  0  0  0  0  0  0  0  0  0
   -1.8890  -48.0822   10.9983 C   0  0  0  0  0  0  0  0  0  0  0  0
   -2.1569  -48.3212   12.4372 N   0  0  0  0  0  0  0  0  0  0  0  0
   -0.9689  -43.9780   10.7143 C   0  0  0  0  0  0  0  0  0  0  0  0
   -1.3386  -43.5789   12.0702 O   0  0  0  0  0  0  0  0  0  0  0  0
  1  2  1  6  0  0  0
  1  8  1  0  0  0  0
  1 36  1  0  0  0  0
  3  4  1  6  0  0  0
  3 10  1  0  0  0  0
  3 47  1  0  0  0  0
  5 11  1  0  0  0  0
  5 30  1  0  0  0  0
  5 38  1  1  0  0  0
  6 21  1  6  0  0  0
  6 42  1  0  0  0  0
  7 15  1  0  0  0  0
  7 44  1  0  0  0  0
  7 32  1  6  0  0  0
  8  9  1  6  0  0  0
  8 17  1  0  0  0  0
 11 12  1  6  0  0  0
 11 20  1  0  0  0  0
 13  6  1  0  0  0  0
 13 14  1  1  0  0  0
 15 16  1  1  0  0  0
 15 24  1  0  0  0  0
 17 26  1  0  0  0  0
 18 10  1  0  0  0  0
 18 19  1  1  0  0  0
 20 21  1  6  0  0  0
 20 29  1  0  0  0  0
 22 13  1  0  0  0  0
 22 23  1  1  0  0  0
 24 25  1  1  0  0  0
 24 33  1  0  0  0  0
 26 27  1  6  0  0  0
 26 35  1  0  0  0  0
 28  2  1  1  0  0  0
 28 18  1  0  0  0  0
 29 30  1  0  0  0  0
 29 39  1  1  0  0  0
 31 22  1  0  0  0  0
 31 32  1  6  0  0  0
 31 41  1  0  0  0  0
 33 34  1  6  0  0  0
 33 43  1  0  0  0  0
 35 36  1  0  0  0  0
 35 45  1  1  0  0  0
 37 28  1  0  0  0  0
 37 38  1  1  0  0  0
 39 40  1  0  0  0  0
 41 42  1  0  0  0  0
 41 49  1  6  0  0  0
 43 44  1  0  0  0  0
 43 51  1  1  0  0  0
 45 46  1  0  0  0  0
 47 37  1  0  0  0  0
 47 48  1  6  0  0  0
 49 50  1  0  0  0  0
 51 52  1  0  0  0  0
M  END
>  <CHROM.1>
175.33778763,175.11433159,-171.48000701,-168.38487492,88.36207098,-167.60443754
-59.44238668,160.11921296,66.39878835,175.20227996,77.22255789,67.59549798
-0.32264398,-51.01872558,7.46812832,-0.73379121,-0.84363035,1.03539161

>  <Name>
2fd0_lig

>  <RI>
0

>  <Rbt.Current_Directory>
/home/itssahil/PROJECTS/Mol_Feturizer/New_Systems/rnas/2fd0

>  <Rbt.Executable>
rbdock ($Id: //depot/dev/client3/rdock/2013.1/src/exe/rbdock.cxx#4 $)

>  <Rbt.Library>
libRbt.so (2013.1, Build901 2013/11/27)

>  <Rbt.Parameter_File>
/export/apps/rDock/src/rDock_2013.1_src/data/scripts/dock_solv.prm

>  <Rbt.Receptor>
prm/pocket_docking_8.prm

>  <SCORE>
-19.6508

>  <SCORE.INTER>
-11.2938

>  <SCORE.INTER.CONST>
1

>  <SCORE.INTER.POLAR>
-0.973138

>  <SCORE.INTER.ROT>
12

>  <SCORE.INTER.SOLV>
12.3748

>  <SCORE.INTER.VDW>
-20.0104

>  <SCORE.INTER.norm>
-0.217189

>  <SCORE.INTRA>
-8.35691

>  <SCORE.INTRA.DIHEDRAL>
-14.3039

>  <SCORE.INTRA.DIHEDRAL.0>
23.9727

>  <SCORE.INTRA.POLAR>
0

>  <SCORE.INTRA.POLAR.0>
0

>  <SCORE.INTRA.REPUL>
0

>  <SCORE.INTRA.REPUL.0>
0

>  <SCORE.INTRA.SOLV>
-3.98503

>  <SCORE.INTRA.SOLV.lig_0>
-115.028

>  <SCORE.INTRA.VDW>
0.787543

>  <SCORE.INTRA.VDW.0>
-6.82393

>  <SCORE.INTRA.norm>
-0.16071

>  <SCORE.RESTR>
0

>  <SCORE.RESTR.CAVITY>
0

>  <SCORE.RESTR.norm>
0

>  <SCORE.SYSTEM>
0

>  <SCORE.SYSTEM.CONST>
0

>  <SCORE.SYSTEM.DIHEDRAL>
0

>  <SCORE.SYSTEM.SOLV>
0

>  <SCORE.SYSTEM.norm>
0

>  <SCORE.heavy>
52

>  <SCORE.norm>
-0.377899

>  <RMSD>
9.848

$$$$
2fd0_lig
 OpenBabel11021811433D
libRbt.so/2013.1/901 2013/11/27
 52 56  0  0  0  0  0  0  0  0999 V2000
    2.8182  -54.1370    5.2230 C   0  0  2  0  0  0  0  0  0  0  0  0
    1.7812  -53.7188    6.1212 O   0  0  0  0  0  0  0  0  0  0  0  0
    2.4534  -49.4409    6.4954 C   0  0  2  0  0  0  0  0  0  0  0  0
    2.3256  -48.0390    6.9258 N   0  0  0  0  0  0  0  0  0  0  0  0
    2.3954  -52.7672    9.5328 C   0  0  1  0  0  0  0  0  0  0  0  0
    1.9833  -50.8372   13.5495 C   0  0  1  0  0  0  0  0  0  0  0  0
    2.3835  -45.6642   13.4718 C   0  0  1  0  0  0  0  0  0  0  0  0
    2.5385  -55.6233    4.7937 C   0  0  2  0  0  0  0  0  0  0  0  0
    1.2233  -55.7744    4.1870 N   0  0  0  0  0  0  0  0  0  0  0  0
    1.0787  -49.9579    5.8824 C   0  0  0  0  0  0  0  0  0  0  0  0
    3.0203  -51.8555   10.5729 C   0  0  2  0  0  0  0  0  0  0  0  0
    3.8863  -52.5792   11.4918 O   0  0  0  0  0  0  0  0  0  0  0  0
    0.9530  -49.6171   13.6471 C   0  0  2  0  0  0  0  0  0  0  0  0
    0.8243  -48.9364   12.3298 N   0  0  0  0  0  0  0  0  0  0  0  0
    3.7571  -45.2212   14.0239 C   0  0  1  0  0  0  0  0  0  0  0  0
    4.7498  -45.3459   12.9756 O   0  0  0  0  0  0  0  0  0  0  0  0
    2.7180  -56.5911    6.0216 C   0  0  0  0  0  0  0  0  0  0  0  0
    1.2235  -51.4810    5.4044 C   0  0  2  0  0  0  0  0  0  0  0  0
   -0.0354  -51.9845    4.8356 N   0  0  0  0  0  0  0  0  0  0  0  0
    1.8142  -51.1698   11.1924 C   0  0  2  0  0  0  0  0  0  0  0  0
    1.5638  -51.6436   12.4876 O   0  0  0  0  0  0  0  0  0  0  0  0
    1.4326  -48.6784   14.8717 C   0  0  1  0  0  0  0  0  0  0  0  0
    1.4891  -49.4909   16.0582 O   0  0  0  0  0  0  0  0  0  0  0  0
    3.8613  -43.7908   14.6190 C   0  0  1  0  0  0  0  0  0  0  0  0
    4.2989  -42.9098   13.5765 O   0  0  0  0  0  0  0  0  0  0  0  0
    4.1498  -56.3816    6.6139 C   0  0  2  0  0  0  0  0  0  0  0  0
    4.3591  -57.2549    7.7193 O   0  0  0  0  0  0  0  0  0  0  0  0
    1.6510  -52.3565    6.6153 C   0  0  2  0  0  0  0  0  0  0  0  0
    0.5565  -51.5430   10.3718 C   0  0  2  0  0  0  0  0  0  0  0  0
    1.1077  -52.2405    9.2640 O   0  0  0  0  0  0  0  0  0  0  0  0
    2.9247  -48.1006   14.6392 C   0  0  2  0  0  0  0  0  0  0  0  0
    2.8158  -47.2845   13.4578 O   0  0  0  0  0  0  0  0  0  0  0  0
    2.5680  -43.2186   15.2440 C   0  0  2  0  0  0  0  0  0  0  0  0
    2.9828  -42.5399   16.4498 O   0  0  0  0  0  0  0  0  0  0  0  0
    4.3102  -54.9028    7.0691 C   0  0  2  0  0  0  0  0  0  0  0  0
    4.1020  -54.0319    5.8911 O   0  0  0  0  0  0  0  0  0  0  0  0
    2.9651  -51.8555    7.2885 C   0  0  2  0  0  0  0  0  0  0  0  0
    3.2312  -52.7184    8.4201 O   0  0  0  0  0  0  0  0  0  0  0  0
   -0.2449  -50.3591    9.8419 C   0  0  0  0  0  0  0  0  0  0  0  0
   -1.3876  -50.8965    9.1588 O   0  0  0  0  0  0  0  0  0  0  0  0
    3.7849  -49.3075   14.3150 C   0  0  1  0  0  0  0  0  0  0  0  0
    3.4291  -50.3389   13.3706 O   0  0  0  0  0  0  0  0  0  0  0  0
    1.5417  -44.3219   15.4867 C   0  0  2  0  0  0  0  0  0  0  0  0
    1.2716  -45.1668   14.3340 O   0  0  0  0  0  0  0  0  0  0  0  0
    5.6754  -54.6271    7.6144 C   0  0  0  0  0  0  0  0  0  0  0  0
    5.7098  -55.0725    8.9433 O   0  0  0  0  0  0  0  0  0  0  0  0
    2.8055  -50.3565    7.7359 C   0  0  1  0  0  0  0  0  0  0  0  0
    4.0772  -49.9044    8.3173 O   0  0  0  0  0  0  0  0  0  0  0  0
    5.2795  -48.9380   14.0086 C   0  0  0  0  0  0  0  0  0  0  0  0
    6.2336  -50.0383   14.2888 N   0  0  0  0  0  0  0  0  0  0  0  0
    0.1683  -44.0309   16.0875 C   0  0  0  0  0  0  0  0  0  0  0  0
   -0.6125  -43.1873   15.1858 O   0  0  0  0  0  0  0  0  0  0  0  0
  1  2  1  1  0  0  0
  1  8  1  0  0  0  0
  1 36  1  0  0  0  0
  3  4  1  1  0  0  0
  3 10  1  0  0  0  0
  3 47  1  0  0  0  0
  5 11  1  0  0  0  0
  5 30  1  0  0  0  0
  5 38  1  6  0  0  0
  6 21  1  6  0  0  0
  6 42  1  0  0  0  0
  7 15  1  0  0  0  0
  7 44  1  0  0  0  0
  7 32  1  1  0  0  0
  8  9  1  1  0  0  0
  8 17  1  0  0  0  0
 11 12  1  1  0  0  0
 11 20  1  0  0  0  0
 13  6  1  0  0  0  0
 13 14  1  6  0  0  0
 15 16  1  6  0  0  0
 15 24  1  0  0  0  0
 17 26  1  0  0  0  0
 18 10  1  0  0  0  0
 18 19  1  1  0  0  0
 20 21  1  1  0  0  0
 20 29  1  0  0  0  0
 22 13  1  0  0  0  0
 22 23  1  1  0  0  0
 24 25  1  6  0  0  0
 24 33  1  0  0  0  0
 26 27  1  1  0  0  0
 26 35  1  0  0  0  0
 28  2  1  6  0  0  0
 28 18  1  0  0  0  0
 29 30  1  0  0  0  0
 29 39  1  6  0  0  0
 31 22  1  0  0  0  0
 31 32  1  6  0  0  0
 31 41  1  0  0  0  0
 33 34  1  1  0  0  0
 33 43  1  0  0  0  0
 35 36  1  0  0  0  0
 35 45  1  6  0  0  0
 37 28  1  0  0  0  0
 37 38  1  1  0  0  0
 39 40  1  0  0  0  0
 41 42  1  0  0  0  0
 41 49  1  6  0  0  0
 43 44  1  0  0  0  0
 43 51  1  6  0  0  0
 45 46  1  0  0  0  0
 47 37  1  0  0  0  0
 47 48  1  6  0  0  0
 49 50  1  0  0  0  0
 51 52  1  0  0  0  0
M  END
>  <CHROM.1>
-173.81656929,-97.34926599,75.09777017,74.11968170,101.53548930,69.27610027
-177.84943938,87.55073865,-80.95446812,-65.57123305,153.97152421,64.66249238
2.54747934,-50.14217088,10.57463378,1.51036345,0.96704892,-2.34375436

>  <Name>
2fd0_lig

>  <RI>
0

>  <Rbt.Current_Directory>
/home/itssahil/PROJECTS/Mol_Feturizer/New_Systems/rnas/2fd0

>  <Rbt.Executable>
rbdock ($Id: //depot/dev/client3/rdock/2013.1/src/exe/rbdock.cxx#4 $)

>  <Rbt.Library>
libRbt.so (2013.1, Build901 2013/11/27)

>  <Rbt.Parameter_File>
/export/apps/rDock/src/rDock_2013.1_src/data/scripts/dock_solv.prm

>  <Rbt.Receptor>
prm/pocket_docking_8.prm

>  <SCORE>
-20.2921

>  <SCORE.INTER>
-19.4726

>  <SCORE.INTER.CONST>
1

>  <SCORE.INTER.POLAR>
-3.31719

>  <SCORE.INTER.ROT>
12

>  <SCORE.INTER.SOLV>
17.1121

>  <SCORE.INTER.VDW>
-19.2284

>  <SCORE.INTER.norm>
-0.374473

>  <SCORE.INTRA>
-0.819476

>  <SCORE.INTRA.DIHEDRAL>
-3.01746

>  <SCORE.INTRA.DIHEDRAL.0>
23.9727

>  <SCORE.INTRA.POLAR>
0

>  <SCORE.INTRA.POLAR.0>
0

>  <SCORE.INTRA.REPUL>
0

>  <SCORE.INTRA.REPUL.0>
0

>  <SCORE.INTRA.SOLV>
-0.353829

>  <SCORE.INTRA.SOLV.lig_0>
-115.028

>  <SCORE.INTRA.VDW>
0.866168

>  <SCORE.INTRA.VDW.0>
-6.82393

>  <SCORE.INTRA.norm>
-0.0157592

>  <SCORE.RESTR>
0

>  <SCORE.RESTR.CAVITY>
0

>  <SCORE.RESTR.norm>
0

>  <SCORE.SYSTEM>
0

>  <SCORE.SYSTEM.CONST>
0

>  <SCORE.SYSTEM.DIHEDRAL>
0

>  <SCORE.SYSTEM.SOLV>
0

>  <SCORE.SYSTEM.norm>
0

>  <SCORE.heavy>
52

>  <SCORE.norm>
-0.390232

>  <RMSD>
10.241

$$$$
2fd0_lig
 OpenBabel11021811433D
libRbt.so/2013.1/901 2013/11/27
 52 56  0  0  0  0  0  0  0  0999 V2000
   -0.1947  -51.7141   10.9843 C   0  0  2  0  0  0  0  0  0  0  0  0
   -0.2400  -50.5759   10.1128 O   0  0  0  0  0  0  0  0  0  0  0  0
   -3.4350  -48.5232    7.9984 C   0  0  2  0  0  0  0  0  0  0  0  0
   -4.6677  -47.7671    7.7232 N   0  0  0  0  0  0  0  0  0  0  0  0
    0.3131  -46.4611    9.6333 C   0  0  1  0  0  0  0  0  0  0  0  0
    3.0812  -43.4281   11.2578 C   0  0  1  0  0  0  0  0  0  0  0  0
    5.7899  -46.1129   14.6780 C   0  0  1  0  0  0  0  0  0  0  0  0
    0.5144  -51.2914   12.3223 C   0  0  2  0  0  0  0  0  0  0  0  0
   -0.1555  -50.1662   12.9593 N   0  0  0  0  0  0  0  0  0  0  0  0
   -3.7711  -49.8513    8.8085 C   0  0  0  0  0  0  0  0  0  0  0  0
    1.1729  -45.9927   10.7930 C   0  0  2  0  0  0  0  0  0  0  0  0
    0.4495  -45.1072   11.6934 O   0  0  0  0  0  0  0  0  0  0  0  0
    4.6414  -43.6041   10.9506 C   0  0  2  0  0  0  0  0  0  0  0  0
    4.9575  -45.0283   10.6553 N   0  0  0  0  0  0  0  0  0  0  0  0
    6.5796  -47.0995   13.7887 C   0  0  1  0  0  0  0  0  0  0  0  0
    7.8852  -46.5383   13.5052 O   0  0  0  0  0  0  0  0  0  0  0  0
    2.0349  -50.9805   12.0618 C   0  0  0  0  0  0  0  0  0  0  0  0
   -2.4288  -50.6784    9.0973 C   0  0  2  0  0  0  0  0  0  0  0  0
   -2.7117  -51.9106    9.8480 N   0  0  0  0  0  0  0  0  0  0  0  0
    2.3840  -45.3938   10.0980 C   0  0  2  0  0  0  0  0  0  0  0  0
    2.3861  -43.9948   10.1856 O   0  0  0  0  0  0  0  0  0  0  0  0
    5.4523  -42.9531   12.1873 C   0  0  1  0  0  0  0  0  0  0  0  0
    5.0346  -41.5823   12.3197 O   0  0  0  0  0  0  0  0  0  0  0  0
    6.7813  -48.5424   14.3257 C   0  0  1  0  0  0  0  0  0  0  0  0
    8.0353  -48.5844   15.0185 O   0  0  0  0  0  0  0  0  0  0  0  0
    2.6891  -52.2306   11.3879 C   0  0  2  0  0  0  0  0  0  0  0  0
    4.0737  -51.9958   11.1516 O   0  0  0  0  0  0  0  0  0  0  0  0
   -1.4397  -49.7823    9.8937 C   0  0  2  0  0  0  0  0  0  0  0  0
    2.2925  -45.7071    8.5854 C   0  0  2  0  0  0  0  0  0  0  0  0
    1.1812  -46.5894    8.5207 O   0  0  0  0  0  0  0  0  0  0  0  0
    5.0984  -43.6785   13.5883 C   0  0  2  0  0  0  0  0  0  0  0  0
    5.5475  -45.0357   13.4156 O   0  0  0  0  0  0  0  0  0  0  0  0
    5.6760  -49.0792   15.2643 C   0  0  2  0  0  0  0  0  0  0  0  0
    5.4646  -50.4538   14.8744 O   0  0  0  0  0  0  0  0  0  0  0  0
    1.9657  -52.5319   10.0441 C   0  0  2  0  0  0  0  0  0  0  0  0
    0.5373  -52.7857   10.3354 O   0  0  0  0  0  0  0  0  0  0  0  0
   -1.1225  -48.4397    9.1673 C   0  0  2  0  0  0  0  0  0  0  0  0
   -0.2341  -47.6810   10.0224 O   0  0  0  0  0  0  0  0  0  0  0  0
    3.5053  -46.4202    7.9979 C   0  0  0  0  0  0  0  0  0  0  0  0
    3.6106  -47.6884    8.6627 O   0  0  0  0  0  0  0  0  0  0  0  0
    3.5839  -43.6785   13.6778 C   0  0  1  0  0  0  0  0  0  0  0  0
    2.6986  -44.0655   12.6061 O   0  0  0  0  0  0  0  0  0  0  0  0
    4.4179  -48.2195   15.1774 C   0  0  2  0  0  0  0  0  0  0  0  0
    4.6422  -46.7925   15.3472 O   0  0  0  0  0  0  0  0  0  0  0  0
    2.5228  -53.7423    9.3646 C   0  0  0  0  0  0  0  0  0  0  0  0
    1.8223  -53.9270    8.1643 O   0  0  0  0  0  0  0  0  0  0  0  0
   -2.4533  -47.6525    8.8813 C   0  0  1  0  0  0  0  0  0  0  0  0
   -2.1204  -46.4211    8.1517 O   0  0  0  0  0  0  0  0  0  0  0  0
    3.0400  -44.3912   14.9664 C   0  0  0  0  0  0  0  0  0  0  0  0
    3.0159  -43.5171   16.1642 N   0  0  0  0  0  0  0  0  0  0  0  0
    3.1737  -48.5206   16.0100 C   0  0  0  0  0  0  0  0  0  0  0  0
    2.6024  -49.8083   15.6228 O   0  0  0  0  0  0  0  0  0  0  0  0
  1  2  1  6  0  0  0
  1  8  1  0  0  0  0
  1 36  1  0  0  0  0
  3  4  1  1  0  0  0
  3 10  1  0  0  0  0
  3 47  1  0  0  0  0
  5 11  1  0  0  0  0
  5 30  1  0  0  0  0
  5 38  1  1  0  0  0
  6 21  1  6  0  0  0
  6 42  1  0  0  0  0
  7 15  1  0  0  0  0
  7 44  1  0  0  0  0
  7 32  1  6  0  0  0
  8  9  1  6  0  0  0
  8 17  1  0  0  0  0
 11 12  1  6  0  0  0
 11 20  1  0  0  0  0
 13  6  1  0  0  0  0
 13 14  1  1  0  0  0
 15 16  1  1  0  0  0
 15 24  1  0  0  0  0
 17 26  1  0  0  0  0
 18 10  1  0  0  0  0
 18 19  1  1  0  0  0
 20 21  1  6  0  0  0
 20 29  1  0  0  0  0
 22 13  1  0  0  0  0
 22 23  1  1  0  0  0
 24 25  1  1  0  0  0
 24 33  1  0  0  0  0
 26 27  1  6  0  0  0
 26 35  1  0  0  0  0
 28  2  1  6  0  0  0
 28 18  1  0  0  0  0
 29 30  1  0  0  0  0
 29 39  1  1  0  0  0
 31 22  1  0  0  0  0
 31 32  1  6  0  0  0
 31 41  1  0  0  0  0
 33 34  1  6  0  0  0
 33 43  1  0  0  0  0
 35 36  1  0  0  0  0
 35 45  1  1  0  0  0
 37 28  1  0  0  0  0
 37 38  1  1  0  0  0
 39 40  1  0  0  0  0
 41 42  1  0  0  0  0
 41 49  1  1  0  0  0
 43 44  1  0  0  0  0
 43 51  1  1  0  0  0
 45 46  1  0  0  0  0
 47 37  1  0  0  0  0
 47 48  1  6  0  0  0
 49 50  1  0  0  0  0
 51 52  1  0  0  0  0
M  END
>  <CHROM.1>
-103.02437777,179.87044314,72.71791730,-165.71766037,92.72079082,-69.17615307
62.30213798,163.35076644,-179.45152343,175.87570025,83.57463308,-64.43129291
2.26011763,-47.79023728,11.54699024,-2.64477380,-0.66403566,-0.09919732

>  <Name>
2fd0_lig

>  <RI>
0

>  <Rbt.Current_Directory>
/home/itssahil/PROJECTS/Mol_Feturizer/New_Systems/rnas/2fd0

>  <Rbt.Executable>
rbdock ($Id: //depot/dev/client3/rdock/2013.1/src/exe/rbdock.cxx#4 $)

>  <Rbt.Library>
libRbt.so (2013.1, Build901 2013/11/27)

>  <Rbt.Parameter_File>
/export/apps/rDock/src/rDock_2013.1_src/data/scripts/dock_solv.prm

>  <Rbt.Receptor>
prm/pocket_docking_6.prm

>  <SCORE>
-13.3816

>  <SCORE.INTER>
-12.3274

>  <SCORE.INTER.CONST>
1

>  <SCORE.INTER.POLAR>
-2.28873

>  <SCORE.INTER.ROT>
12

>  <SCORE.INTER.SOLV>
16.1745

>  <SCORE.INTER.VDW>
-17.5806

>  <SCORE.INTER.norm>
-0.237064

>  <SCORE.INTRA>
-1.05424

>  <SCORE.INTRA.DIHEDRAL>
-7.7421

>  <SCORE.INTRA.DIHEDRAL.0>
23.9727

>  <SCORE.INTRA.POLAR>
0

>  <SCORE.INTRA.POLAR.0>
0

>  <SCORE.INTRA.REPUL>
0

>  <SCORE.INTRA.REPUL.0>
0

>  <SCORE.INTRA.SOLV>
1.4977

>  <SCORE.INTRA.SOLV.lig_0>
-115.028

>  <SCORE.INTRA.VDW>
2.06797

>  <SCORE.INTRA.VDW.0>
-6.82393

>  <SCORE.INTRA.norm>
-0.0202738

>  <SCORE.RESTR>
0

>  <SCORE.RESTR.CAVITY>
0

>  <SCORE.RESTR.norm>
0

>  <SCORE.SYSTEM>
0

>  <SCORE.SYSTEM.CONST>
0

>  <SCORE.SYSTEM.DIHEDRAL>
0

>  <SCORE.SYSTEM.SOLV>
0

>  <SCORE.SYSTEM.norm>
0

>  <SCORE.heavy>
52

>  <SCORE.norm>
-0.257338

>  <RMSD>
10.281

$$$$
2fd0_lig
 OpenBabel11021811433D
libRbt.so/2013.1/901 2013/11/27
 52 56  0  0  0  0  0  0  0  0999 V2000
    5.0529  -59.6395   10.0290 C   0  0  2  0  0  0  0  0  0  0  0  0
    4.3948  -60.1308    8.8533 O   0  0  0  0  0  0  0  0  0  0  0  0
    7.6120  -61.4529    6.2467 C   0  0  2  0  0  0  0  0  0  0  0  0
    8.3555  -61.8723    5.0474 N   0  0  0  0  0  0  0  0  0  0  0  0
    4.4055  -57.9928    6.7252 C   0  0  1  0  0  0  0  0  0  0  0  0
    2.1313  -57.7453    4.4038 C   0  0  1  0  0  0  0  0  0  0  0  0
   -1.2308  -53.9092    3.8544 C   0  0  1  0  0  0  0  0  0  0  0  0
    3.9659  -59.3570   11.1292 C   0  0  2  0  0  0  0  0  0  0  0  0
    3.1731  -60.5421   11.4254 N   0  0  0  0  0  0  0  0  0  0  0  0
    6.3673  -62.4146    6.4892 C   0  0  0  0  0  0  0  0  0  0  0  0
    4.1432  -59.0422    5.6605 C   0  0  2  0  0  0  0  0  0  0  0  0
    4.4037  -58.5433    4.3183 O   0  0  0  0  0  0  0  0  0  0  0  0
    2.0830  -56.6612    5.5793 C   0  0  2  0  0  0  0  0  0  0  0  0
    0.7864  -56.7374    6.3064 N   0  0  0  0  0  0  0  0  0  0  0  0
   -0.6860  -52.5188    4.2516 C   0  0  1  0  0  0  0  0  0  0  0  0
    0.4063  -52.1691    3.3660 O   0  0  0  0  0  0  0  0  0  0  0  0
    3.0531  -58.1492   10.6999 C   0  0  0  0  0  0  0  0  0  0  0  0
    5.5659  -61.9627    7.8017 C   0  0  2  0  0  0  0  0  0  0  0  0
    4.4077  -62.8347    8.0472 N   0  0  0  0  0  0  0  0  0  0  0  0
    2.7136  -59.4686    5.9484 C   0  0  2  0  0  0  0  0  0  0  0  0
    1.8279  -58.9839    4.9761 O   0  0  0  0  0  0  0  0  0  0  0  0
    2.4306  -55.2252    4.9250 C   0  0  1  0  0  0  0  0  0  0  0  0
    3.7128  -55.3299    4.2801 O   0  0  0  0  0  0  0  0  0  0  0  0
   -1.6907  -51.3351    4.2688 C   0  0  1  0  0  0  0  0  0  0  0  0
   -1.6367  -50.6917    2.9892 O   0  0  0  0  0  0  0  0  0  0  0  0
    3.9673  -56.9148   10.4082 C   0  0  2  0  0  0  0  0  0  0  0  0
    3.1756  -55.7921   10.0330 O   0  0  0  0  0  0  0  0  0  0  0  0
    5.0996  -60.4898    7.6320 C   0  0  2  0  0  0  0  0  0  0  0  0
    2.2594  -58.8150    7.2754 C   0  0  2  0  0  0  0  0  0  0  0  0
    3.4595  -58.2249    7.7542 O   0  0  0  0  0  0  0  0  0  0  0  0
    1.3704  -54.8146    3.7754 C   0  0  2  0  0  0  0  0  0  0  0  0
    0.1121  -54.7052    4.4672 O   0  0  0  0  0  0  0  0  0  0  0  0
   -3.1610  -51.6958    4.5828 C   0  0  2  0  0  0  0  0  0  0  0  0
   -3.6413  -50.6534    5.4599 O   0  0  0  0  0  0  0  0  0  0  0  0
    4.9629  -57.2668    9.2659 C   0  0  2  0  0  0  0  0  0  0  0  0
    5.7751  -58.4244    9.7016 O   0  0  0  0  0  0  0  0  0  0  0  0
    6.2786  -59.5139    7.3344 C   0  0  2  0  0  0  0  0  0  0  0  0
    5.7152  -58.1924    7.1540 O   0  0  0  0  0  0  0  0  0  0  0  0
    1.7480  -59.7866    8.3332 C   0  0  0  0  0  0  0  0  0  0  0  0
    0.9710  -59.0212    9.2669 O   0  0  0  0  0  0  0  0  0  0  0  0
    1.3036  -56.0044    2.8366 C   0  0  1  0  0  0  0  0  0  0  0  0
    1.1685  -57.3772    3.2600 O   0  0  0  0  0  0  0  0  0  0  0  0
   -3.2660  -53.0952    5.1830 C   0  0  2  0  0  0  0  0  0  0  0  0
   -2.5917  -54.1360    4.4232 O   0  0  0  0  0  0  0  0  0  0  0  0
    5.8929  -56.1355    8.9621 C   0  0  0  0  0  0  0  0  0  0  0  0
    5.1492  -55.1132    8.3560 O   0  0  0  0  0  0  0  0  0  0  0  0
    7.0588  -59.9840    6.0527 C   0  0  1  0  0  0  0  0  0  0  0  0
    8.1906  -59.0726    5.8340 O   0  0  0  0  0  0  0  0  0  0  0  0
    0.2779  -55.8109    1.6641 C   0  0  0  0  0  0  0  0  0  0  0  0
   -1.1165  -56.1586    2.0302 N   0  0  0  0  0  0  0  0  0  0  0  0
   -4.6083  -53.7074    5.5773 C   0  0  0  0  0  0  0  0  0  0  0  0
   -5.3500  -54.1157    4.3867 O   0  0  0  0  0  0  0  0  0  0  0  0
  1  2  1  6  0  0  0
  1  8  1  0  0  0  0
  1 36  1  0  0  0  0
  3  4  1  6  0  0  0
  3 10  1  0  0  0  0
  3 47  1  0  0  0  0
  5 11  1  0  0  0  0
  5 30  1  0  0  0  0
  5 38  1  1  0  0  0
  6 21  1  1  0  0  0
  6 42  1  0  0  0  0
  7 15  1  0  0  0  0
  7 44  1  0  0  0  0
  7 32  1  1  0  0  0
  8  9  1  6  0  0  0
  8 17  1  0  0  0  0
 11 12  1  6  0  0  0
 11 20  1  0  0  0  0
 13  6  1  0  0  0  0
 13 14  1  6  0  0  0
 15 16  1  6  0  0  0
 15 24  1  0  0  0  0
 17 26  1  0  0  0  0
 18 10  1  0  0  0  0
 18 19  1  6  0  0  0
 20 21  1  6  0  0  0
 20 29  1  0  0  0  0
 22 13  1  0  0  0  0
 22 23  1  6  0  0  0
 24 25  1  6  0  0  0
 24 33  1  0  0  0  0
 26 27  1  6  0  0  0
 26 35  1  0  0  0  0
 28  2  1  1  0  0  0
 28 18  1  0  0  0  0
 29 30  1  0  0  0  0
 29 39  1  1  0  0  0
 31 22  1  0  0  0  0
 31 32  1  1  0  0  0
 31 41  1  0  0  0  0
 33 34  1  1  0  0  0
 33 43  1  0  0  0  0
 35 36  1  0  0  0  0
 35 45  1  1  0  0  0
 37 28  1  0  0  0  0
 37 38  1  6  0  0  0
 39 40  1  0  0  0  0
 41 42  1  0  0  0  0
 41 49  1  6  0  0  0
 43 44  1  0  0  0  0
 43 51  1  6  0  0  0
 45 46  1  0  0  0  0
 47 37  1  0  0  0  0
 47 48  1  1  0  0  0
 49 50  1  0  0  0  0
 51 52  1  0  0  0  0
M  END
>  <CHROM.1>
179.69839903,-39.48889638,-62.83155619,-79.92913934,-32.90400737,85.64783103
-160.75652220,162.54595896,-69.85803251,-26.05614686,-84.16376920,74.42484334
2.39073610,-57.06196941,6.30708965,0.42960939,-0.70458329,1.67725253

>  <Name>
2fd0_lig

>  <RI>
0

>  <Rbt.Current_Directory>
/home/itssahil/PROJECTS/Mol_Feturizer/New_Systems/rnas/2fd0

>  <Rbt.Executable>
rbdock ($Id: //depot/dev/client3/rdock/2013.1/src/exe/rbdock.cxx#4 $)

>  <Rbt.Library>
libRbt.so (2013.1, Build901 2013/11/27)

>  <Rbt.Parameter_File>
/export/apps/rDock/src/rDock_2013.1_src/data/scripts/dock_solv.prm

>  <Rbt.Receptor>
prm/blind_docking_100.prm

>  <SCORE>
47.2255

>  <SCORE.INTER>
11.4556

>  <SCORE.INTER.CONST>
1

>  <SCORE.INTER.POLAR>
-0.438667

>  <SCORE.INTER.ROT>
12

>  <SCORE.INTER.SOLV>
23.6514

>  <SCORE.INTER.VDW>
-10.3845

>  <SCORE.INTER.norm>
0.220299

>  <SCORE.INTRA>
30.6921

>  <SCORE.INTRA.DIHEDRAL>
-3.63515

>  <SCORE.INTRA.DIHEDRAL.0>
23.9727

>  <SCORE.INTRA.POLAR>
0

>  <SCORE.INTRA.POLAR.0>
0

>  <SCORE.INTRA.REPUL>
0

>  <SCORE.INTRA.REPUL.0>
0

>  <SCORE.INTRA.SOLV>
8.08478

>  <SCORE.INTRA.SOLV.lig_0>
-115.028

>  <SCORE.INTRA.VDW>
28.4673

>  <SCORE.INTRA.VDW.0>
-6.82393

>  <SCORE.INTRA.norm>
0.590232

>  <SCORE.RESTR>
5.07781

>  <SCORE.RESTR.CAVITY>
5.07781

>  <SCORE.RESTR.norm>
0.0976501

>  <SCORE.SYSTEM>
0

>  <SCORE.SYSTEM.CONST>
0

>  <SCORE.SYSTEM.DIHEDRAL>
0

>  <SCORE.SYSTEM.SOLV>
0

>  <SCORE.SYSTEM.norm>
0

>  <SCORE.heavy>
52

>  <SCORE.norm>
0.908182

>  <RMSD>
10.394

$$$$
2fd0_lig
 OpenBabel11021811433D
libRbt.so/2013.1/901 2013/11/27
 52 56  0  0  0  0  0  0  0  0999 V2000
   -0.8852  -54.5947    5.3718 C   0  0  2  0  0  0  0  0  0  0  0  0
    0.3392  -54.0089    4.9085 O   0  0  0  0  0  0  0  0  0  0  0  0
    3.3377  -55.7459    7.5323 C   0  0  2  0  0  0  0  0  0  0  0  0
    4.6348  -56.1760    8.0796 N   0  0  0  0  0  0  0  0  0  0  0  0
    2.1089  -51.3589    7.6496 C   0  0  1  0  0  0  0  0  0  0  0  0
    3.9691  -47.5725    9.2824 C   0  0  1  0  0  0  0  0  0  0  0  0
    1.4180  -45.4822   13.0114 C   0  0  1  0  0  0  0  0  0  0  0  0
   -2.0860  -53.8727    4.6587 C   0  0  2  0  0  0  0  0  0  0  0  0
   -1.9809  -53.9492    3.2082 N   0  0  0  0  0  0  0  0  0  0  0  0
    3.1085  -56.3811    6.0911 C   0  0  0  0  0  0  0  0  0  0  0  0
    3.4495  -50.7007    7.3791 C   0  0  2  0  0  0  0  0  0  0  0  0
    4.5424  -51.3727    8.0661 O   0  0  0  0  0  0  0  0  0  0  0  0
    4.7915  -47.4742   10.6512 C   0  0  2  0  0  0  0  0  0  0  0  0
    4.1648  -48.3260   11.6986 N   0  0  0  0  0  0  0  0  0  0  0  0
    2.0029  -44.2677   13.7668 C   0  0  1  0  0  0  0  0  0  0  0  0
    2.2918  -43.2140   12.8148 O   0  0  0  0  0  0  0  0  0  0  0  0
   -2.1966  -52.3810    5.1476 C   0  0  0  0  0  0  0  0  0  0  0  0
    1.6908  -55.9204    5.5020 C   0  0  2  0  0  0  0  0  0  0  0  0
    1.4552  -56.4922    4.1681 N   0  0  0  0  0  0  0  0  0  0  0  0
    3.2032  -49.2538    7.7719 C   0  0  2  0  0  0  0  0  0  0  0  0
    3.8523  -48.9302    8.9713 O   0  0  0  0  0  0  0  0  0  0  0  0
    4.9289  -45.9068   11.0191 C   0  0  1  0  0  0  0  0  0  0  0  0
    5.5616  -45.2441    9.9093 O   0  0  0  0  0  0  0  0  0  0  0  0
    1.1505  -43.6605   14.9139 C   0  0  1  0  0  0  0  0  0  0  0  0
    0.3632  -42.5968   14.3635 O   0  0  0  0  0  0  0  0  0  0  0  0
   -2.3153  -52.3769    6.7066 C   0  0  2  0  0  0  0  0  0  0  0  0
   -2.4362  -51.0423    7.1887 O   0  0  0  0  0  0  0  0  0  0  0  0
    1.6478  -54.3682    5.4335 C   0  0  2  0  0  0  0  0  0  0  0  0
    1.6945  -49.0693    8.0624 C   0  0  2  0  0  0  0  0  0  0  0  0
    1.1487  -50.3169    7.6587 O   0  0  0  0  0  0  0  0  0  0  0  0
    3.4854  -45.2043   11.2113 C   0  0  2  0  0  0  0  0  0  0  0  0
    2.8998  -45.8848   12.3372 O   0  0  0  0  0  0  0  0  0  0  0  0
    0.2131  -44.6406   15.6564 C   0  0  2  0  0  0  0  0  0  0  0  0
    0.3115  -44.2931   17.0550 O   0  0  0  0  0  0  0  0  0  0  0  0
   -1.0564  -53.0511    7.3232 C   0  0  2  0  0  0  0  0  0  0  0  0
   -0.9773  -54.4371    6.8112 O   0  0  0  0  0  0  0  0  0  0  0  0
    1.9245  -53.6952    6.8124 C   0  0  2  0  0  0  0  0  0  0  0  0
    1.9018  -52.2618    6.6099 O   0  0  0  0  0  0  0  0  0  0  0  0
    1.0118  -47.9660    7.2618 C   0  0  0  0  0  0  0  0  0  0  0  0
   -0.3179  -47.8275    7.7853 O   0  0  0  0  0  0  0  0  0  0  0  0
    2.6906  -45.5557    9.9677 C   0  0  1  0  0  0  0  0  0  0  0  0
    2.5996  -46.8785    9.3985 O   0  0  0  0  0  0  0  0  0  0  0  0
    0.5890  -46.0898   15.3595 C   0  0  2  0  0  0  0  0  0  0  0  0
    0.7151  -46.4092   13.9462 O   0  0  0  0  0  0  0  0  0  0  0  0
   -1.1249  -53.1112    8.8161 C   0  0  0  0  0  0  0  0  0  0  0  0
   -1.0366  -51.8011    9.3076 O   0  0  0  0  0  0  0  0  0  0  0  0
    3.3121  -54.1721    7.3778 C   0  0  1  0  0  0  0  0  0  0  0  0
    3.5143  -53.5595    8.6981 O   0  0  0  0  0  0  0  0  0  0  0  0
    1.2252  -44.9931    9.9902 C   0  0  0  0  0  0  0  0  0  0  0  0
    1.1551  -43.5134    9.9207 N   0  0  0  0  0  0  0  0  0  0  0  0
   -0.1825  -47.2641   15.9575 C   0  0  0  0  0  0  0  0  0  0  0  0
   -1.5376  -47.3118   15.4134 O   0  0  0  0  0  0  0  0  0  0  0  0
  1  2  1  6  0  0  0
  1  8  1  0  0  0  0
  1 36  1  0  0  0  0
  3  4  1  6  0  0  0
  3 10  1  0  0  0  0
  3 47  1  0  0  0  0
  5 11  1  0  0  0  0
  5 30  1  0  0  0  0
  5 38  1  6  0  0  0
  6 21  1  1  0  0  0
  6 42  1  0  0  0  0
  7 15  1  0  0  0  0
  7 44  1  0  0  0  0
  7 32  1  1  0  0  0
  8  9  1  6  0  0  0
  8 17  1  0  0  0  0
 11 12  1  1  0  0  0
 11 20  1  0  0  0  0
 13  6  1  0  0  0  0
 13 14  1  1  0  0  0
 15 16  1  6  0  0  0
 15 24  1  0  0  0  0
 17 26  1  0  0  0  0
 18 10  1  0  0  0  0
 18 19  1  6  0  0  0
 20 21  1  1  0  0  0
 20 29  1  0  0  0  0
 22 13  1  0  0  0  0
 22 23  1  6  0  0  0
 24 25  1  6  0  0  0
 24 33  1  0  0  0  0
 26 27  1  1  0  0  0
 26 35  1  0  0  0  0
 28  2  1  1  0  0  0
 28 18  1  0  0  0  0
 29 30  1  0  0  0  0
 29 39  1  6  0  0  0
 31 22  1  0  0  0  0
 31 32  1  1  0  0  0
 31 41  1  0  0  0  0
 33 34  1  1  0  0  0
 33 43  1  0  0  0  0
 35 36  1  0  0  0  0
 35 45  1  1  0  0  0
 37 28  1  0  0  0  0
 37 38  1  6  0  0  0
 39 40  1  0  0  0  0
 41 42  1  0  0  0  0
 41 49  1  1  0  0  0
 43 44  1  0  0  0  0
 43 51  1  6  0  0  0
 45 46  1  0  0  0  0
 47 37  1  0  0  0  0
 47 48  1  1  0  0  0
 49 50  1  0  0  0  0
 51 52  1  0  0  0  0
M  END
>  <CHROM.1>
175.34721165,111.01948196,-177.68628569,-78.02595755,165.50079957,45.88015498
-172.60567614,176.64884141,-67.90521734,179.70410191,67.21422999,67.11949234
1.44937587,-49.60687264,9.34672903,1.63761348,-0.16128077,-2.45567804

>  <Name>
2fd0_lig

>  <RI>
0

>  <Rbt.Current_Directory>
/home/itssahil/PROJECTS/Mol_Feturizer/New_Systems/rnas/2fd0

>  <Rbt.Executable>
rbdock ($Id: //depot/dev/client3/rdock/2013.1/src/exe/rbdock.cxx#4 $)

>  <Rbt.Library>
libRbt.so (2013.1, Build901 2013/11/27)

>  <Rbt.Parameter_File>
/export/apps/rDock/src/rDock_2013.1_src/data/scripts/dock_solv.prm

>  <Rbt.Receptor>
prm/pocket_docking_8.prm

>  <SCORE>
-13.4199

>  <SCORE.INTER>
-9.20136

>  <SCORE.INTER.CONST>
1

>  <SCORE.INTER.POLAR>
-1.59925

>  <SCORE.INTER.ROT>
12

>  <SCORE.INTER.SOLV>
12.8948

>  <SCORE.INTER.VDW>
-16.7017

>  <SCORE.INTER.norm>
-0.176949

>  <SCORE.INTRA>
-4.21856

>  <SCORE.INTRA.DIHEDRAL>
-11.3007

>  <SCORE.INTRA.DIHEDRAL.0>
23.9727

>  <SCORE.INTRA.POLAR>
0

>  <SCORE.INTRA.POLAR.0>
0

>  <SCORE.INTRA.REPUL>
0

>  <SCORE.INTRA.REPUL.0>
0

>  <SCORE.INTRA.SOLV>
-0.604015

>  <SCORE.INTRA.SOLV.lig_0>
-115.028

>  <SCORE.INTRA.VDW>
1.73377

>  <SCORE.INTRA.VDW.0>
-6.82393

>  <SCORE.INTRA.norm>
-0.0811262

>  <SCORE.RESTR>
0

>  <SCORE.RESTR.CAVITY>
0

>  <SCORE.RESTR.norm>
0

>  <SCORE.SYSTEM>
0

>  <SCORE.SYSTEM.CONST>
0

>  <SCORE.SYSTEM.DIHEDRAL>
0

>  <SCORE.SYSTEM.SOLV>
0

>  <SCORE.SYSTEM.norm>
0

>  <SCORE.heavy>
52

>  <SCORE.norm>
-0.258075

>  <RMSD>
10.574

$$$$
2fd0_lig
 OpenBabel11021811433D
libRbt.so/2013.1/901 2013/11/27
 52 56  0  0  0  0  0  0  0  0999 V2000
    1.9211  -54.1032    7.0520 C   0  0  2  0  0  0  0  0  0  0  0  0
    2.1456  -54.2375    5.6419 O   0  0  0  0  0  0  0  0  0  0  0  0
    0.2816  -52.7639    2.0023 C   0  0  2  0  0  0  0  0  0  0  0  0
   -0.7052  -52.5226    0.9369 N   0  0  0  0  0  0  0  0  0  0  0  0
    0.9461  -51.1618    6.6401 C   0  0  1  0  0  0  0  0  0  0  0  0
    1.7616  -47.0546    8.2607 C   0  0  1  0  0  0  0  0  0  0  0  0
    4.4170  -46.7050   12.6506 C   0  0  1  0  0  0  0  0  0  0  0  0
    3.2920  -54.2951    7.7971 C   0  0  2  0  0  0  0  0  0  0  0  0
    4.2991  -53.3518    7.3316 N   0  0  0  0  0  0  0  0  0  0  0  0
    0.5629  -54.3233    2.1515 C   0  0  0  0  0  0  0  0  0  0  0  0
    0.9201  -49.8182    5.9346 C   0  0  2  0  0  0  0  0  0  0  0  0
    2.1050  -49.6012    5.1178 O   0  0  0  0  0  0  0  0  0  0  0  0
    3.1395  -46.2432    8.2100 C   0  0  2  0  0  0  0  0  0  0  0  0
    4.2929  -47.1602    8.4195 N   0  0  0  0  0  0  0  0  0  0  0  0
    5.5668  -47.6132   12.1598 C   0  0  1  0  0  0  0  0  0  0  0  0
    6.6317  -46.7836   11.6329 O   0  0  0  0  0  0  0  0  0  0  0  0
    3.7895  -55.7813    7.6548 C   0  0  0  0  0  0  0  0  0  0  0  0
    1.6459  -54.5828    3.3044 C   0  0  2  0  0  0  0  0  0  0  0  0
    1.9222  -56.0180    3.4646 N   0  0  0  0  0  0  0  0  0  0  0  0
    0.7080  -48.8387    7.0767 C   0  0  2  0  0  0  0  0  0  0  0  0
    1.8730  -48.1084    7.3492 O   0  0  0  0  0  0  0  0  0  0  0  0
    3.0195  -45.0238    9.2633 C   0  0  1  0  0  0  0  0  0  0  0  0
    1.8670  -44.2397    8.9054 O   0  0  0  0  0  0  0  0  0  0  0  0
    6.1869  -48.5997   13.1860 C   0  0  1  0  0  0  0  0  0  0  0  0
    7.3155  -47.9558   13.7910 O   0  0  0  0  0  0  0  0  0  0  0  0
    2.6660  -56.7335    8.1801 C   0  0  2  0  0  0  0  0  0  0  0  0
    3.0855  -58.0911    8.0851 O   0  0  0  0  0  0  0  0  0  0  0  0
    1.1203  -53.9872    4.6403 C   0  0  2  0  0  0  0  0  0  0  0  0
    0.4175  -49.6394    8.3685 C   0  0  2  0  0  0  0  0  0  0  0  0
    0.2981  -50.9699    7.8855 O   0  0  0  0  0  0  0  0  0  0  0  0
    2.7657  -45.5522   10.7701 C   0  0  2  0  0  0  0  0  0  0  0  0
    3.9458  -46.3130   11.0895 O   0  0  0  0  0  0  0  0  0  0  0  0
    5.2427  -49.1017   14.3027 C   0  0  2  0  0  0  0  0  0  0  0  0
    5.5363  -50.5071   14.4616 O   0  0  0  0  0  0  0  0  0  0  0  0
    1.3725  -56.5187    7.3432 C   0  0  2  0  0  0  0  0  0  0  0  0
    0.9623  -55.1038    7.4820 O   0  0  0  0  0  0  0  0  0  0  0  0
    0.7744  -52.4708    4.5306 C   0  0  2  0  0  0  0  0  0  0  0  0
    0.2578  -52.0477    5.8152 O   0  0  0  0  0  0  0  0  0  0  0  0
   -0.8790  -49.2701    9.0807 C   0  0  0  0  0  0  0  0  0  0  0  0
   -1.9465  -49.4703    8.1418 O   0  0  0  0  0  0  0  0  0  0  0  0
    1.5880  -46.5039   10.6770 C   0  0  1  0  0  0  0  0  0  0  0  0
    1.4501  -47.5444    9.6868 O   0  0  0  0  0  0  0  0  0  0  0  0
    3.7837  -48.8183   13.9555 C   0  0  2  0  0  0  0  0  0  0  0  0
    3.5048  -47.4432   13.5724 O   0  0  0  0  0  0  0  0  0  0  0  0
    0.2448  -57.3776    7.8203 C   0  0  0  0  0  0  0  0  0  0  0  0
    0.1728  -57.2634    9.2158 O   0  0  0  0  0  0  0  0  0  0  0  0
   -0.2774  -52.2380    3.3851 C   0  0  1  0  0  0  0  0  0  0  0  0
   -0.5390  -50.7960    3.2769 O   0  0  0  0  0  0  0  0  0  0  0  0
    1.2149  -47.1635   12.0518 C   0  0  0  0  0  0  0  0  0  0  0  0
   -0.0819  -47.8829   12.0339 N   0  0  0  0  0  0  0  0  0  0  0  0
    2.6403  -49.2020   14.8920 C   0  0  0  0  0  0  0  0  0  0  0  0
    2.8014  -48.5447   16.1868 O   0  0  0  0  0  0  0  0  0  0  0  0
  1  2  1  6  0  0  0
  1  8  1  0  0  0  0
  1 36  1  0  0  0  0
  3  4  1  6  0  0  0
  3 10  1  0  0  0  0
  3 47  1  0  0  0  0
  5 11  1  0  0  0  0
  5 30  1  0  0  0  0
  5 38  1  6  0  0  0
  6 21  1  6  0  0  0
  6 42  1  0  0  0  0
  7 15  1  0  0  0  0
  7 44  1  0  0  0  0
  7 32  1  6  0  0  0
  8  9  1  6  0  0  0
  8 17  1  0  0  0  0
 11 12  1  1  0  0  0
 11 20  1  0  0  0  0
 13  6  1  0  0  0  0
 13 14  1  1  0  0  0
 15 16  1  1  0  0  0
 15 24  1  0  0  0  0
 17 26  1  0  0  0  0
 18 10  1  0  0  0  0
 18 19  1  1  0  0  0
 20 21  1  1  0  0  0
 20 29  1  0  0  0  0
 22 13  1  0  0  0  0
 22 23  1  6  0  0  0
 24 25  1  1  0  0  0
 24 33  1  0  0  0  0
 26 27  1  6  0  0  0
 26 35  1  0  0  0  0
 28  2  1  1  0  0  0
 28 18  1  0  0  0  0
 29 30  1  0  0  0  0
 29 39  1  6  0  0  0
 31 22  1  0  0  0  0
 31 32  1  6  0  0  0
 31 41  1  0  0  0  0
 33 34  1  6  0  0  0
 33 43  1  0  0  0  0
 35 36  1  0  0  0  0
 35 45  1  1  0  0  0
 37 28  1  0  0  0  0
 37 38  1  1  0  0  0
 39 40  1  0  0  0  0
 41 42  1  0  0  0  0
 41 49  1  1  0  0  0
 43 44  1  0  0  0  0
 43 51  1  1  0  0  0
 45 46  1  0  0  0  0
 47 37  1  0  0  0  0
 47 48  1  6  0  0  0
 49 50  1  0  0  0  0
 51 52  1  0  0  0  0
M  END
>  <CHROM.1>
-173.65501943,68.50727120,-170.71109919,173.18817824,171.97240042,-165.94081674
58.02050783,161.24670301,47.27006109,112.35648091,168.76967980,59.15820592
2.15650587,-50.63428656,8.56269781,-2.24377170,-1.12636568,0.18751532

>  <Name>
2fd0_lig

>  <RI>
0

>  <Rbt.Current_Directory>
/home/itssahil/PROJECTS/Mol_Feturizer/New_Systems/rnas/2fd0

>  <Rbt.Executable>
rbdock ($Id: //depot/dev/client3/rdock/2013.1/src/exe/rbdock.cxx#4 $)

>  <Rbt.Library>
libRbt.so (2013.1, Build901 2013/11/27)

>  <Rbt.Parameter_File>
/export/apps/rDock/src/rDock_2013.1_src/data/scripts/dock_solv.prm

>  <Rbt.Receptor>
prm/pocket_docking_8.prm

>  <SCORE>
-21.9674

>  <SCORE.INTER>
-17.9493

>  <SCORE.INTER.CONST>
1

>  <SCORE.INTER.POLAR>
-2.74824

>  <SCORE.INTER.ROT>
12

>  <SCORE.INTER.SOLV>
14.5388

>  <SCORE.INTER.VDW>
-19.2517

>  <SCORE.INTER.norm>
-0.345179

>  <SCORE.INTRA>
-4.01806

>  <SCORE.INTRA.DIHEDRAL>
-10.4646

>  <SCORE.INTRA.DIHEDRAL.0>
23.9727

>  <SCORE.INTRA.POLAR>
0

>  <SCORE.INTRA.POLAR.0>
0

>  <SCORE.INTRA.REPUL>
0

>  <SCORE.INTRA.REPUL.0>
0

>  <SCORE.INTRA.SOLV>
-1.38437

>  <SCORE.INTRA.SOLV.lig_0>
-115.028

>  <SCORE.INTRA.VDW>
1.90643

>  <SCORE.INTRA.VDW.0>
-6.82393

>  <SCORE.INTRA.norm>
-0.0772704

>  <SCORE.RESTR>
0

>  <SCORE.RESTR.CAVITY>
0

>  <SCORE.RESTR.norm>
0

>  <SCORE.SYSTEM>
0

>  <SCORE.SYSTEM.CONST>
0

>  <SCORE.SYSTEM.DIHEDRAL>
0

>  <SCORE.SYSTEM.SOLV>
0

>  <SCORE.SYSTEM.norm>
0

>  <SCORE.heavy>
52

>  <SCORE.norm>
-0.422449

>  <RMSD>
10.600

$$$$
2fd0_lig
 OpenBabel11021811433D
libRbt.so/2013.1/901 2013/11/27
 52 56  0  0  0  0  0  0  0  0999 V2000
    0.9034  -52.7499    7.2089 C   0  0  2  0  0  0  0  0  0  0  0  0
   -0.1897  -51.9631    7.7019 O   0  0  0  0  0  0  0  0  0  0  0  0
   -4.3540  -51.5728    6.5191 C   0  0  2  0  0  0  0  0  0  0  0  0
   -5.7641  -51.8935    6.2440 N   0  0  0  0  0  0  0  0  0  0  0  0
   -1.3396  -50.8880   10.4751 C   0  0  1  0  0  0  0  0  0  0  0  0
    0.5138  -48.3514   11.4567 C   0  0  1  0  0  0  0  0  0  0  0  0
    4.5631  -45.4323   12.0403 C   0  0  1  0  0  0  0  0  0  0  0  0
    1.6399  -53.4053    8.4335 C   0  0  2  0  0  0  0  0  0  0  0  0
    0.7353  -54.2090    9.2438 N   0  0  0  0  0  0  0  0  0  0  0  0
   -3.3967  -52.5270    5.6788 C   0  0  0  0  0  0  0  0  0  0  0  0
   -2.0191  -49.5374   10.6082 C   0  0  2  0  0  0  0  0  0  0  0  0
   -1.6221  -48.6141    9.5555 O   0  0  0  0  0  0  0  0  0  0  0  0
    1.6292  -48.0345   12.5589 C   0  0  2  0  0  0  0  0  0  0  0  0
    1.4514  -46.6597   13.1008 N   0  0  0  0  0  0  0  0  0  0  0  0
    3.8048  -44.1042   12.2614 C   0  0  1  0  0  0  0  0  0  0  0  0
    2.6957  -44.3384   13.1641 O   0  0  0  0  0  0  0  0  0  0  0  0
    2.3556  -52.3015    9.2970 C   0  0  0  0  0  0  0  0  0  0  0  0
   -1.8620  -52.1686    5.9716 C   0  0  2  0  0  0  0  0  0  0  0  0
   -0.9552  -53.0388    5.2084 N   0  0  0  0  0  0  0  0  0  0  0  0
   -1.6720  -49.1207   12.0275 C   0  0  2  0  0  0  0  0  0  0  0  0
   -0.7275  -48.0851   12.0417 O   0  0  0  0  0  0  0  0  0  0  0  0
    3.0681  -48.3379   11.8892 C   0  0  1  0  0  0  0  0  0  0  0  0
    3.0675  -49.7036   11.4355 O   0  0  0  0  0  0  0  0  0  0  0  0
    4.6188  -42.8970   12.8008 C   0  0  1  0  0  0  0  0  0  0  0  0
    4.5018  -42.8885   14.2292 O   0  0  0  0  0  0  0  0  0  0  0  0
    3.3138  -51.4875    8.3673 C   0  0  2  0  0  0  0  0  0  0  0  0
    3.9964  -50.4872    9.1168 O   0  0  0  0  0  0  0  0  0  0  0  0
   -1.5865  -52.3137    7.4943 C   0  0  2  0  0  0  0  0  0  0  0  0
   -0.9833  -50.3100   12.7386 C   0  0  2  0  0  0  0  0  0  0  0  0
   -1.1323  -51.3609   11.7947 O   0  0  0  0  0  0  0  0  0  0  0  0
    3.3306  -47.4204   10.5841 C   0  0  2  0  0  0  0  0  0  0  0  0
    3.3399  -46.0712   11.0872 O   0  0  0  0  0  0  0  0  0  0  0  0
    6.1180  -42.8651   12.4240 C   0  0  2  0  0  0  0  0  0  0  0  0
    6.4127  -41.4873   12.1057 O   0  0  0  0  0  0  0  0  0  0  0  0
    2.4889  -50.8249    7.2271 C   0  0  2  0  0  0  0  0  0  0  0  0
    1.8108  -51.8966    6.4648 O   0  0  0  0  0  0  0  0  0  0  0  0
   -2.5396  -51.4404    8.3661 C   0  0  2  0  0  0  0  0  0  0  0  0
   -2.2159  -51.6950    9.7541 O   0  0  0  0  0  0  0  0  0  0  0  0
   -1.6332  -50.7456   14.0471 C   0  0  0  0  0  0  0  0  0  0  0  0
   -0.7530  -51.7025   14.6561 O   0  0  0  0  0  0  0  0  0  0  0  0
    2.1071  -47.5996    9.7052 C   0  0  1  0  0  0  0  0  0  0  0  0
    0.7437  -47.5330   10.1730 O   0  0  0  0  0  0  0  0  0  0  0  0
    6.4170  -43.8329   11.2823 C   0  0  2  0  0  0  0  0  0  0  0  0
    5.9274  -45.1870   11.4875 O   0  0  0  0  0  0  0  0  0  0  0  0
    3.3550  -50.0580    6.2790 C   0  0  0  0  0  0  0  0  0  0  0  0
    3.8256  -48.9183    6.9463 O   0  0  0  0  0  0  0  0  0  0  0  0
   -4.0383  -51.7981    8.0524 C   0  0  1  0  0  0  0  0  0  0  0  0
   -4.9053  -50.9216    8.8521 O   0  0  0  0  0  0  0  0  0  0  0  0
    2.1563  -46.7395    8.3928 C   0  0  0  0  0  0  0  0  0  0  0  0
    0.9856  -46.9416    7.5051 N   0  0  0  0  0  0  0  0  0  0  0  0
    7.8255  -44.0085   10.7190 C   0  0  0  0  0  0  0  0  0  0  0  0
    8.3708  -42.7187   10.3023 O   0  0  0  0  0  0  0  0  0  0  0  0
  1  2  1  1  0  0  0
  1  8  1  0  0  0  0
  1 36  1  0  0  0  0
  3  4  1  1  0  0  0
  3 10  1  0  0  0  0
  3 47  1  0  0  0  0
  5 11  1  0  0  0  0
  5 30  1  0  0  0  0
  5 38  1  6  0  0  0
  6 21  1  1  0  0  0
  6 42  1  0  0  0  0
  7 15  1  0  0  0  0
  7 44  1  0  0  0  0
  7 32  1  6  0  0  0
  8  9  1  1  0  0  0
  8 17  1  0  0  0  0
 11 12  1  6  0  0  0
 11 20  1  0  0  0  0
 13  6  1  0  0  0  0
 13 14  1  6  0  0  0
 15 16  1  1  0  0  0
 15 24  1  0  0  0  0
 17 26  1  0  0  0  0
 18 10  1  0  0  0  0
 18 19  1  6  0  0  0
 20 21  1  6  0  0  0
 20 29  1  0  0  0  0
 22 13  1  0  0  0  0
 22 23  1  6  0  0  0
 24 25  1  1  0  0  0
 24 33  1  0  0  0  0
 26 27  1  1  0  0  0
 26 35  1  0  0  0  0
 28  2  1  6  0  0  0
 28 18  1  0  0  0  0
 29 30  1  0  0  0  0
 29 39  1  1  0  0  0
 31 22  1  0  0  0  0
 31 32  1  1  0  0  0
 31 41  1  0  0  0  0
 33 34  1  6  0  0  0
 33 43  1  0  0  0  0
 35 36  1  0  0  0  0
 35 45  1  6  0  0  0
 37 28  1  0  0  0  0
 37 38  1  1  0  0  0
 39 40  1  0  0  0  0
 41 42  1  0  0  0  0
 41 49  1  6  0  0  0
 43 44  1  0  0  0  0
 43 51  1  1  0  0  0
 45 46  1  0  0  0  0
 47 37  1  0  0  0  0
 47 48  1  1  0  0  0
 49 50  1  0  0  0  0
 51 52  1  0  0  0  0
M  END
>  <CHROM.1>
-111.13301685,66.60520062,-125.11934109,-174.62273189,-60.67395496,-67.29364099
-171.24993573,70.73304447,-70.30285855,94.87536922,178.08892098,-54.87882899
1.27323094,-48.82792880,9.97319240,-2.39178183,0.50618948,0.93329984

>  <Name>
2fd0_lig

>  <RI>
0

>  <Rbt.Current_Directory>
/home/itssahil/PROJECTS/Mol_Feturizer/New_Systems/rnas/2fd0

>  <Rbt.Executable>
rbdock ($Id: //depot/dev/client3/rdock/2013.1/src/exe/rbdock.cxx#4 $)

>  <Rbt.Library>
libRbt.so (2013.1, Build901 2013/11/27)

>  <Rbt.Parameter_File>
/export/apps/rDock/src/rDock_2013.1_src/data/scripts/dock_solv.prm

>  <Rbt.Receptor>
prm/pocket_docking_5.prm

>  <SCORE>
-5.04062

>  <SCORE.INTER>
-6.813

>  <SCORE.INTER.CONST>
1

>  <SCORE.INTER.POLAR>
-0.738404

>  <SCORE.INTER.ROT>
12

>  <SCORE.INTER.SOLV>
9.15706

>  <SCORE.INTER.VDW>
-16.733

>  <SCORE.INTER.norm>
-0.131019

>  <SCORE.INTRA>
1.76114

>  <SCORE.INTRA.DIHEDRAL>
-2.0137

>  <SCORE.INTRA.DIHEDRAL.0>
23.9727

>  <SCORE.INTRA.POLAR>
0

>  <SCORE.INTRA.POLAR.0>
0

>  <SCORE.INTRA.REPUL>
0.00196902

>  <SCORE.INTRA.REPUL.0>
0

>  <SCORE.INTRA.SOLV>
3.10302

>  <SCORE.INTRA.SOLV.lig_0>
-115.028

>  <SCORE.INTRA.VDW>
1.20664

>  <SCORE.INTRA.VDW.0>
-6.82393

>  <SCORE.INTRA.norm>
0.033868

>  <SCORE.RESTR>
0.0112426

>  <SCORE.RESTR.CAVITY>
0.0112426

>  <SCORE.RESTR.norm>
0.000216204

>  <SCORE.SYSTEM>
0

>  <SCORE.SYSTEM.CONST>
0

>  <SCORE.SYSTEM.DIHEDRAL>
0

>  <SCORE.SYSTEM.SOLV>
0

>  <SCORE.SYSTEM.norm>
0

>  <SCORE.heavy>
52

>  <SCORE.norm>
-0.096935

>  <RMSD>
10.605

$$$$
2fd0_lig
 OpenBabel11021811433D
libRbt.so/2013.1/901 2013/11/27
 52 56  0  0  0  0  0  0  0  0999 V2000
    2.0846  -52.5648    7.5261 C   0  0  2  0  0  0  0  0  0  0  0  0
    1.6660  -52.8071    6.1759 O   0  0  0  0  0  0  0  0  0  0  0  0
   -2.1831  -53.1162    4.1807 C   0  0  2  0  0  0  0  0  0  0  0  0
   -3.4998  -53.6185    3.7552 N   0  0  0  0  0  0  0  0  0  0  0  0
   -1.1960  -50.9854    8.2717 C   0  0  1  0  0  0  0  0  0  0  0  0
    0.5256  -47.8095   10.4092 C   0  0  1  0  0  0  0  0  0  0  0  0
    1.3841  -43.3986   12.4926 C   0  0  1  0  0  0  0  0  0  0  0  0
    3.4116  -51.7225    7.4947 C   0  0  2  0  0  0  0  0  0  0  0  0
    3.2450  -50.4747    6.7627 N   0  0  0  0  0  0  0  0  0  0  0  0
   -1.0511  -54.1846    3.8489 C   0  0  0  0  0  0  0  0  0  0  0  0
    0.0412  -50.2143    8.6941 C   0  0  2  0  0  0  0  0  0  0  0  0
    0.4340  -50.5094   10.0641 O   0  0  0  0  0  0  0  0  0  0  0  0
    0.0139  -46.8948   11.6178 C   0  0  2  0  0  0  0  0  0  0  0  0
   -0.6899  -45.6903   11.0988 N   0  0  0  0  0  0  0  0  0  0  0  0
    2.8118  -42.8306   12.6566 C   0  0  1  0  0  0  0  0  0  0  0  0
    3.1731  -42.1072   11.4541 O   0  0  0  0  0  0  0  0  0  0  0  0
    4.5911  -52.5806    6.9039 C   0  0  0  0  0  0  0  0  0  0  0  0
    0.3830  -53.6309    4.3030 C   0  0  2  0  0  0  0  0  0  0  0  0
    1.4478  -54.6016    4.0096 N   0  0  0  0  0  0  0  0  0  0  0  0
   -0.3419  -48.7726    8.4053 C   0  0  2  0  0  0  0  0  0  0  0  0
   -0.5779  -48.0577    9.5878 O   0  0  0  0  0  0  0  0  0  0  0  0
    1.2849  -46.6013   12.5714 C   0  0  1  0  0  0  0  0  0  0  0  0
    1.8295  -47.8668   12.9873 O   0  0  0  0  0  0  0  0  0  0  0  0
    3.0778  -41.9049   13.8745 C   0  0  1  0  0  0  0  0  0  0  0  0
    2.8787  -40.5502   13.4511 O   0  0  0  0  0  0  0  0  0  0  0  0
    4.7171  -53.8949    7.7415 C   0  0  2  0  0  0  0  0  0  0  0  0
    5.7885  -54.6933    7.2487 O   0  0  0  0  0  0  0  0  0  0  0  0
    0.3496  -53.3178    5.8250 C   0  0  2  0  0  0  0  0  0  0  0  0
   -1.6902  -48.7608    7.6461 C   0  0  2  0  0  0  0  0  0  0  0  0
   -1.9086  -50.1399    7.3856 O   0  0  0  0  0  0  0  0  0  0  0  0
    2.4660  -45.8306   11.7806 C   0  0  2  0  0  0  0  0  0  0  0  0
    1.8832  -44.5697   11.4009 O   0  0  0  0  0  0  0  0  0  0  0  0
    2.2127  -42.1665   15.1291 C   0  0  2  0  0  0  0  0  0  0  0  0
    3.1071  -42.0354   16.2558 O   0  0  0  0  0  0  0  0  0  0  0  0
    3.3826  -54.6902    7.6602 C   0  0  2  0  0  0  0  0  0  0  0  0
    2.3013  -53.8337    8.1956 O   0  0  0  0  0  0  0  0  0  0  0  0
   -0.7825  -52.3175    6.2108 C   0  0  2  0  0  0  0  0  0  0  0  0
   -0.7386  -52.1430    7.6474 O   0  0  0  0  0  0  0  0  0  0  0  0
   -1.6764  -48.0179    6.3148 C   0  0  0  0  0  0  0  0  0  0  0  0
   -1.3727  -46.6446    6.6024 O   0  0  0  0  0  0  0  0  0  0  0  0
    2.7166  -46.6445   10.5252 C   0  0  1  0  0  0  0  0  0  0  0  0
    1.6833  -47.1386    9.6476 O   0  0  0  0  0  0  0  0  0  0  0  0
    1.5277  -43.5280   15.0485 C   0  0  2  0  0  0  0  0  0  0  0  0
    0.7984  -43.7709   13.8137 O   0  0  0  0  0  0  0  0  0  0  0  0
    3.4255  -55.9453    8.4725 C   0  0  0  0  0  0  0  0  0  0  0  0
    3.9728  -55.6330    9.7250 O   0  0  0  0  0  0  0  0  0  0  0  0
   -2.1772  -52.8735    5.7435 C   0  0  1  0  0  0  0  0  0  0  0  0
   -3.2105  -51.8832    6.0767 O   0  0  0  0  0  0  0  0  0  0  0  0
    3.8144  -46.0210    9.5921 C   0  0  0  0  0  0  0  0  0  0  0  0
    3.7203  -44.5463    9.4663 N   0  0  0  0  0  0  0  0  0  0  0  0
    0.6038  -44.0351   16.1535 C   0  0  0  0  0  0  0  0  0  0  0  0
    0.2082  -45.4168   15.8911 O   0  0  0  0  0  0  0  0  0  0  0  0
  1  2  1  6  0  0  0
  1  8  1  0  0  0  0
  1 36  1  0  0  0  0
  3  4  1  1  0  0  0
  3 10  1  0  0  0  0
  3 47  1  0  0  0  0
  5 11  1  0  0  0  0
  5 30  1  0  0  0  0
  5 38  1  6  0  0  0
  6 21  1  6  0  0  0
  6 42  1  0  0  0  0
  7 15  1  0  0  0  0
  7 44  1  0  0  0  0
  7 32  1  6  0  0  0
  8  9  1  6  0  0  0
  8 17  1  0  0  0  0
 11 12  1  1  0  0  0
 11 20  1  0  0  0  0
 13  6  1  0  0  0  0
 13 14  1  6  0  0  0
 15 16  1  6  0  0  0
 15 24  1  0  0  0  0
 17 26  1  0  0  0  0
 18 10  1  0  0  0  0
 18 19  1  1  0  0  0
 20 21  1  1  0  0  0
 20 29  1  0  0  0  0
 22 13  1  0  0  0  0
 22 23  1  6  0  0  0
 24 25  1  6  0  0  0
 24 33  1  0  0  0  0
 26 27  1  6  0  0  0
 26 35  1  0  0  0  0
 28  2  1  6  0  0  0
 28 18  1  0  0  0  0
 29 30  1  0  0  0  0
 29 39  1  6  0  0  0
 31 22  1  0  0  0  0
 31 32  1  6  0  0  0
 31 41  1  0  0  0  0
 33 34  1  1  0  0  0
 33 43  1  0  0  0  0
 35 36  1  0  0  0  0
 35 45  1  1  0  0  0
 37 28  1  0  0  0  0
 37 38  1  1  0  0  0
 39 40  1  0  0  0  0
 41 42  1  0  0  0  0
 41 49  1  6  0  0  0
 43 44  1  0  0  0  0
 43 51  1  1  0  0  0
 45 46  1  0  0  0  0
 47 37  1  0  0  0  0
 47 48  1  6  0  0  0
 49 50  1  0  0  0  0
 51 52  1  0  0  0  0
M  END
>  <CHROM.1>
-167.22221771,-105.19269727,175.78253700,82.45774284,68.19237473,-171.78190423
-62.50697076,64.65001705,46.03047089,153.62221474,-41.36006630,-173.67325368
1.15783464,-48.89497533,9.38240024,-1.68076734,-0.48529493,0.58495850

>  <Name>
2fd0_lig

>  <RI>
0

>  <Rbt.Current_Directory>
/home/itssahil/PROJECTS/Mol_Feturizer/New_Systems/rnas/2fd0

>  <Rbt.Executable>
rbdock ($Id: //depot/dev/client3/rdock/2013.1/src/exe/rbdock.cxx#4 $)

>  <Rbt.Library>
libRbt.so (2013.1, Build901 2013/11/27)

>  <Rbt.Parameter_File>
/export/apps/rDock/src/rDock_2013.1_src/data/scripts/dock_solv.prm

>  <Rbt.Receptor>
prm/pocket_docking_8.prm

>  <SCORE>
-14.9236

>  <SCORE.INTER>
-12.6526

>  <SCORE.INTER.CONST>
1

>  <SCORE.INTER.POLAR>
-2.34912

>  <SCORE.INTER.ROT>
12

>  <SCORE.INTER.SOLV>
15.8031

>  <SCORE.INTER.VDW>
-17.4724

>  <SCORE.INTER.norm>
-0.24332

>  <SCORE.INTRA>
-2.27098

>  <SCORE.INTRA.DIHEDRAL>
-7.90974

>  <SCORE.INTRA.DIHEDRAL.0>
23.9727

>  <SCORE.INTRA.POLAR>
0

>  <SCORE.INTRA.POLAR.0>
0

>  <SCORE.INTRA.REPUL>
0

>  <SCORE.INTRA.REPUL.0>
0

>  <SCORE.INTRA.SOLV>
0.419494

>  <SCORE.INTRA.SOLV.lig_0>
-115.028

>  <SCORE.INTRA.VDW>
1.47415

>  <SCORE.INTRA.VDW.0>
-6.82393

>  <SCORE.INTRA.norm>
-0.0436727

>  <SCORE.RESTR>
0

>  <SCORE.RESTR.CAVITY>
0

>  <SCORE.RESTR.norm>
0

>  <SCORE.SYSTEM>
0

>  <SCORE.SYSTEM.CONST>
0

>  <SCORE.SYSTEM.DIHEDRAL>
0

>  <SCORE.SYSTEM.SOLV>
0

>  <SCORE.SYSTEM.norm>
0

>  <SCORE.heavy>
52

>  <SCORE.norm>
-0.286993

>  <RMSD>
10.670

$$$$
2fd0_lig
 OpenBabel11021811433D
libRbt.so/2013.1/901 2013/11/27
 52 56  0  0  0  0  0  0  0  0999 V2000
   -0.5510  -51.9049    6.9221 C   0  0  2  0  0  0  0  0  0  0  0  0
   -1.8630  -51.3377    7.0397 O   0  0  0  0  0  0  0  0  0  0  0  0
   -3.5563  -47.3407    7.2634 C   0  0  2  0  0  0  0  0  0  0  0  0
   -3.8791  -45.9847    7.7366 N   0  0  0  0  0  0  0  0  0  0  0  0
    0.7035  -48.6859    7.3038 C   0  0  1  0  0  0  0  0  0  0  0  0
    2.4315  -45.4796   10.0235 C   0  0  1  0  0  0  0  0  0  0  0  0
    5.2821  -46.5918   14.1170 C   0  0  1  0  0  0  0  0  0  0  0  0
   -0.6159  -53.1105    5.9153 C   0  0  2  0  0  0  0  0  0  0  0  0
   -1.1332  -52.7049    4.6158 N   0  0  0  0  0  0  0  0  0  0  0  0
   -3.9737  -48.4206    8.3554 C   0  0  0  0  0  0  0  0  0  0  0  0
    0.8980  -47.1895    7.1410 C   0  0  2  0  0  0  0  0  0  0  0  0
    2.0366  -46.8704    6.2926 O   0  0  0  0  0  0  0  0  0  0  0  0
    3.9374  -44.9400   10.0023 C   0  0  2  0  0  0  0  0  0  0  0  0
    4.8972  -46.0748    9.9233 N   0  0  0  0  0  0  0  0  0  0  0  0
    6.2888  -47.4926   13.3667 C   0  0  1  0  0  0  0  0  0  0  0  0
    7.4607  -46.7104   13.0279 O   0  0  0  0  0  0  0  0  0  0  0  0
   -1.4609  -54.2893    6.5261 C   0  0  0  0  0  0  0  0  0  0  0  0
   -3.6315  -49.8970    7.8334 C   0  0  2  0  0  0  0  0  0  0  0  0
   -4.0055  -50.9149    8.8263 N   0  0  0  0  0  0  0  0  0  0  0  0
    0.9770  -46.6989    8.5768 C   0  0  2  0  0  0  0  0  0  0  0  0
    2.2835  -46.3243    8.9198 O   0  0  0  0  0  0  0  0  0  0  0  0
    4.1173  -43.9637   11.2773 C   0  0  1  0  0  0  0  0  0  0  0  0
    3.1243  -42.9262   11.1857 O   0  0  0  0  0  0  0  0  0  0  0  0
    6.7630  -48.7862   14.0827 C   0  0  1  0  0  0  0  0  0  0  0  0
    7.9733  -48.4822   14.7877 O   0  0  0  0  0  0  0  0  0  0  0  0
   -0.8450  -54.6767    7.9100 C   0  0  2  0  0  0  0  0  0  0  0  0
   -1.5722  -55.7556    8.4891 O   0  0  0  0  0  0  0  0  0  0  0  0
   -2.1115  -49.9874    7.5216 C   0  0  2  0  0  0  0  0  0  0  0  0
    0.6287  -47.8738    9.5217 C   0  0  2  0  0  0  0  0  0  0  0  0
    0.2048  -48.8820    8.6155 O   0  0  0  0  0  0  0  0  0  0  0  0
    3.8464  -44.7371   12.6711 C   0  0  2  0  0  0  0  0  0  0  0  0
    4.8690  -45.7494   12.7270 O   0  0  0  0  0  0  0  0  0  0  0  0
    5.7586  -49.4238   15.0703 C   0  0  2  0  0  0  0  0  0  0  0  0
    5.8479  -50.8492   14.8541 O   0  0  0  0  0  0  0  0  0  0  0  0
   -0.8830  -53.4432    8.8569 C   0  0  2  0  0  0  0  0  0  0  0  0
   -0.1042  -52.3538    8.2275 O   0  0  0  0  0  0  0  0  0  0  0  0
   -1.6402  -48.9102    6.4977 C   0  0  2  0  0  0  0  0  0  0  0  0
   -0.2113  -49.0681    6.3260 O   0  0  0  0  0  0  0  0  0  0  0  0
   -0.5075  -47.6012   10.5011 C   0  0  0  0  0  0  0  0  0  0  0  0
   -1.5964  -47.0556    9.7410 O   0  0  0  0  0  0  0  0  0  0  0  0
    2.5009  -45.4183   12.5061 C   0  0  1  0  0  0  0  0  0  0  0  0
    2.1073  -46.1886   11.3512 O   0  0  0  0  0  0  0  0  0  0  0  0
    4.3547  -48.8617   14.8636 C   0  0  2  0  0  0  0  0  0  0  0  0
    4.2751  -47.4095   14.8549 O   0  0  0  0  0  0  0  0  0  0  0  0
   -0.2733  -53.7388   10.1903 C   0  0  0  0  0  0  0  0  0  0  0  0
   -1.0734  -54.6957   10.8306 O   0  0  0  0  0  0  0  0  0  0  0  0
   -1.9987  -47.4720    7.0228 C   0  0  1  0  0  0  0  0  0  0  0  0
   -1.5874  -46.4890    6.0110 O   0  0  0  0  0  0  0  0  0  0  0  0
    2.0802  -46.2688   13.7567 C   0  0  0  0  0  0  0  0  0  0  0  0
    1.6856  -45.4491   14.9279 N   0  0  0  0  0  0  0  0  0  0  0  0
    3.1698  -49.3123   15.7151 C   0  0  0  0  0  0  0  0  0  0  0  0
    3.4203  -49.0277   17.1260 O   0  0  0  0  0  0  0  0  0  0  0  0
  1  2  1  1  0  0  0
  1  8  1  0  0  0  0
  1 36  1  0  0  0  0
  3  4  1  1  0  0  0
  3 10  1  0  0  0  0
  3 47  1  0  0  0  0
  5 11  1  0  0  0  0
  5 30  1  0  0  0  0
  5 38  1  6  0  0  0
  6 21  1  6  0  0  0
  6 42  1  0  0  0  0
  7 15  1  0  0  0  0
  7 44  1  0  0  0  0
  7 32  1  6  0  0  0
  8  9  1  6  0  0  0
  8 17  1  0  0  0  0
 11 12  1  6  0  0  0
 11 20  1  0  0  0  0
 13  6  1  0  0  0  0
 13 14  1  1  0  0  0
 15 16  1  1  0  0  0
 15 24  1  0  0  0  0
 17 26  1  0  0  0  0
 18 10  1  0  0  0  0
 18 19  1  1  0  0  0
 20 21  1  1  0  0  0
 20 29  1  0  0  0  0
 22 13  1  0  0  0  0
 22 23  1  6  0  0  0
 24 25  1  1  0  0  0
 24 33  1  0  0  0  0
 26 27  1  1  0  0  0
 26 35  1  0  0  0  0
 28  2  1  6  0  0  0
 28 18  1  0  0  0  0
 29 30  1  0  0  0  0
 29 39  1  1  0  0  0
 31 22  1  0  0  0  0
 31 32  1  6  0  0  0
 31 41  1  0  0  0  0
 33 34  1  6  0  0  0
 33 43  1  0  0  0  0
 35 36  1  0  0  0  0
 35 45  1  1  0  0  0
 37 28  1  0  0  0  0
 37 38  1  1  0  0  0
 39 40  1  0  0  0  0
 41 42  1  0  0  0  0
 41 49  1  1  0  0  0
 43 44  1  0  0  0  0
 43 51  1  1  0  0  0
 45 46  1  0  0  0  0
 47 37  1  0  0  0  0
 47 48  1  6  0  0  0
 49 50  1  0  0  0  0
 51 52  1  0  0  0  0
M  END
>  <CHROM.1>
-159.55023298,-81.63987701,-167.31456552,175.85407334,160.30309244,-165.99003734
49.21884864,164.58975595,-65.48308962,-73.11886699,72.27825234,59.72062379
1.27691529,-48.65995056,10.17942757,-2.86568913,-0.81997631,-0.19986028

>  <Name>
2fd0_lig

>  <RI>
0

>  <Rbt.Current_Directory>
/home/itssahil/PROJECTS/Mol_Feturizer/New_Systems/rnas/2fd0

>  <Rbt.Executable>
rbdock ($Id: //depot/dev/client3/rdock/2013.1/src/exe/rbdock.cxx#4 $)

>  <Rbt.Library>
libRbt.so (2013.1, Build901 2013/11/27)

>  <Rbt.Parameter_File>
/export/apps/rDock/src/rDock_2013.1_src/data/scripts/dock_solv.prm

>  <Rbt.Receptor>
prm/pocket_docking_6.prm

>  <SCORE>
-13.8756

>  <SCORE.INTER>
-9.93374

>  <SCORE.INTER.CONST>
1

>  <SCORE.INTER.POLAR>
-1.74278

>  <SCORE.INTER.ROT>
12

>  <SCORE.INTER.SOLV>
13.6894

>  <SCORE.INTER.VDW>
-16.9764

>  <SCORE.INTER.norm>
-0.191034

>  <SCORE.INTRA>
-3.9419

>  <SCORE.INTRA.DIHEDRAL>
-12.1504

>  <SCORE.INTRA.DIHEDRAL.0>
23.9727

>  <SCORE.INTRA.POLAR>
0

>  <SCORE.INTRA.POLAR.0>
0

>  <SCORE.INTRA.REPUL>
0.0489752

>  <SCORE.INTRA.REPUL.0>
0

>  <SCORE.INTRA.SOLV>
0.58646

>  <SCORE.INTRA.SOLV.lig_0>
-115.028

>  <SCORE.INTRA.VDW>
1.59517

>  <SCORE.INTRA.VDW.0>
-6.82393

>  <SCORE.INTRA.norm>
-0.0758058

>  <SCORE.RESTR>
0

>  <SCORE.RESTR.CAVITY>
0

>  <SCORE.RESTR.norm>
0

>  <SCORE.SYSTEM>
0

>  <SCORE.SYSTEM.CONST>
0

>  <SCORE.SYSTEM.DIHEDRAL>
0

>  <SCORE.SYSTEM.SOLV>
0

>  <SCORE.SYSTEM.norm>
0

>  <SCORE.heavy>
52

>  <SCORE.norm>
-0.266839

>  <RMSD>
10.750

$$$$
2fd0_lig
 OpenBabel11021811433D
libRbt.so/2013.1/901 2013/11/27
 52 56  0  0  0  0  0  0  0  0999 V2000
    1.3034  -53.6695    7.9676 C   0  0  2  0  0  0  0  0  0  0  0  0
    0.7466  -52.3520    8.0727 O   0  0  0  0  0  0  0  0  0  0  0  0
   -0.7095  -51.5871    4.0494 C   0  0  2  0  0  0  0  0  0  0  0  0
   -1.3617  -50.9403    2.8991 N   0  0  0  0  0  0  0  0  0  0  0  0
    1.9483  -49.6680    7.4864 C   0  0  1  0  0  0  0  0  0  0  0  0
    4.2713  -47.5981   10.2249 C   0  0  1  0  0  0  0  0  0  0  0  0
    5.2991  -46.1636   14.9063 C   0  0  1  0  0  0  0  0  0  0  0  0
    1.5775  -54.2136    9.4169 C   0  0  2  0  0  0  0  0  0  0  0  0
    0.3714  -54.2148   10.2330 N   0  0  0  0  0  0  0  0  0  0  0  0
   -1.7603  -51.8177    5.2222 C   0  0  0  0  0  0  0  0  0  0  0  0
    3.2923  -49.0789    7.8741 C   0  0  2  0  0  0  0  0  0  0  0  0
    3.9602  -49.8601    8.9045 O   0  0  0  0  0  0  0  0  0  0  0  0
    4.0179  -48.0778   11.7299 C   0  0  2  0  0  0  0  0  0  0  0  0
    3.0832  -47.1498   12.4229 N   0  0  0  0  0  0  0  0  0  0  0  0
    6.7283  -46.7129   15.1144 C   0  0  1  0  0  0  0  0  0  0  0  0
    7.6773  -45.6278   14.9660 O   0  0  0  0  0  0  0  0  0  0  0  0
    2.7319  -53.3918   10.1013 C   0  0  0  0  0  0  0  0  0  0  0  0
   -1.0504  -52.5321    6.4692 C   0  0  2  0  0  0  0  0  0  0  0  0
   -2.0003  -52.7545    7.5693 N   0  0  0  0  0  0  0  0  0  0  0  0
    2.9420  -47.6473    8.2436 C   0  0  2  0  0  0  0  0  0  0  0  0
    3.0170  -47.4418    9.6281 O   0  0  0  0  0  0  0  0  0  0  0  0
    5.4640  -48.2587   12.4278 C   0  0  1  0  0  0  0  0  0  0  0  0
    6.2245  -49.1911   11.6383 O   0  0  0  0  0  0  0  0  0  0  0  0
    7.0285  -47.4360   16.4553 C   0  0  1  0  0  0  0  0  0  0  0  0
    7.5583  -46.4679   17.3699 O   0  0  0  0  0  0  0  0  0  0  0  0
    3.9923  -53.4420    9.1774 C   0  0  2  0  0  0  0  0  0  0  0  0
    5.0686  -52.7230    9.7715 O   0  0  0  0  0  0  0  0  0  0  0  0
    0.1335  -51.6502    6.9553 C   0  0  2  0  0  0  0  0  0  0  0  0
    1.4623  -47.3878    7.8728 C   0  0  2  0  0  0  0  0  0  0  0  0
    1.1092  -48.5708    7.1702 O   0  0  0  0  0  0  0  0  0  0  0  0
    6.3033  -46.8769   12.4416 C   0  0  2  0  0  0  0  0  0  0  0  0
    5.5165  -45.9846   13.2530 O   0  0  0  0  0  0  0  0  0  0  0  0
    5.8322  -48.1508   17.1249 C   0  0  2  0  0  0  0  0  0  0  0  0
    6.3534  -49.4018   17.6249 O   0  0  0  0  0  0  0  0  0  0  0  0
    3.6437  -52.8254    7.7925 C   0  0  2  0  0  0  0  0  0  0  0  0
    2.5355  -53.6095    7.2037 O   0  0  0  0  0  0  0  0  0  0  0  0
    1.1640  -51.3467    5.8252 C   0  0  2  0  0  0  0  0  0  0  0  0
    2.1857  -50.4882    6.3864 O   0  0  0  0  0  0  0  0  0  0  0  0
    1.2255  -46.1954    6.9528 C   0  0  0  0  0  0  0  0  0  0  0  0
    1.7761  -45.0427    7.6079 O   0  0  0  0  0  0  0  0  0  0  0  0
    6.2841  -46.3723   11.0110 C   0  0  1  0  0  0  0  0  0  0  0  0
    5.1062  -46.3052   10.1803 O   0  0  0  0  0  0  0  0  0  0  0  0
    4.6755  -48.3200   16.1436 C   0  0  2  0  0  0  0  0  0  0  0  0
    4.2771  -47.1020   15.4558 O   0  0  0  0  0  0  0  0  0  0  0  0
    4.8014  -52.8760    6.8468 C   0  0  0  0  0  0  0  0  0  0  0  0
    5.1713  -54.2187    6.6853 O   0  0  0  0  0  0  0  0  0  0  0  0
    0.4439  -50.6601    4.6075 C   0  0  1  0  0  0  0  0  0  0  0  0
    1.4337  -50.4371    3.5445 O   0  0  0  0  0  0  0  0  0  0  0  0
    7.0198  -44.9974   10.8296 C   0  0  0  0  0  0  0  0  0  0  0  0
    8.2919  -44.8993   11.5856 N   0  0  0  0  0  0  0  0  0  0  0  0
    3.3627  -48.9869   16.5482 C   0  0  0  0  0  0  0  0  0  0  0  0
    3.6114  -50.3370   17.0481 O   0  0  0  0  0  0  0  0  0  0  0  0
  1  2  1  1  0  0  0
  1  8  1  0  0  0  0
  1 36  1  0  0  0  0
  3  4  1  6  0  0  0
  3 10  1  0  0  0  0
  3 47  1  0  0  0  0
  5 11  1  0  0  0  0
  5 30  1  0  0  0  0
  5 38  1  6  0  0  0
  6 21  1  1  0  0  0
  6 42  1  0  0  0  0
  7 15  1  0  0  0  0
  7 44  1  0  0  0  0
  7 32  1  6  0  0  0
  8  9  1  1  0  0  0
  8 17  1  0  0  0  0
 11 12  1  1  0  0  0
 11 20  1  0  0  0  0
 13  6  1  0  0  0  0
 13 14  1  1  0  0  0
 15 16  1  1  0  0  0
 15 24  1  0  0  0  0
 17 26  1  0  0  0  0
 18 10  1  0  0  0  0
 18 19  1  1  0  0  0
 20 21  1  1  0  0  0
 20 29  1  0  0  0  0
 22 13  1  0  0  0  0
 22 23  1  6  0  0  0
 24 25  1  1  0  0  0
 24 33  1  0  0  0  0
 26 27  1  1  0  0  0
 26 35  1  0  0  0  0
 28  2  1  1  0  0  0
 28 18  1  0  0  0  0
 29 30  1  0  0  0  0
 29 39  1  6  0  0  0
 31 22  1  0  0  0  0
 31 32  1  1  0  0  0
 31 41  1  0  0  0  0
 33 34  1  6  0  0  0
 33 43  1  0  0  0  0
 35 36  1  0  0  0  0
 35 45  1  6  0  0  0
 37 28  1  0  0  0  0
 37 38  1  1  0  0  0
 39 40  1  0  0  0  0
 41 42  1  0  0  0  0
 41 49  1  1  0  0  0
 43 44  1  0  0  0  0
 43 51  1  1  0  0  0
 45 46  1  0  0  0  0
 47 37  1  0  0  0  0
 47 48  1  6  0  0  0
 49 50  1  0  0  0  0
 51 52  1  0  0  0  0
M  END
>  <CHROM.1>
-167.67943665,172.73308942,-150.79999038,34.93480995,63.17617021,59.43616571
-57.44819207,68.75619266,59.10069762,-24.75237282,41.78780930,-57.20294848
3.40406259,-49.46504275,10.12695401,3.03567987,-1.08452183,-0.59588551

>  <Name>
2fd0_lig

>  <RI>
0

>  <Rbt.Current_Directory>
/home/itssahil/PROJECTS/Mol_Feturizer/New_Systems/rnas/2fd0

>  <Rbt.Executable>
rbdock ($Id: //depot/dev/client3/rdock/2013.1/src/exe/rbdock.cxx#4 $)

>  <Rbt.Library>
libRbt.so (2013.1, Build901 2013/11/27)

>  <Rbt.Parameter_File>
/export/apps/rDock/src/rDock_2013.1_src/data/scripts/dock_solv.prm

>  <Rbt.Receptor>
prm/pocket_docking_6.prm

>  <SCORE>
-23.9988

>  <SCORE.INTER>
-23.168

>  <SCORE.INTER.CONST>
1

>  <SCORE.INTER.POLAR>
-2.33435

>  <SCORE.INTER.ROT>
12

>  <SCORE.INTER.SOLV>
21.3764

>  <SCORE.INTER.VDW>
-26.3896

>  <SCORE.INTER.norm>
-0.445539

>  <SCORE.INTRA>
-0.845762

>  <SCORE.INTRA.DIHEDRAL>
-9.32986

>  <SCORE.INTRA.DIHEDRAL.0>
23.9727

>  <SCORE.INTRA.POLAR>
0

>  <SCORE.INTRA.POLAR.0>
0

>  <SCORE.INTRA.REPUL>
0.0851787

>  <SCORE.INTRA.REPUL.0>
0

>  <SCORE.INTRA.SOLV>
0.21809

>  <SCORE.INTRA.SOLV.lig_0>
-115.028

>  <SCORE.INTRA.VDW>
3.28423

>  <SCORE.INTRA.VDW.0>
-6.82393

>  <SCORE.INTRA.norm>
-0.0162646

>  <SCORE.RESTR>
0.0149473

>  <SCORE.RESTR.CAVITY>
0.0149473

>  <SCORE.RESTR.norm>
0.000287448

>  <SCORE.SYSTEM>
0

>  <SCORE.SYSTEM.CONST>
0

>  <SCORE.SYSTEM.DIHEDRAL>
0

>  <SCORE.SYSTEM.SOLV>
0

>  <SCORE.SYSTEM.norm>
0

>  <SCORE.heavy>
52

>  <SCORE.norm>
-0.461516

>  <RMSD>
10.750

$$$$
2fd0_lig
 OpenBabel11021811433D
libRbt.so/2013.1/901 2013/11/27
 52 56  0  0  0  0  0  0  0  0999 V2000
   -0.1180  -52.2182    5.9743 C   0  0  2  0  0  0  0  0  0  0  0  0
    1.2034  -52.7743    6.0143 O   0  0  0  0  0  0  0  0  0  0  0  0
    1.2270  -56.0019    8.9255 C   0  0  2  0  0  0  0  0  0  0  0  0
    1.4709  -57.3057    9.5639 N   0  0  0  0  0  0  0  0  0  0  0  0
    4.1646  -52.2245    8.2944 C   0  0  1  0  0  0  0  0  0  0  0  0
    3.3614  -47.9513    9.6874 C   0  0  1  0  0  0  0  0  0  0  0  0
    4.0938  -45.3675   13.9085 C   0  0  1  0  0  0  0  0  0  0  0  0
   -0.0639  -50.8566    5.1903 C   0  0  2  0  0  0  0  0  0  0  0  0
    0.4783  -51.0240    3.8491 N   0  0  0  0  0  0  0  0  0  0  0  0
    0.4303  -56.1954    7.5613 C   0  0  0  0  0  0  0  0  0  0  0  0
    3.3261  -50.9948    7.9973 C   0  0  2  0  0  0  0  0  0  0  0  0
    3.8812  -50.1974    6.9137 O   0  0  0  0  0  0  0  0  0  0  0  0
    4.4427  -46.9728   10.3452 C   0  0  2  0  0  0  0  0  0  0  0  0
    5.1194  -47.6385   11.4917 N   0  0  0  0  0  0  0  0  0  0  0  0
    2.9975  -44.3074   14.1575 C   0  0  1  0  0  0  0  0  0  0  0  0
    1.9952  -44.8638   15.0439 O   0  0  0  0  0  0  0  0  0  0  0  0
    0.7494  -49.7858    6.0078 C   0  0  0  0  0  0  0  0  0  0  0  0
    0.1562  -54.7737    6.8736 C   0  0  2  0  0  0  0  0  0  0  0  0
   -0.5773  -54.9249    5.6083 N   0  0  0  0  0  0  0  0  0  0  0  0
    3.2350  -50.3105    9.3508 C   0  0  2  0  0  0  0  0  0  0  0  0
    4.0186  -49.1491    9.3923 O   0  0  0  0  0  0  0  0  0  0  0  0
    3.6898  -45.5857   10.6915 C   0  0  1  0  0  0  0  0  0  0  0  0
    3.1088  -45.0804    9.4757 O   0  0  0  0  0  0  0  0  0  0  0  0
    3.4452  -42.9375   14.7355 C   0  0  1  0  0  0  0  0  0  0  0  0
    3.3286  -43.0012   16.1626 O   0  0  0  0  0  0  0  0  0  0  0  0
    0.1078  -49.6524    7.4274 C   0  0  2  0  0  0  0  0  0  0  0  0
    0.8058  -48.6766    8.1947 O   0  0  0  0  0  0  0  0  0  0  0  0
    1.5134  -54.0591    6.6227 C   0  0  2  0  0  0  0  0  0  0  0  0
    3.8401  -51.2488   10.4222 C   0  0  2  0  0  0  0  0  0  0  0  0
    4.0665  -52.4452    9.6907 O   0  0  0  0  0  0  0  0  0  0  0  0
    2.4680  -45.8059   11.7274 C   0  0  2  0  0  0  0  0  0  0  0  0
    3.0962  -46.2930   12.9282 O   0  0  0  0  0  0  0  0  0  0  0  0
    4.8777  -42.4821   14.3731 C   0  0  2  0  0  0  0  0  0  0  0  0
    4.7803  -41.0683   14.0936 O   0  0  0  0  0  0  0  0  0  0  0  0
    0.1579  -51.0294    8.1493 C   0  0  2  0  0  0  0  0  0  0  0  0
   -0.5907  -52.0079    7.3299 O   0  0  0  0  0  0  0  0  0  0  0  0
    2.3594  -53.8966    7.9223 C   0  0  2  0  0  0  0  0  0  0  0  0
    3.6080  -53.2635    7.5530 O   0  0  0  0  0  0  0  0  0  0  0  0
    2.9199  -51.5708   11.5943 C   0  0  0  0  0  0  0  0  0  0  0  0
    1.8451  -52.3705   11.0781 O   0  0  0  0  0  0  0  0  0  0  0  0
    1.6262  -46.9209   11.1362 C   0  0  1  0  0  0  0  0  0  0  0  0
    2.1529  -48.1604   10.6182 O   0  0  0  0  0  0  0  0  0  0  0  0
    5.4341  -43.2977   13.2091 C   0  0  2  0  0  0  0  0  0  0  0  0
    5.3377  -44.7395   13.3745 O   0  0  0  0  0  0  0  0  0  0  0  0
   -0.4749  -50.9777    9.5035 C   0  0  0  0  0  0  0  0  0  0  0  0
   -1.8555  -50.8052    9.3310 O   0  0  0  0  0  0  0  0  0  0  0  0
    2.6035  -55.3004    8.5873 C   0  0  1  0  0  0  0  0  0  0  0  0
    3.3573  -55.1027    9.8331 O   0  0  0  0  0  0  0  0  0  0  0  0
    0.4005  -47.3142   12.0349 C   0  0  0  0  0  0  0  0  0  0  0  0
    0.7432  -48.2537   13.1300 N   0  0  0  0  0  0  0  0  0  0  0  0
    6.8370  -43.0616   12.6540 C   0  0  0  0  0  0  0  0  0  0  0  0
    7.8424  -43.3496   13.6741 O   0  0  0  0  0  0  0  0  0  0  0  0
  1  2  1  1  0  0  0
  1  8  1  0  0  0  0
  1 36  1  0  0  0  0
  3  4  1  6  0  0  0
  3 10  1  0  0  0  0
  3 47  1  0  0  0  0
  5 11  1  0  0  0  0
  5 30  1  0  0  0  0
  5 38  1  6  0  0  0
  6 21  1  1  0  0  0
  6 42  1  0  0  0  0
  7 15  1  0  0  0  0
  7 44  1  0  0  0  0
  7 32  1  6  0  0  0
  8  9  1  6  0  0  0
  8 17  1  0  0  0  0
 11 12  1  6  0  0  0
 11 20  1  0  0  0  0
 13  6  1  0  0  0  0
 13 14  1  1  0  0  0
 15 16  1  1  0  0  0
 15 24  1  0  0  0  0
 17 26  1  0  0  0  0
 18 10  1  0  0  0  0
 18 19  1  6  0  0  0
 20 21  1  6  0  0  0
 20 29  1  0  0  0  0
 22 13  1  0  0  0  0
 22 23  1  6  0  0  0
 24 25  1  1  0  0  0
 24 33  1  0  0  0  0
 26 27  1  1  0  0  0
 26 35  1  0  0  0  0
 28  2  1  1  0  0  0
 28 18  1  0  0  0  0
 29 30  1  0  0  0  0
 29 39  1  1  0  0  0
 31 22  1  0  0  0  0
 31 32  1  1  0  0  0
 31 41  1  0  0  0  0
 33 34  1  6  0  0  0
 33 43  1  0  0  0  0
 35 36  1  0  0  0  0
 35 45  1  1  0  0  0
 37 28  1  0  0  0  0
 37 38  1  6  0  0  0
 39 40  1  0  0  0  0
 41 42  1  0  0  0  0
 41 49  1  1  0  0  0
 43 44  1  0  0  0  0
 43 51  1  1  0  0  0
 45 46  1  0  0  0  0
 47 37  1  0  0  0  0
 47 48  1  1  0  0  0
 49 50  1  0  0  0  0
 51 52  1  0  0  0  0
M  END
>  <CHROM.1>
-177.73426733,-74.13300270,153.69775172,58.22299998,121.73172122,12.74769930
67.71912758,68.76171167,69.11542734,135.79384128,-82.59670185,63.04650132
2.49830032,-49.29963409,10.02329234,2.00207890,0.87238153,-2.91404194

>  <Name>
2fd0_lig

>  <RI>
3.4301e+07

>  <Rbt.Current_Directory>
/home/itssahil/PROJECTS/Mol_Feturizer/New_Systems/rnas/2fd0

>  <Rbt.Executable>
rbdock ($Id: //depot/dev/client3/rdock/2013.1/src/exe/rbdock.cxx#4 $)

>  <Rbt.Library>
libRbt.so (2013.1, Build901 2013/11/27)

>  <Rbt.Parameter_File>
/export/apps/rDock/src/rDock_2013.1_src/data/scripts/dock_solv.prm

>  <Rbt.Receptor>
prm/pocket_docking_7.prm

>  <SCORE>
-13.9507

>  <SCORE.INTER>
-15.3986

>  <SCORE.INTER.CONST>
1

>  <SCORE.INTER.POLAR>
-3.27947

>  <SCORE.INTER.ROT>
12

>  <SCORE.INTER.SOLV>
16.1272

>  <SCORE.INTER.VDW>
-16.3099

>  <SCORE.INTER.norm>
-0.296126

>  <SCORE.INTRA>
1.44787

>  <SCORE.INTRA.DIHEDRAL>
3.19609

>  <SCORE.INTRA.DIHEDRAL.0>
23.9727

>  <SCORE.INTRA.POLAR>
0

>  <SCORE.INTRA.POLAR.0>
0

>  <SCORE.INTRA.REPUL>
0

>  <SCORE.INTRA.REPUL.0>
0

>  <SCORE.INTRA.SOLV>
2.84815

>  <SCORE.INTRA.SOLV.lig_0>
-115.028

>  <SCORE.INTRA.VDW>
-1.57424

>  <SCORE.INTRA.VDW.0>
-6.82393

>  <SCORE.INTRA.norm>
0.0278437

>  <SCORE.RESTR>
0

>  <SCORE.RESTR.CAVITY>
0

>  <SCORE.RESTR.norm>
0

>  <SCORE.SYSTEM>
0

>  <SCORE.SYSTEM.CONST>
0

>  <SCORE.SYSTEM.DIHEDRAL>
0

>  <SCORE.SYSTEM.SOLV>
0

>  <SCORE.SYSTEM.norm>
0

>  <SCORE.heavy>
52

>  <SCORE.norm>
-0.268283

>  <RMSD>
10.813

$$$$
2fd0_lig
 OpenBabel11021811433D
libRbt.so/2013.1/901 2013/11/27
 52 56  0  0  0  0  0  0  0  0999 V2000
    1.1858  -54.7494    8.3365 C   0  0  2  0  0  0  0  0  0  0  0  0
    0.0633  -54.3575    9.1385 O   0  0  0  0  0  0  0  0  0  0  0  0
   -2.0607  -51.4366    6.7199 C   0  0  2  0  0  0  0  0  0  0  0  0
   -3.1420  -50.6183    6.1470 N   0  0  0  0  0  0  0  0  0  0  0  0
   -0.2953  -50.6224   10.8990 C   0  0  1  0  0  0  0  0  0  0  0  0
    0.2223  -48.1708   14.7344 C   0  0  1  0  0  0  0  0  0  0  0  0
    3.7350  -44.7305   15.2264 C   0  0  1  0  0  0  0  0  0  0  0  0
    2.1298  -55.6564    9.2069 C   0  0  2  0  0  0  0  0  0  0  0  0
    1.4290  -56.8181    9.7362 N   0  0  0  0  0  0  0  0  0  0  0  0
   -2.3720  -52.9840    6.5158 C   0  0  0  0  0  0  0  0  0  0  0  0
   -0.9739  -50.5474   12.2545 C   0  0  2  0  0  0  0  0  0  0  0  0
   -2.2369  -49.8262   12.1998 O   0  0  0  0  0  0  0  0  0  0  0  0
   -0.3627  -46.6945   14.9285 C   0  0  2  0  0  0  0  0  0  0  0  0
    0.0142  -45.8285   13.7781 N   0  0  0  0  0  0  0  0  0  0  0  0
    3.3628  -43.2637   14.9137 C   0  0  1  0  0  0  0  0  0  0  0  0
    2.9969  -42.5963   16.1469 O   0  0  0  0  0  0  0  0  0  0  0  0
    2.7913  -54.8122   10.3585 C   0  0  0  0  0  0  0  0  0  0  0  0
   -1.1880  -53.8727    7.1305 C   0  0  2  0  0  0  0  0  0  0  0  0
   -1.4526  -55.3086    6.9572 N   0  0  0  0  0  0  0  0  0  0  0  0
    0.1023  -49.9427   13.1403 C   0  0  2  0  0  0  0  0  0  0  0  0
   -0.1964  -48.6152   13.4771 O   0  0  0  0  0  0  0  0  0  0  0  0
    0.1191  -46.1723   16.3798 C   0  0  1  0  0  0  0  0  0  0  0  0
   -0.3387  -47.1157   17.3655 O   0  0  0  0  0  0  0  0  0  0  0  0
    4.4275  -42.3938   14.1922 C   0  0  1  0  0  0  0  0  0  0  0  0
    5.1865  -41.7042   15.1935 O   0  0  0  0  0  0  0  0  0  0  0  0
    3.5305  -53.5922    9.7182 C   0  0  2  0  0  0  0  0  0  0  0  0
    4.1599  -52.8107   10.7287 O   0  0  0  0  0  0  0  0  0  0  0  0
   -1.0296  -53.5366    8.6397 C   0  0  2  0  0  0  0  0  0  0  0  0
    1.4231  -49.8720   12.3372 C   0  0  2  0  0  0  0  0  0  0  0  0
    1.0988  -50.5795   11.1490 O   0  0  0  0  0  0  0  0  0  0  0  0
    1.7309  -46.1286   16.4996 C   0  0  2  0  0  0  0  0  0  0  0  0
    2.1403  -45.1641   15.5118 O   0  0  0  0  0  0  0  0  0  0  0  0
    5.4032  -43.1480   13.2596 C   0  0  2  0  0  0  0  0  0  0  0  0
    5.5545  -42.3113   12.0919 O   0  0  0  0  0  0  0  0  0  0  0  0
    2.5078  -52.7208    8.9343 C   0  0  2  0  0  0  0  0  0  0  0  0
    1.8906  -53.5636    7.8863 O   0  0  0  0  0  0  0  0  0  0  0  0
   -0.7799  -52.0193    8.8973 C   0  0  2  0  0  0  0  0  0  0  0  0
   -0.6951  -51.8289   10.3300 O   0  0  0  0  0  0  0  0  0  0  0  0
    2.6163  -50.5581   12.9928 C   0  0  0  0  0  0  0  0  0  0  0  0
    3.7707  -50.2437   12.1993 O   0  0  0  0  0  0  0  0  0  0  0  0
    2.2110  -47.5000   16.0637 C   0  0  1  0  0  0  0  0  0  0  0  0
    1.7547  -48.1920   14.8826 O   0  0  0  0  0  0  0  0  0  0  0  0
    4.8870  -44.5492   12.9439 C   0  0  2  0  0  0  0  0  0  0  0  0
    4.5143  -45.3377   14.1079 O   0  0  0  0  0  0  0  0  0  0  0  0
    3.1602  -51.5527    8.2656 C   0  0  0  0  0  0  0  0  0  0  0  0
    2.1507  -50.7360    7.7369 O   0  0  0  0  0  0  0  0  0  0  0  0
   -1.9447  -51.1665    8.2739 C   0  0  1  0  0  0  0  0  0  0  0  0
   -1.6495  -49.7433    8.4903 O   0  0  0  0  0  0  0  0  0  0  0  0
    3.7746  -47.6392   16.0691 C   0  0  0  0  0  0  0  0  0  0  0  0
    4.2507  -49.0109   15.7675 N   0  0  0  0  0  0  0  0  0  0  0  0
    5.6631  -45.5147   12.0509 C   0  0  0  0  0  0  0  0  0  0  0  0
    5.8716  -44.9285   10.7291 O   0  0  0  0  0  0  0  0  0  0  0  0
  1  2  1  1  0  0  0
  1  8  1  0  0  0  0
  1 36  1  0  0  0  0
  3  4  1  1  0  0  0
  3 10  1  0  0  0  0
  3 47  1  0  0  0  0
  5 11  1  0  0  0  0
  5 30  1  0  0  0  0
  5 38  1  1  0  0  0
  6 21  1  6  0  0  0
  6 42  1  0  0  0  0
  7 15  1  0  0  0  0
  7 44  1  0  0  0  0
  7 32  1  6  0  0  0
  8  9  1  1  0  0  0
  8 17  1  0  0  0  0
 11 12  1  6  0  0  0
 11 20  1  0  0  0  0
 13  6  1  0  0  0  0
 13 14  1  6  0  0  0
 15 16  1  1  0  0  0
 15 24  1  0  0  0  0
 17 26  1  0  0  0  0
 18 10  1  0  0  0  0
 18 19  1  1  0  0  0
 20 21  1  6  0  0  0
 20 29  1  0  0  0  0
 22 13  1  0  0  0  0
 22 23  1  1  0  0  0
 24 25  1  1  0  0  0
 24 33  1  0  0  0  0
 26 27  1  1  0  0  0
 26 35  1  0  0  0  0
 28  2  1  6  0  0  0
 28 18  1  0  0  0  0
 29 30  1  0  0  0  0
 29 39  1  1  0  0  0
 31 22  1  0  0  0  0
 31 32  1  6  0  0  0
 31 41  1  0  0  0  0
 33 34  1  6  0  0  0
 33 43  1  0  0  0  0
 35 36  1  0  0  0  0
 35 45  1  6  0  0  0
 37 28  1  0  0  0  0
 37 38  1  1  0  0  0
 39 40  1  0  0  0  0
 41 42  1  0  0  0  0
 41 49  1  6  0  0  0
 43 44  1  0  0  0  0
 43 51  1  1  0  0  0
 45 46  1  0  0  0  0
 47 37  1  0  0  0  0
 47 48  1  6  0  0  0
 49 50  1  0  0  0  0
 51 52  1  0  0  0  0
M  END
>  <CHROM.1>
-178.50486119,151.76238439,-174.41705747,-144.99482111,147.19821685,31.67988634
-172.74807635,179.63382738,-172.39900199,170.95629072,174.60579827,-58.65046417
1.59144074,-49.23902708,11.77848958,-1.89575766,0.32842157,0.73267310

>  <Name>
2fd0_lig

>  <RI>
3.4301e+07

>  <Rbt.Current_Directory>
/home/itssahil/PROJECTS/Mol_Feturizer/New_Systems/rnas/2fd0

>  <Rbt.Executable>
rbdock ($Id: //depot/dev/client3/rdock/2013.1/src/exe/rbdock.cxx#4 $)

>  <Rbt.Library>
libRbt.so (2013.1, Build901 2013/11/27)

>  <Rbt.Parameter_File>
/export/apps/rDock/src/rDock_2013.1_src/data/scripts/dock_solv.prm

>  <Rbt.Receptor>
prm/pocket_docking_7.prm

>  <SCORE>
-19.7229

>  <SCORE.INTER>
-15.6964

>  <SCORE.INTER.CONST>
1

>  <SCORE.INTER.POLAR>
-2.58165

>  <SCORE.INTER.ROT>
12

>  <SCORE.INTER.SOLV>
14.2178

>  <SCORE.INTER.VDW>
-18.1981

>  <SCORE.INTER.norm>
-0.301854

>  <SCORE.INTRA>
-4.02651

>  <SCORE.INTRA.DIHEDRAL>
-6.14392

>  <SCORE.INTRA.DIHEDRAL.0>
23.9727

>  <SCORE.INTRA.POLAR>
0

>  <SCORE.INTRA.POLAR.0>
0

>  <SCORE.INTRA.REPUL>
0

>  <SCORE.INTRA.REPUL.0>
0

>  <SCORE.INTRA.SOLV>
-1.2934

>  <SCORE.INTRA.SOLV.lig_0>
-115.028

>  <SCORE.INTRA.VDW>
-0.307847

>  <SCORE.INTRA.VDW.0>
-6.82393

>  <SCORE.INTRA.norm>
-0.0774328

>  <SCORE.RESTR>
0

>  <SCORE.RESTR.CAVITY>
0

>  <SCORE.RESTR.norm>
0

>  <SCORE.SYSTEM>
0

>  <SCORE.SYSTEM.CONST>
0

>  <SCORE.SYSTEM.DIHEDRAL>
0

>  <SCORE.SYSTEM.SOLV>
0

>  <SCORE.SYSTEM.norm>
0

>  <SCORE.heavy>
52

>  <SCORE.norm>
-0.379287

>  <RMSD>
10.836

$$$$
2fd0_lig
 OpenBabel11021811433D
libRbt.so/2013.1/901 2013/11/27
 52 56  0  0  0  0  0  0  0  0999 V2000
   -0.2991  -52.0334   10.4007 C   0  0  2  0  0  0  0  0  0  0  0  0
    0.1945  -52.6482    9.2027 O   0  0  0  0  0  0  0  0  0  0  0  0
    4.2201  -53.5037    7.8042 C   0  0  2  0  0  0  0  0  0  0  0  0
    5.5662  -53.3342    7.2330 N   0  0  0  0  0  0  0  0  0  0  0  0
    3.0037  -50.6393   10.9351 C   0  0  1  0  0  0  0  0  0  0  0  0
    2.6348  -46.1519   10.3586 C   0  0  1  0  0  0  0  0  0  0  0  0
    6.0660  -42.1888   11.1170 C   0  0  1  0  0  0  0  0  0  0  0  0
   -1.6848  -52.6824   10.7613 C   0  0  2  0  0  0  0  0  0  0  0  0
   -1.5840  -54.1272   10.9133 N   0  0  0  0  0  0  0  0  0  0  0  0
    3.1132  -53.0574    6.7513 C   0  0  0  0  0  0  0  0  0  0  0  0
    2.2550  -49.7961    9.9192 C   0  0  2  0  0  0  0  0  0  0  0  0
    2.9283  -49.7595    8.6294 O   0  0  0  0  0  0  0  0  0  0  0  0
    3.2100  -45.2729    9.1519 C   0  0  2  0  0  0  0  0  0  0  0  0
    4.6510  -45.5719    8.9294 N   0  0  0  0  0  0  0  0  0  0  0  0
    7.2466  -43.1818   11.0284 C   0  0  1  0  0  0  0  0  0  0  0  0
    7.5404  -43.4428    9.6336 O   0  0  0  0  0  0  0  0  0  0  0  0
   -2.7679  -52.2931    9.6880 C   0  0  0  0  0  0  0  0  0  0  0  0
    1.6481  -53.2534    7.3714 C   0  0  2  0  0  0  0  0  0  0  0  0
    0.6056  -52.8452    6.4183 N   0  0  0  0  0  0  0  0  0  0  0  0
    2.1027  -48.4623   10.6308 C   0  0  2  0  0  0  0  0  0  0  0  0
    2.9417  -47.4860   10.0760 O   0  0  0  0  0  0  0  0  0  0  0  0
    2.8611  -43.7281    9.4723 C   0  0  1  0  0  0  0  0  0  0  0  0
    1.4364  -43.6212    9.6447 O   0  0  0  0  0  0  0  0  0  0  0  0
    8.5712  -42.7830   11.7337 C   0  0  1  0  0  0  0  0  0  0  0  0
    9.4039  -42.1258   10.7699 O   0  0  0  0  0  0  0  0  0  0  0  0
   -2.8275  -50.7341    9.5855 C   0  0  2  0  0  0  0  0  0  0  0  0
   -3.8117  -50.3393    8.6349 O   0  0  0  0  0  0  0  0  0  0  0  0
    1.5328  -52.4209    8.6788 C   0  0  2  0  0  0  0  0  0  0  0  0
    2.5785  -48.6245   12.0943 C   0  0  2  0  0  0  0  0  0  0  0  0
    2.7936  -50.0249   12.1945 O   0  0  0  0  0  0  0  0  0  0  0  0
    3.5299  -43.2346   10.8592 C   0  0  2  0  0  0  0  0  0  0  0  0
    4.9482  -43.3421   10.6344 O   0  0  0  0  0  0  0  0  0  0  0  0
    8.4329  -41.8722   12.9754 C   0  0  2  0  0  0  0  0  0  0  0  0
    9.3787  -42.3807   13.9414 O   0  0  0  0  0  0  0  0  0  0  0  0
   -1.4332  -50.1896    9.1621 C   0  0  2  0  0  0  0  0  0  0  0  0
   -0.4455  -50.6065   10.1819 O   0  0  0  0  0  0  0  0  0  0  0  0
    2.6334  -52.7809    9.7228 C   0  0  2  0  0  0  0  0  0  0  0  0
    2.4479  -51.9143   10.8677 O   0  0  0  0  0  0  0  0  0  0  0  0
    1.5603  -48.2190   13.1542 C   0  0  0  0  0  0  0  0  0  0  0  0
    2.1866  -48.4057   14.4325 O   0  0  0  0  0  0  0  0  0  0  0  0
    3.1260  -44.2644   11.8973 C   0  0  1  0  0  0  0  0  0  0  0  0
    3.2087  -45.6930   11.7115 O   0  0  0  0  0  0  0  0  0  0  0  0
    6.9934  -41.8518   13.4826 C   0  0  2  0  0  0  0  0  0  0  0  0
    5.9940  -41.5582   12.4676 O   0  0  0  0  0  0  0  0  0  0  0  0
   -1.4137  -48.6963    9.0805 C   0  0  0  0  0  0  0  0  0  0  0  0
   -0.1482  -48.3033    8.6225 O   0  0  0  0  0  0  0  0  0  0  0  0
    4.0606  -52.5956    9.0892 C   0  0  1  0  0  0  0  0  0  0  0  0
    5.0681  -52.9928   10.0825 O   0  0  0  0  0  0  0  0  0  0  0  0
    3.7261  -43.9781   13.3194 C   0  0  0  0  0  0  0  0  0  0  0  0
    2.9570  -42.9782   14.0991 N   0  0  0  0  0  0  0  0  0  0  0  0
    6.5747  -41.0220   14.6942 C   0  0  0  0  0  0  0  0  0  0  0  0
    5.1866  -41.3068   15.0502 O   0  0  0  0  0  0  0  0  0  0  0  0
  1  2  1  6  0  0  0
  1  8  1  0  0  0  0
  1 36  1  0  0  0  0
  3  4  1  6  0  0  0
  3 10  1  0  0  0  0
  3 47  1  0  0  0  0
  5 11  1  0  0  0  0
  5 30  1  0  0  0  0
  5 38  1  1  0  0  0
  6 21  1  6  0  0  0
  6 42  1  0  0  0  0
  7 15  1  0  0  0  0
  7 44  1  0  0  0  0
  7 32  1  1  0  0  0
  8  9  1  6  0  0  0
  8 17  1  0  0  0  0
 11 12  1  6  0  0  0
 11 20  1  0  0  0  0
 13  6  1  0  0  0  0
 13 14  1  1  0  0  0
 15 16  1  6  0  0  0
 15 24  1  0  0  0  0
 17 26  1  0  0  0  0
 18 10  1  0  0  0  0
 18 19  1  6  0  0  0
 20 21  1  6  0  0  0
 20 29  1  0  0  0  0
 22 13  1  0  0  0  0
 22 23  1  1  0  0  0
 24 25  1  6  0  0  0
 24 33  1  0  0  0  0
 26 27  1  6  0  0  0
 26 35  1  0  0  0  0
 28  2  1  1  0  0  0
 28 18  1  0  0  0  0
 29 30  1  0  0  0  0
 29 39  1  1  0  0  0
 31 22  1  0  0  0  0
 31 32  1  6  0  0  0
 31 41  1  0  0  0  0
 33 34  1  1  0  0  0
 33 43  1  0  0  0  0
 35 36  1  0  0  0  0
 35 45  1  1  0  0  0
 37 28  1  0  0  0  0
 37 38  1  1  0  0  0
 39 40  1  0  0  0  0
 41 42  1  0  0  0  0
 41 49  1  1  0  0  0
 43 44  1  0  0  0  0
 43 51  1  1  0  0  0
 45 46  1  0  0  0  0
 47 37  1  0  0  0  0
 47 48  1  1  0  0  0
 49 50  1  0  0  0  0
 51 52  1  0  0  0  0
M  END
>  <CHROM.1>
-171.44841402,69.57183360,-153.63621417,160.73317429,161.93376869,-179.24361170
-178.60368812,137.58191582,-176.73996723,-85.84828335,81.94538762,-173.45966675
2.99285215,-47.73321257,10.58749794,2.10720278,-0.13570805,-2.74310152

>  <Name>
2fd0_lig

>  <RI>
0

>  <Rbt.Current_Directory>
/home/itssahil/PROJECTS/Mol_Feturizer/New_Systems/rnas/2fd0

>  <Rbt.Executable>
rbdock ($Id: //depot/dev/client3/rdock/2013.1/src/exe/rbdock.cxx#4 $)

>  <Rbt.Library>
libRbt.so (2013.1, Build901 2013/11/27)

>  <Rbt.Parameter_File>
/export/apps/rDock/src/rDock_2013.1_src/data/scripts/dock_solv.prm

>  <Rbt.Receptor>
prm/pocket_docking_8.prm

>  <SCORE>
-18.57

>  <SCORE.INTER>
-14.2256

>  <SCORE.INTER.CONST>
1

>  <SCORE.INTER.POLAR>
-3.0182

>  <SCORE.INTER.ROT>
12

>  <SCORE.INTER.SOLV>
20.04

>  <SCORE.INTER.VDW>
-17.7031

>  <SCORE.INTER.norm>
-0.273569

>  <SCORE.INTRA>
-4.34443

>  <SCORE.INTRA.DIHEDRAL>
-5.96624

>  <SCORE.INTRA.DIHEDRAL.0>
23.9727

>  <SCORE.INTRA.POLAR>
0

>  <SCORE.INTRA.POLAR.0>
0

>  <SCORE.INTRA.REPUL>
0

>  <SCORE.INTRA.REPUL.0>
0

>  <SCORE.INTRA.SOLV>
-1.31245

>  <SCORE.INTRA.SOLV.lig_0>
-115.028

>  <SCORE.INTRA.VDW>
-0.705086

>  <SCORE.INTRA.VDW.0>
-6.82393

>  <SCORE.INTRA.norm>
-0.0835467

>  <SCORE.RESTR>
0

>  <SCORE.RESTR.CAVITY>
0

>  <SCORE.RESTR.norm>
0

>  <SCORE.SYSTEM>
0

>  <SCORE.SYSTEM.CONST>
0

>  <SCORE.SYSTEM.DIHEDRAL>
0

>  <SCORE.SYSTEM.SOLV>
0

>  <SCORE.SYSTEM.norm>
0

>  <SCORE.heavy>
52

>  <SCORE.norm>
-0.357116

>  <RMSD>
10.836

$$$$
2fd0_lig
 OpenBabel11021811433D
libRbt.so/2013.1/901 2013/11/27
 52 56  0  0  0  0  0  0  0  0999 V2000
    0.2131  -51.6827    7.7453 C   0  0  2  0  0  0  0  0  0  0  0  0
   -0.0568  -50.3227    7.3789 O   0  0  0  0  0  0  0  0  0  0  0  0
   -2.5648  -48.7310    4.2057 C   0  0  2  0  0  0  0  0  0  0  0  0
   -3.7498  -48.3396    3.4249 N   0  0  0  0  0  0  0  0  0  0  0  0
   -0.1494  -47.1654    8.2906 C   0  0  1  0  0  0  0  0  0  0  0  0
    3.6728  -47.6327   10.7077 C   0  0  1  0  0  0  0  0  0  0  0  0
    5.6298  -46.6872   15.1240 C   0  0  1  0  0  0  0  0  0  0  0  0
   -0.3667  -51.9374    9.1842 C   0  0  2  0  0  0  0  0  0  0  0  0
   -1.7918  -51.6456    9.2543 N   0  0  0  0  0  0  0  0  0  0  0  0
   -2.5909  -50.2944    4.5026 C   0  0  0  0  0  0  0  0  0  0  0  0
    0.2302  -48.0529    9.4619 C   0  0  2  0  0  0  0  0  0  0  0  0
   -0.3268  -47.5754   10.7188 O   0  0  0  0  0  0  0  0  0  0  0  0
    3.6995  -48.2006   12.2031 C   0  0  2  0  0  0  0  0  0  0  0  0
    3.0112  -47.2614   13.1302 N   0  0  0  0  0  0  0  0  0  0  0  0
    7.1668  -46.8298   15.1954 C   0  0  1  0  0  0  0  0  0  0  0  0
    7.7681  -45.5152   15.0939 O   0  0  0  0  0  0  0  0  0  0  0  0
    0.4406  -51.1125   10.2540 C   0  0  0  0  0  0  0  0  0  0  0  0
   -1.2942  -50.7201    5.3433 C   0  0  2  0  0  0  0  0  0  0  0  0
   -1.2953  -52.1615    5.6337 N   0  0  0  0  0  0  0  0  0  0  0  0
    1.7466  -48.0968    9.3776 C   0  0  2  0  0  0  0  0  0  0  0  0
    2.3393  -47.3460   10.4022 O   0  0  0  0  0  0  0  0  0  0  0  0
    5.2389  -48.5326   12.5650 C   0  0  1  0  0  0  0  0  0  0  0  0
    5.7370  -49.4568   11.5808 O   0  0  0  0  0  0  0  0  0  0  0  0
    7.7623  -47.5374   16.4427 C   0  0  1  0  0  0  0  0  0  0  0  0
    8.0812  -46.5303   17.4113 O   0  0  0  0  0  0  0  0  0  0  0  0
    1.9545  -51.4823   10.1272 C   0  0  2  0  0  0  0  0  0  0  0  0
    2.7194  -50.7684   11.0933 O   0  0  0  0  0  0  0  0  0  0  0  0
   -1.2566  -49.9079    6.6679 C   0  0  2  0  0  0  0  0  0  0  0  0
    2.1897  -47.4125    8.0624 C   0  0  2  0  0  0  0  0  0  0  0  0
    0.9530  -47.1879    7.4007 O   0  0  0  0  0  0  0  0  0  0  0  0
    6.1756  -47.2177   12.4759 C   0  0  2  0  0  0  0  0  0  0  0  0
    5.6531  -46.3331   13.4849 O   0  0  0  0  0  0  0  0  0  0  0  0
    6.8658  -48.6050   17.1115 C   0  0  2  0  0  0  0  0  0  0  0  0
    7.7480  -49.6942   17.4605 O   0  0  0  0  0  0  0  0  0  0  0  0
    2.4535  -51.1361    8.6951 C   0  0  2  0  0  0  0  0  0  0  0  0
    1.6462  -51.9090    7.7254 O   0  0  0  0  0  0  0  0  0  0  0  0
   -1.2878  -48.3670    6.4323 C   0  0  2  0  0  0  0  0  0  0  0  0
   -1.2940  -47.7277    7.7313 O   0  0  0  0  0  0  0  0  0  0  0  0
    3.0708  -48.2640    7.1552 C   0  0  0  0  0  0  0  0  0  0  0  0
    2.1945  -49.0062    6.2935 O   0  0  0  0  0  0  0  0  0  0  0  0
    5.9010  -46.6113   11.1127 C   0  0  1  0  0  0  0  0  0  0  0  0
    4.5856  -46.4018   10.5577 O   0  0  0  0  0  0  0  0  0  0  0  0
    5.7225  -49.0172   16.1882 C   0  0  2  0  0  0  0  0  0  0  0  0
    4.9515  -47.9113   15.6422 O   0  0  0  0  0  0  0  0  0  0  0  0
    3.8906  -51.5004    8.4970 C   0  0  0  0  0  0  0  0  0  0  0  0
    4.1930  -51.3485    7.1364 O   0  0  0  0  0  0  0  0  0  0  0  0
   -2.5590  -47.9741    5.5943 C   0  0  1  0  0  0  0  0  0  0  0  0
   -2.5273  -46.5256    5.3483 O   0  0  0  0  0  0  0  0  0  0  0  0
    6.6954  -45.2821   10.8550 C   0  0  0  0  0  0  0  0  0  0  0  0
    6.2619  -44.1540   11.7145 N   0  0  0  0  0  0  0  0  0  0  0  0
    4.6795  -50.0517   16.6049 C   0  0  0  0  0  0  0  0  0  0  0  0
    5.3205  -51.3330   16.8911 O   0  0  0  0  0  0  0  0  0  0  0  0
  1  2  1  1  0  0  0
  1  8  1  0  0  0  0
  1 36  1  0  0  0  0
  3  4  1  6  0  0  0
  3 10  1  0  0  0  0
  3 47  1  0  0  0  0
  5 11  1  0  0  0  0
  5 30  1  0  0  0  0
  5 38  1  6  0  0  0
  6 21  1  1  0  0  0
  6 42  1  0  0  0  0
  7 15  1  0  0  0  0
  7 44  1  0  0  0  0
  7 32  1  6  0  0  0
  8  9  1  6  0  0  0
  8 17  1  0  0  0  0
 11 12  1  1  0  0  0
 11 20  1  0  0  0  0
 13  6  1  0  0  0  0
 13 14  1  1  0  0  0
 15 16  1  1  0  0  0
 15 24  1  0  0  0  0
 17 26  1  0  0  0  0
 18 10  1  0  0  0  0
 18 19  1  1  0  0  0
 20 21  1  1  0  0  0
 20 29  1  0  0  0  0
 22 13  1  0  0  0  0
 22 23  1  6  0  0  0
 24 25  1  1  0  0  0
 24 33  1  0  0  0  0
 26 27  1  1  0  0  0
 26 35  1  0  0  0  0
 28  2  1  6  0  0  0
 28 18  1  0  0  0  0
 29 30  1  0  0  0  0
 29 39  1  6  0  0  0
 31 22  1  0  0  0  0
 31 32  1  1  0  0  0
 31 41  1  0  0  0  0
 33 34  1  6  0  0  0
 33 43  1  0  0  0  0
 35 36  1  0  0  0  0
 35 45  1  1  0  0  0
 37 28  1  0  0  0  0
 37 38  1  1  0  0  0
 39 40  1  0  0  0  0
 41 42  1  0  0  0  0
 41 49  1  1  0  0  0
 43 44  1  0  0  0  0
 43 51  1  1  0  0  0
 45 46  1  0  0  0  0
 47 37  1  0  0  0  0
 47 48  1  6  0  0  0
 49 50  1  0  0  0  0
 51 52  1  0  0  0  0
M  END
>  <CHROM.1>
-91.02999331,-110.46847317,-115.53038998,59.99475841,160.11451895,-57.34863902
88.83386808,62.19635434,171.03389753,101.52156120,-67.51681581,-60.25774241
2.64292974,-48.69275163,10.39388721,2.94184700,-0.86466475,-0.45063571

>  <Name>
2fd0_lig

>  <RI>
1.29864e+07

>  <Rbt.Current_Directory>
/home/itssahil/PROJECTS/Mol_Feturizer/New_Systems/rnas/2fd0

>  <Rbt.Executable>
rbdock ($Id: //depot/dev/client3/rdock/2013.1/src/exe/rbdock.cxx#4 $)

>  <Rbt.Library>
libRbt.so (2013.1, Build901 2013/11/27)

>  <Rbt.Parameter_File>
/export/apps/rDock/src/rDock_2013.1_src/data/scripts/dock_solv.prm

>  <Rbt.Receptor>
prm/pocket_docking_3.prm

>  <SCORE>
-3.08183

>  <SCORE.INTER>
-6.23233

>  <SCORE.INTER.CONST>
1

>  <SCORE.INTER.POLAR>
0

>  <SCORE.INTER.ROT>
12

>  <SCORE.INTER.SOLV>
10.3391

>  <SCORE.INTER.VDW>
-19.2013

>  <SCORE.INTER.norm>
-0.119852

>  <SCORE.INTRA>
3.13904

>  <SCORE.INTRA.DIHEDRAL>
5.55272

>  <SCORE.INTRA.DIHEDRAL.0>
23.9727

>  <SCORE.INTRA.POLAR>
0

>  <SCORE.INTRA.POLAR.0>
0

>  <SCORE.INTRA.REPUL>
0

>  <SCORE.INTRA.REPUL.0>
0

>  <SCORE.INTRA.SOLV>
5.11445

>  <SCORE.INTRA.SOLV.lig_0>
-115.028

>  <SCORE.INTRA.VDW>
-2.19455

>  <SCORE.INTRA.VDW.0>
-6.82393

>  <SCORE.INTRA.norm>
0.0603661

>  <SCORE.RESTR>
0.0114586

>  <SCORE.RESTR.CAVITY>
0.0114586

>  <SCORE.RESTR.norm>
0.000220357

>  <SCORE.SYSTEM>
0

>  <SCORE.SYSTEM.CONST>
0

>  <SCORE.SYSTEM.DIHEDRAL>
0

>  <SCORE.SYSTEM.SOLV>
0

>  <SCORE.SYSTEM.norm>
0

>  <SCORE.heavy>
52

>  <SCORE.norm>
-0.059266

>  <RMSD>
10.906

$$$$
2fd0_lig
 OpenBabel11021811433D
libRbt.so/2013.1/901 2013/11/27
 52 56  0  0  0  0  0  0  0  0999 V2000
    0.6628  -53.9317    7.8975 C   0  0  2  0  0  0  0  0  0  0  0  0
    0.9072  -52.9456    6.8851 O   0  0  0  0  0  0  0  0  0  0  0  0
    1.2250  -53.3583    2.5698 C   0  0  2  0  0  0  0  0  0  0  0  0
    0.8701  -53.5654    1.1563 N   0  0  0  0  0  0  0  0  0  0  0  0
    0.4094  -50.1939    6.4498 C   0  0  1  0  0  0  0  0  0  0  0  0
    2.0294  -47.0283    9.1543 C   0  0  1  0  0  0  0  0  0  0  0  0
    5.9745  -44.2705   11.2865 C   0  0  1  0  0  0  0  0  0  0  0  0
   -0.5820  -53.4803    8.7449 C   0  0  2  0  0  0  0  0  0  0  0  0
   -1.7596  -53.2763    7.9128 N   0  0  0  0  0  0  0  0  0  0  0  0
    0.7919  -54.6197    3.4384 C   0  0  0  0  0  0  0  0  0  0  0  0
    1.6378  -49.3225    6.2622 C   0  0  2  0  0  0  0  0  0  0  0  0
    2.8717  -50.0401    6.5465 O   0  0  0  0  0  0  0  0  0  0  0  0
    2.9841  -45.8849    8.5707 C   0  0  2  0  0  0  0  0  0  0  0  0
    4.3623  -46.4090    8.3680 N   0  0  0  0  0  0  0  0  0  0  0  0
    6.8751  -45.4068   11.8207 C   0  0  1  0  0  0  0  0  0  0  0  0
    7.3298  -46.2127   10.7055 O   0  0  0  0  0  0  0  0  0  0  0  0
   -0.2386  -52.1904    9.5784 C   0  0  0  0  0  0  0  0  0  0  0  0
    1.1894  -54.3966    4.9752 C   0  0  2  0  0  0  0  0  0  0  0  0
    0.7972  -55.5482    5.8010 N   0  0  0  0  0  0  0  0  0  0  0  0
    1.3430  -48.1241    7.1485 C   0  0  2  0  0  0  0  0  0  0  0  0
    2.1408  -48.1298    8.3010 O   0  0  0  0  0  0  0  0  0  0  0  0
    2.8626  -44.6079    9.5534 C   0  0  1  0  0  0  0  0  0  0  0  0
    1.4755  -44.2311    9.6223 O   0  0  0  0  0  0  0  0  0  0  0  0
    8.1168  -45.0007   12.6600 C   0  0  1  0  0  0  0  0  0  0  0  0
    9.2361  -44.8974   11.7707 O   0  0  0  0  0  0  0  0  0  0  0  0
    1.0249  -52.4848   10.4512 C   0  0  2  0  0  0  0  0  0  0  0  0
    1.3586  -51.3447   11.2367 O   0  0  0  0  0  0  0  0  0  0  0  0
    0.5003  -53.1050    5.4972 C   0  0  2  0  0  0  0  0  0  0  0  0
   -0.1132  -48.2328    7.6604 C   0  0  2  0  0  0  0  0  0  0  0  0
   -0.6160  -49.3391    6.9250 O   0  0  0  0  0  0  0  0  0  0  0  0
    3.3173  -44.9646   11.0634 C   0  0  2  0  0  0  0  0  0  0  0  0
    4.7087  -45.3172   10.9478 O   0  0  0  0  0  0  0  0  0  0  0  0
    7.9948  -43.6841   13.4614 C   0  0  2  0  0  0  0  0  0  0  0  0
    8.6096  -43.9466   14.7418 O   0  0  0  0  0  0  0  0  0  0  0  0
    2.2178  -52.8580    9.5252 C   0  0  2  0  0  0  0  0  0  0  0  0
    1.8371  -54.0536    8.7410 O   0  0  0  0  0  0  0  0  0  0  0  0
    0.8478  -51.8479    4.6428 C   0  0  2  0  0  0  0  0  0  0  0  0
    0.1165  -50.7283    5.1978 O   0  0  0  0  0  0  0  0  0  0  0  0
   -0.9937  -47.0230    7.3678 C   0  0  0  0  0  0  0  0  0  0  0  0
   -0.5659  -45.9695    8.2444 O   0  0  0  0  0  0  0  0  0  0  0  0
    2.5342  -46.2069   11.4439 C   0  0  1  0  0  0  0  0  0  0  0  0
    2.3933  -47.3757   10.6094 O   0  0  0  0  0  0  0  0  0  0  0  0
    6.5389  -43.2373   13.5633 C   0  0  2  0  0  0  0  0  0  0  0  0
    5.8290  -43.1803   12.2951 O   0  0  0  0  0  0  0  0  0  0  0  0
    3.4520  -53.1872   10.3033 C   0  0  0  0  0  0  0  0  0  0  0  0
    3.9011  -52.0121   10.9222 O   0  0  0  0  0  0  0  0  0  0  0  0
    0.4633  -52.0941    3.1381 C   0  0  1  0  0  0  0  0  0  0  0  0
    0.8519  -50.9117    2.3569 O   0  0  0  0  0  0  0  0  0  0  0  0
    2.8783  -46.7400   12.8798 C   0  0  0  0  0  0  0  0  0  0  0  0
    2.3725  -45.8743   13.9725 N   0  0  0  0  0  0  0  0  0  0  0  0
    6.1346  -41.9592   14.2946 C   0  0  0  0  0  0  0  0  0  0  0  0
    6.8171  -40.8046   13.7153 O   0  0  0  0  0  0  0  0  0  0  0  0
  1  2  1  6  0  0  0
  1  8  1  0  0  0  0
  1 36  1  0  0  0  0
  3  4  1  6  0  0  0
  3 10  1  0  0  0  0
  3 47  1  0  0  0  0
  5 11  1  0  0  0  0
  5 30  1  0  0  0  0
  5 38  1  6  0  0  0
  6 21  1  6  0  0  0
  6 42  1  0  0  0  0
  7 15  1  0  0  0  0
  7 44  1  0  0  0  0
  7 32  1  1  0  0  0
  8  9  1  6  0  0  0
  8 17  1  0  0  0  0
 11 12  1  1  0  0  0
 11 20  1  0  0  0  0
 13  6  1  0  0  0  0
 13 14  1  1  0  0  0
 15 16  1  6  0  0  0
 15 24  1  0  0  0  0
 17 26  1  0  0  0  0
 18 10  1  0  0  0  0
 18 19  1  1  0  0  0
 20 21  1  1  0  0  0
 20 29  1  0  0  0  0
 22 13  1  0  0  0  0
 22 23  1  1  0  0  0
 24 25  1  6  0  0  0
 24 33  1  0  0  0  0
 26 27  1  6  0  0  0
 26 35  1  0  0  0  0
 28  2  1  1  0  0  0
 28 18  1  0  0  0  0
 29 30  1  0  0  0  0
 29 39  1  6  0  0  0
 31 22  1  0  0  0  0
 31 32  1  6  0  0  0
 31 41  1  0  0  0  0
 33 34  1  1  0  0  0
 33 43  1  0  0  0  0
 35 36  1  0  0  0  0
 35 45  1  1  0  0  0
 37 28  1  0  0  0  0
 37 38  1  1  0  0  0
 39 40  1  0  0  0  0
 41 42  1  0  0  0  0
 41 49  1  1  0  0  0
 43 44  1  0  0  0  0
 43 51  1  6  0  0  0
 45 46  1  0  0  0  0
 47 37  1  0  0  0  0
 47 48  1  6  0  0  0
 49 50  1  0  0  0  0
 51 52  1  0  0  0  0
M  END
>  <CHROM.1>
-100.86114843,78.49359212,-83.52812622,146.14596849,175.71870341,-58.57720184
-72.92019229,98.80473035,-67.67933273,68.33559612,70.90683615,57.69795722
2.68432337,-48.71411709,8.92738840,-2.52339977,-0.99696438,-0.19663247

>  <Name>
2fd0_lig

>  <RI>
0

>  <Rbt.Current_Directory>
/home/itssahil/PROJECTS/Mol_Feturizer/New_Systems/rnas/2fd0

>  <Rbt.Executable>
rbdock ($Id: //depot/dev/client3/rdock/2013.1/src/exe/rbdock.cxx#4 $)

>  <Rbt.Library>
libRbt.so (2013.1, Build901 2013/11/27)

>  <Rbt.Parameter_File>
/export/apps/rDock/src/rDock_2013.1_src/data/scripts/dock_solv.prm

>  <Rbt.Receptor>
prm/pocket_docking_8.prm

>  <SCORE>
-12.3752

>  <SCORE.INTER>
-13.3978

>  <SCORE.INTER.CONST>
1

>  <SCORE.INTER.POLAR>
-2.21199

>  <SCORE.INTER.ROT>
12

>  <SCORE.INTER.SOLV>
17.0047

>  <SCORE.INTER.VDW>
-18.8268

>  <SCORE.INTER.norm>
-0.257651

>  <SCORE.INTRA>
1.02259

>  <SCORE.INTRA.DIHEDRAL>
-2.10583

>  <SCORE.INTRA.DIHEDRAL.0>
23.9727

>  <SCORE.INTRA.POLAR>
0

>  <SCORE.INTRA.POLAR.0>
0

>  <SCORE.INTRA.REPUL>
0.174952

>  <SCORE.INTRA.REPUL.0>
0

>  <SCORE.INTRA.SOLV>
-0.791734

>  <SCORE.INTRA.SOLV.lig_0>
-115.028

>  <SCORE.INTRA.VDW>
1.59661

>  <SCORE.INTRA.VDW.0>
-6.82393

>  <SCORE.INTRA.norm>
0.0196651

>  <SCORE.RESTR>
0

>  <SCORE.RESTR.CAVITY>
0

>  <SCORE.RESTR.norm>
0

>  <SCORE.SYSTEM>
0

>  <SCORE.SYSTEM.CONST>
0

>  <SCORE.SYSTEM.DIHEDRAL>
0

>  <SCORE.SYSTEM.SOLV>
0

>  <SCORE.SYSTEM.norm>
0

>  <SCORE.heavy>
52

>  <SCORE.norm>
-0.237986

>  <RMSD>
10.961

$$$$
2fd0_lig
 OpenBabel11021811433D
libRbt.so/2013.1/901 2013/11/27
 52 56  0  0  0  0  0  0  0  0999 V2000
    2.0067  -53.3536    5.9442 C   0  0  2  0  0  0  0  0  0  0  0  0
    0.5866  -53.4704    6.1079 O   0  0  0  0  0  0  0  0  0  0  0  0
   -2.7113  -50.7441    6.8718 C   0  0  2  0  0  0  0  0  0  0  0  0
   -3.5940  -49.7703    7.5347 N   0  0  0  0  0  0  0  0  0  0  0  0
    1.6465  -49.9091    6.8563 C   0  0  1  0  0  0  0  0  0  0  0  0
    3.6284  -48.4350    9.3227 C   0  0  1  0  0  0  0  0  0  0  0  0
    5.3599  -46.3583   13.8687 C   0  0  1  0  0  0  0  0  0  0  0  0
    2.5113  -54.5643    5.0776 C   0  0  2  0  0  0  0  0  0  0  0  0
    1.8357  -54.6281    3.7891 N   0  0  0  0  0  0  0  0  0  0  0  0
   -2.5690  -52.0557    7.7620 C   0  0  0  0  0  0  0  0  0  0  0  0
    3.1365  -49.9780    6.5760 C   0  0  2  0  0  0  0  0  0  0  0  0
    3.7794  -51.0791    7.2777 O   0  0  0  0  0  0  0  0  0  0  0  0
    3.8031  -46.9129    9.7833 C   0  0  2  0  0  0  0  0  0  0  0  0
    5.2451  -46.5504    9.8508 N   0  0  0  0  0  0  0  0  0  0  0  0
    6.0581  -45.3074   12.9766 C   0  0  1  0  0  0  0  0  0  0  0  0
    5.0491  -44.5131   12.3050 O   0  0  0  0  0  0  0  0  0  0  0  0
    2.3536  -55.9119    5.8749 C   0  0  0  0  0  0  0  0  0  0  0  0
   -1.6164  -53.1190    7.0330 C   0  0  2  0  0  0  0  0  0  0  0  0
   -1.4660  -54.3408    7.8371 N   0  0  0  0  0  0  0  0  0  0  0  0
    3.6159  -48.5831    6.9409 C   0  0  2  0  0  0  0  0  0  0  0  0
    4.3495  -48.5889    8.1353 O   0  0  0  0  0  0  0  0  0  0  0  0
    2.9736  -46.7272   11.1575 C   0  0  1  0  0  0  0  0  0  0  0  0
    1.6086  -47.1082   10.9072 O   0  0  0  0  0  0  0  0  0  0  0  0
    7.0576  -44.3372   13.6627 C   0  0  1  0  0  0  0  0  0  0  0  0
    6.3403  -43.1523   14.0312 O   0  0  0  0  0  0  0  0  0  0  0  0
    3.1086  -55.7743    7.2372 C   0  0  2  0  0  0  0  0  0  0  0  0
    3.0050  -56.9830    7.9831 O   0  0  0  0  0  0  0  0  0  0  0  0
   -0.2268  -52.4698    6.7819 C   0  0  2  0  0  0  0  0  0  0  0  0
    2.3819  -47.6937    7.2251 C   0  0  2  0  0  0  0  0  0  0  0  0
    1.3024  -48.5345    6.8439 O   0  0  0  0  0  0  0  0  0  0  0  0
    3.5165  -47.7045   12.3255 C   0  0  2  0  0  0  0  0  0  0  0  0
    4.8726  -47.2768   12.5529 O   0  0  0  0  0  0  0  0  0  0  0  0
    7.7888  -44.8846   14.9102 C   0  0  2  0  0  0  0  0  0  0  0  0
    9.1538  -44.4261   14.7968 O   0  0  0  0  0  0  0  0  0  0  0  0
    2.4991  -54.5961    8.0498 C   0  0  2  0  0  0  0  0  0  0  0  0
    2.6416  -53.3602    7.2488 O   0  0  0  0  0  0  0  0  0  0  0  0
   -0.3178  -51.1473    5.9611 C   0  0  2  0  0  0  0  0  0  0  0  0
    1.0248  -50.6206    5.8335 O   0  0  0  0  0  0  0  0  0  0  0  0
    2.3048  -46.4124    6.4025 C   0  0  0  0  0  0  0  0  0  0  0  0
    1.1571  -45.6842    6.8645 O   0  0  0  0  0  0  0  0  0  0  0  0
    3.5439  -49.0938   11.7166 C   0  0  1  0  0  0  0  0  0  0  0  0
    4.0918  -49.4108   10.4199 O   0  0  0  0  0  0  0  0  0  0  0  0
    7.6601  -46.4029   14.9988 C   0  0  2  0  0  0  0  0  0  0  0  0
    6.2999  -46.9063   14.8900 O   0  0  0  0  0  0  0  0  0  0  0  0
    3.2032  -54.3882    9.3530 C   0  0  0  0  0  0  0  0  0  0  0  0
    2.5327  -53.3742   10.0514 O   0  0  0  0  0  0  0  0  0  0  0  0
   -1.2677  -50.1254    6.6864 C   0  0  1  0  0  0  0  0  0  0  0  0
   -1.3697  -48.9146    5.8600 O   0  0  0  0  0  0  0  0  0  0  0  0
    4.0940  -50.1889   12.6977 C   0  0  0  0  0  0  0  0  0  0  0  0
    3.2169  -50.4333   13.8683 N   0  0  0  0  0  0  0  0  0  0  0  0
    8.2816  -47.2017   16.1423 C   0  0  0  0  0  0  0  0  0  0  0  0
    7.8225  -46.6869   17.4302 O   0  0  0  0  0  0  0  0  0  0  0  0
  1  2  1  1  0  0  0
  1  8  1  0  0  0  0
  1 36  1  0  0  0  0
  3  4  1  1  0  0  0
  3 10  1  0  0  0  0
  3 47  1  0  0  0  0
  5 11  1  0  0  0  0
  5 30  1  0  0  0  0
  5 38  1  6  0  0  0
  6 21  1  6  0  0  0
  6 42  1  0  0  0  0
  7 15  1  0  0  0  0
  7 44  1  0  0  0  0
  7 32  1  6  0  0  0
  8  9  1  6  0  0  0
  8 17  1  0  0  0  0
 11 12  1  1  0  0  0
 11 20  1  0  0  0  0
 13  6  1  0  0  0  0
 13 14  1  1  0  0  0
 15 16  1  1  0  0  0
 15 24  1  0  0  0  0
 17 26  1  0  0  0  0
 18 10  1  0  0  0  0
 18 19  1  1  0  0  0
 20 21  1  1  0  0  0
 20 29  1  0  0  0  0
 22 13  1  0  0  0  0
 22 23  1  6  0  0  0
 24 25  1  1  0  0  0
 24 33  1  0  0  0  0
 26 27  1  1  0  0  0
 26 35  1  0  0  0  0
 28  2  1  6  0  0  0
 28 18  1  0  0  0  0
 29 30  1  0  0  0  0
 29 39  1  6  0  0  0
 31 22  1  0  0  0  0
 31 32  1  6  0  0  0
 31 41  1  0  0  0  0
 33 34  1  6  0  0  0
 33 43  1  0  0  0  0
 35 36  1  0  0  0  0
 35 45  1  1  0  0  0
 37 28  1  0  0  0  0
 37 38  1  1  0  0  0
 39 40  1  0  0  0  0
 41 42  1  0  0  0  0
 41 49  1  1  0  0  0
 43 44  1  0  0  0  0
 43 51  1  1  0  0  0
 45 46  1  0  0  0  0
 47 37  1  0  0  0  0
 47 48  1  6  0  0  0
 49 50  1  0  0  0  0
 51 52  1  0  0  0  0
M  END
>  <CHROM.1>
-175.72246731,159.67158632,-101.20665033,-127.87240326,-88.37485784,-167.11247728
-176.15819157,103.91426221,-176.04161628,-79.96582541,66.57461927,54.91637878
2.98051758,-49.58827758,9.50553954,-2.37572128,-0.81184277,0.16992702

>  <Name>
2fd0_lig

>  <RI>
3.4301e+07

>  <Rbt.Current_Directory>
/home/itssahil/PROJECTS/Mol_Feturizer/New_Systems/rnas/2fd0

>  <Rbt.Executable>
rbdock ($Id: //depot/dev/client3/rdock/2013.1/src/exe/rbdock.cxx#4 $)

>  <Rbt.Library>
libRbt.so (2013.1, Build901 2013/11/27)

>  <Rbt.Parameter_File>
/export/apps/rDock/src/rDock_2013.1_src/data/scripts/dock_solv.prm

>  <Rbt.Receptor>
prm/pocket_docking_7.prm

>  <SCORE>
-10.0215

>  <SCORE.INTER>
-15.2724

>  <SCORE.INTER.CONST>
1

>  <SCORE.INTER.POLAR>
-2.31727

>  <SCORE.INTER.ROT>
12

>  <SCORE.INTER.SOLV>
17.8664

>  <SCORE.INTER.VDW>
-20.0128

>  <SCORE.INTER.norm>
-0.2937

>  <SCORE.INTRA>
5.25087

>  <SCORE.INTRA.DIHEDRAL>
3.83093

>  <SCORE.INTRA.DIHEDRAL.0>
23.9727

>  <SCORE.INTRA.POLAR>
0

>  <SCORE.INTRA.POLAR.0>
0

>  <SCORE.INTRA.REPUL>
0.000347954

>  <SCORE.INTRA.REPUL.0>
0

>  <SCORE.INTRA.SOLV>
-2.15058

>  <SCORE.INTRA.SOLV.lig_0>
-115.028

>  <SCORE.INTRA.VDW>
4.40896

>  <SCORE.INTRA.VDW.0>
-6.82393

>  <SCORE.INTRA.norm>
0.100978

>  <SCORE.RESTR>
0

>  <SCORE.RESTR.CAVITY>
0

>  <SCORE.RESTR.norm>
0

>  <SCORE.SYSTEM>
0

>  <SCORE.SYSTEM.CONST>
0

>  <SCORE.SYSTEM.DIHEDRAL>
0

>  <SCORE.SYSTEM.SOLV>
0

>  <SCORE.SYSTEM.norm>
0

>  <SCORE.heavy>
52

>  <SCORE.norm>
-0.192721

>  <RMSD>
11.044

$$$$
2fd0_lig
 OpenBabel11021811433D
libRbt.so/2013.1/901 2013/11/27
 52 56  0  0  0  0  0  0  0  0999 V2000
    1.4294  -53.9094    7.1431 C   0  0  2  0  0  0  0  0  0  0  0  0
    0.2429  -53.8608    6.3389 O   0  0  0  0  0  0  0  0  0  0  0  0
   -2.6167  -50.6154    5.9109 C   0  0  2  0  0  0  0  0  0  0  0  0
   -3.7761  -49.7363    6.1346 N   0  0  0  0  0  0  0  0  0  0  0  0
    0.3095  -50.6625    9.1670 C   0  0  1  0  0  0  0  0  0  0  0  0
    1.8391  -49.4172   13.3094 C   0  0  1  0  0  0  0  0  0  0  0  0
    1.0303  -45.4702   16.6106 C   0  0  1  0  0  0  0  0  0  0  0  0
    2.2523  -55.1879    6.7434 C   0  0  2  0  0  0  0  0  0  0  0  0
    2.5768  -55.2023    5.3238 N   0  0  0  0  0  0  0  0  0  0  0  0
   -3.0986  -52.1106    5.6555 C   0  0  0  0  0  0  0  0  0  0  0  0
    0.8951  -51.3262   10.3999 C   0  0  2  0  0  0  0  0  0  0  0  0
   -0.1238  -51.9679   11.2174 O   0  0  0  0  0  0  0  0  0  0  0  0
    0.9847  -49.6878   14.6346 C   0  0  2  0  0  0  0  0  0  0  0  0
   -0.3219  -48.9781   14.5670 N   0  0  0  0  0  0  0  0  0  0  0  0
   -0.4440  -45.3131   16.1753 C   0  0  1  0  0  0  0  0  0  0  0  0
   -1.2771  -46.1439   17.0212 O   0  0  0  0  0  0  0  0  0  0  0  0
    1.4797  -56.4914    7.1680 C   0  0  0  0  0  0  0  0  0  0  0  0
   -1.8352  -53.0638    5.4012 C   0  0  2  0  0  0  0  0  0  0  0  0
   -2.2534  -54.4534    5.1649 N   0  0  0  0  0  0  0  0  0  0  0  0
    1.6667  -50.1960   11.0602 C   0  0  2  0  0  0  0  0  0  0  0  0
    1.0245  -49.7470   12.2225 O   0  0  0  0  0  0  0  0  0  0  0  0
    1.9192  -49.3067   15.8965 C   0  0  1  0  0  0  0  0  0  0  0  0
    3.1240  -50.0889   15.8091 O   0  0  0  0  0  0  0  0  0  0  0  0
   -1.0396  -43.8792   16.1711 C   0  0  1  0  0  0  0  0  0  0  0  0
   -1.6724  -43.6603   17.4384 O   0  0  0  0  0  0  0  0  0  0  0  0
    1.1742  -56.4111    8.6993 C   0  0  2  0  0  0  0  0  0  0  0  0
    0.4897  -57.5840    9.1282 O   0  0  0  0  0  0  0  0  0  0  0  0
   -0.8875  -52.9924    6.6310 C   0  0  2  0  0  0  0  0  0  0  0  0
    1.6776  -48.9791   10.1046 C   0  0  2  0  0  0  0  0  0  0  0  0
    1.0990  -49.5116    8.9217 O   0  0  0  0  0  0  0  0  0  0  0  0
    2.3749  -47.7557   15.8619 C   0  0  2  0  0  0  0  0  0  0  0  0
    1.1444  -47.0154   15.9687 O   0  0  0  0  0  0  0  0  0  0  0  0
   -0.0406  -42.7287   15.9085 C   0  0  2  0  0  0  0  0  0  0  0  0
   -0.7252  -41.8081   15.0308 O   0  0  0  0  0  0  0  0  0  0  0  0
    0.3044  -55.1543    8.9882 C   0  0  2  0  0  0  0  0  0  0  0  0
    1.0568  -53.9600    8.5445 O   0  0  0  0  0  0  0  0  0  0  0  0
   -0.4321  -51.5377    6.9586 C   0  0  2  0  0  0  0  0  0  0  0  0
    0.4027  -51.5982    8.1400 O   0  0  0  0  0  0  0  0  0  0  0  0
    3.0613  -48.4394    9.7602 C   0  0  0  0  0  0  0  0  0  0  0  0
    3.8243  -49.5388    9.2403 O   0  0  0  0  0  0  0  0  0  0  0  0
    2.9555  -47.5307   14.4785 C   0  0  1  0  0  0  0  0  0  0  0  0
    2.3357  -47.9611   13.2485 O   0  0  0  0  0  0  0  0  0  0  0  0
    1.2693  -43.2608   15.3334 C   0  0  2  0  0  0  0  0  0  0  0  0
    1.8675  -44.3509   16.0879 O   0  0  0  0  0  0  0  0  0  0  0  0
    0.0062  -54.9996   10.4457 C   0  0  0  0  0  0  0  0  0  0  0  0
   -1.2108  -54.3145   10.5693 O   0  0  0  0  0  0  0  0  0  0  0  0
   -1.6864  -50.6179    7.1898 C   0  0  1  0  0  0  0  0  0  0  0  0
   -1.2205  -49.2476    7.4439 O   0  0  0  0  0  0  0  0  0  0  0  0
    3.4180  -46.0505   14.2345 C   0  0  0  0  0  0  0  0  0  0  0  0
    4.8746  -45.8441   14.4220 N   0  0  0  0  0  0  0  0  0  0  0  0
    2.4361  -42.3373   14.9905 C   0  0  0  0  0  0  0  0  0  0  0  0
    3.1663  -41.9697   16.2014 O   0  0  0  0  0  0  0  0  0  0  0  0
  1  2  1  6  0  0  0
  1  8  1  0  0  0  0
  1 36  1  0  0  0  0
  3  4  1  1  0  0  0
  3 10  1  0  0  0  0
  3 47  1  0  0  0  0
  5 11  1  0  0  0  0
  5 30  1  0  0  0  0
  5 38  1  6  0  0  0
  6 21  1  6  0  0  0
  6 42  1  0  0  0  0
  7 15  1  0  0  0  0
  7 44  1  0  0  0  0
  7 32  1  6  0  0  0
  8  9  1  6  0  0  0
  8 17  1  0  0  0  0
 11 12  1  1  0  0  0
 11 20  1  0  0  0  0
 13  6  1  0  0  0  0
 13 14  1  6  0  0  0
 15 16  1  1  0  0  0
 15 24  1  0  0  0  0
 17 26  1  0  0  0  0
 18 10  1  0  0  0  0
 18 19  1  1  0  0  0
 20 21  1  1  0  0  0
 20 29  1  0  0  0  0
 22 13  1  0  0  0  0
 22 23  1  6  0  0  0
 24 25  1  1  0  0  0
 24 33  1  0  0  0  0
 26 27  1  6  0  0  0
 26 35  1  0  0  0  0
 28  2  1  6  0  0  0
 28 18  1  0  0  0  0
 29 30  1  0  0  0  0
 29 39  1  6  0  0  0
 31 22  1  0  0  0  0
 31 32  1  6  0  0  0
 31 41  1  0  0  0  0
 33 34  1  6  0  0  0
 33 43  1  0  0  0  0
 35 36  1  0  0  0  0
 35 45  1  1  0  0  0
 37 28  1  0  0  0  0
 37 38  1  1  0  0  0
 39 40  1  0  0  0  0
 41 42  1  0  0  0  0
 41 49  1  6  0  0  0
 43 44  1  0  0  0  0
 43 51  1  1  0  0  0
 45 46  1  0  0  0  0
 47 37  1  0  0  0  0
 47 48  1  6  0  0  0
 49 50  1  0  0  0  0
 51 52  1  0  0  0  0
M  END
>  <CHROM.1>
165.97861546,158.38007340,-150.87539435,171.50762277,140.86908548,170.34944526
54.78410456,153.23120920,-152.30778777,-138.28765929,98.40949982,78.74329307
0.68114360,-49.66190583,11.29710588,-1.72939668,-0.89772680,0.63067519

>  <Name>
2fd0_lig

>  <RI>
0

>  <Rbt.Current_Directory>
/home/itssahil/PROJECTS/Mol_Feturizer/New_Systems/rnas/2fd0

>  <Rbt.Executable>
rbdock ($Id: //depot/dev/client3/rdock/2013.1/src/exe/rbdock.cxx#4 $)

>  <Rbt.Library>
libRbt.so (2013.1, Build901 2013/11/27)

>  <Rbt.Parameter_File>
/export/apps/rDock/src/rDock_2013.1_src/data/scripts/dock_solv.prm

>  <Rbt.Receptor>
prm/pocket_docking_8.prm

>  <SCORE>
-12.4014

>  <SCORE.INTER>
-15.3036

>  <SCORE.INTER.CONST>
1

>  <SCORE.INTER.POLAR>
-2.76569

>  <SCORE.INTER.ROT>
12

>  <SCORE.INTER.SOLV>
13.3911

>  <SCORE.INTER.VDW>
-17.0471

>  <SCORE.INTER.norm>
-0.2943

>  <SCORE.INTRA>
2.9022

>  <SCORE.INTRA.DIHEDRAL>
4.53407

>  <SCORE.INTRA.DIHEDRAL.0>
23.9727

>  <SCORE.INTRA.POLAR>
0

>  <SCORE.INTRA.POLAR.0>
0

>  <SCORE.INTRA.REPUL>
0.0899643

>  <SCORE.INTRA.REPUL.0>
0

>  <SCORE.INTRA.SOLV>
-3.36185

>  <SCORE.INTRA.SOLV.lig_0>
-115.028

>  <SCORE.INTRA.VDW>
1.86626

>  <SCORE.INTRA.VDW.0>
-6.82393

>  <SCORE.INTRA.norm>
0.0558115

>  <SCORE.RESTR>
0

>  <SCORE.RESTR.CAVITY>
0

>  <SCORE.RESTR.norm>
0

>  <SCORE.SYSTEM>
0

>  <SCORE.SYSTEM.CONST>
0

>  <SCORE.SYSTEM.DIHEDRAL>
0

>  <SCORE.SYSTEM.SOLV>
0

>  <SCORE.SYSTEM.norm>
0

>  <SCORE.heavy>
52

>  <SCORE.norm>
-0.238489

>  <RMSD>
11.076

$$$$
2fd0_lig
 OpenBabel11021811433D
libRbt.so/2013.1/901 2013/11/27
 52 56  0  0  0  0  0  0  0  0999 V2000
   -3.1378  -50.2422    9.6973 C   0  0  2  0  0  0  0  0  0  0  0  0
   -3.1525  -51.2342    8.6616 O   0  0  0  0  0  0  0  0  0  0  0  0
   -0.9430  -54.8732    7.7853 C   0  0  2  0  0  0  0  0  0  0  0  0
    0.1544  -55.7940    7.4465 N   0  0  0  0  0  0  0  0  0  0  0  0
   -0.2066  -51.8935   10.9819 C   0  0  1  0  0  0  0  0  0  0  0  0
    2.0323  -48.2682   10.1336 C   0  0  1  0  0  0  0  0  0  0  0  0
    5.8953  -44.8365   10.4072 C   0  0  1  0  0  0  0  0  0  0  0  0
   -4.5967  -49.6845    9.8763 C   0  0  2  0  0  0  0  0  0  0  0  0
   -5.5497  -50.7443   10.1751 N   0  0  0  0  0  0  0  0  0  0  0  0
   -1.1201  -53.7807    6.6417 C   0  0  0  0  0  0  0  0  0  0  0  0
   -0.1668  -50.5020   10.3770 C   0  0  2  0  0  0  0  0  0  0  0  0
    0.3728  -50.5035    9.0254 O   0  0  0  0  0  0  0  0  0  0  0  0
    3.3072  -48.5079    9.1974 C   0  0  2  0  0  0  0  0  0  0  0  0
    4.4999  -48.8527   10.0182 N   0  0  0  0  0  0  0  0  0  0  0  0
    6.2008  -45.6008   11.7149 C   0  0  1  0  0  0  0  0  0  0  0  0
    7.1072  -46.6930   11.4226 O   0  0  0  0  0  0  0  0  0  0  0  0
   -5.0300  -48.8658    8.6041 C   0  0  0  0  0  0  0  0  0  0  0  0
   -2.3227  -52.7860    7.0075 C   0  0  2  0  0  0  0  0  0  0  0  0
   -2.5059  -51.7637    5.9668 N   0  0  0  0  0  0  0  0  0  0  0  0
    0.6160  -49.7058   11.4075 C   0  0  2  0  0  0  0  0  0  0  0  0
    1.9037  -49.3974   10.9474 O   0  0  0  0  0  0  0  0  0  0  0  0
    3.4642  -47.2052    8.2544 C   0  0  1  0  0  0  0  0  0  0  0  0
    2.2329  -47.0303    7.5303 O   0  0  0  0  0  0  0  0  0  0  0  0
    6.7921  -44.7870   12.8977 C   0  0  1  0  0  0  0  0  0  0  0  0
    8.2206  -44.8803   12.8273 O   0  0  0  0  0  0  0  0  0  0  0  0
   -3.9703  -47.7445    8.3503 C   0  0  2  0  0  0  0  0  0  0  0  0
   -4.3367  -46.9672    7.2147 O   0  0  0  0  0  0  0  0  0  0  0  0
   -2.0261  -52.1096    8.3750 C   0  0  2  0  0  0  0  0  0  0  0  0
    0.8314  -50.5909   12.6583 C   0  0  2  0  0  0  0  0  0  0  0  0
    0.0363  -51.7317   12.3685 O   0  0  0  0  0  0  0  0  0  0  0  0
    3.6830  -45.8575    9.1206 C   0  0  2  0  0  0  0  0  0  0  0  0
    4.9287  -46.0705    9.8110 O   0  0  0  0  0  0  0  0  0  0  0  0
    6.3935  -43.2945   12.9625 C   0  0  2  0  0  0  0  0  0  0  0  0
    6.1462  -43.0154   14.3580 O   0  0  0  0  0  0  0  0  0  0  0  0
   -2.5753  -48.3934    8.1207 C   0  0  2  0  0  0  0  0  0  0  0  0
   -2.2259  -49.1761    9.3268 O   0  0  0  0  0  0  0  0  0  0  0  0
   -1.7872  -53.1410    9.5196 C   0  0  2  0  0  0  0  0  0  0  0  0
   -1.4794  -52.3947   10.7214 O   0  0  0  0  0  0  0  0  0  0  0  0
    0.3426  -49.9869   13.9701 C   0  0  0  0  0  0  0  0  0  0  0  0
    1.0783  -48.7709   14.1733 O   0  0  0  0  0  0  0  0  0  0  0  0
    2.5614  -45.8409   10.1419 C   0  0  1  0  0  0  0  0  0  0  0  0
    2.1710  -46.9705   10.9505 O   0  0  0  0  0  0  0  0  0  0  0  0
    5.1959  -43.0073   12.0609 C   0  0  2  0  0  0  0  0  0  0  0  0
    5.3348  -43.4834   10.6936 O   0  0  0  0  0  0  0  0  0  0  0  0
   -1.5068  -47.3688    7.9069 C   0  0  0  0  0  0  0  0  0  0  0  0
   -1.7630  -46.7223    6.6895 O   0  0  0  0  0  0  0  0  0  0  0  0
   -0.6143  -54.1146    9.1335 C   0  0  1  0  0  0  0  0  0  0  0  0
   -0.4530  -55.1020   10.2098 O   0  0  0  0  0  0  0  0  0  0  0  0
    2.6316  -44.6139   11.1186 C   0  0  0  0  0  0  0  0  0  0  0  0
    1.6242  -44.6608   12.2059 N   0  0  0  0  0  0  0  0  0  0  0  0
    4.6012  -41.6071   11.9279 C   0  0  0  0  0  0  0  0  0  0  0  0
    5.4790  -40.7559   11.1282 O   0  0  0  0  0  0  0  0  0  0  0  0
  1  2  1  6  0  0  0
  1  8  1  0  0  0  0
  1 36  1  0  0  0  0
  3  4  1  6  0  0  0
  3 10  1  0  0  0  0
  3 47  1  0  0  0  0
  5 11  1  0  0  0  0
  5 30  1  0  0  0  0
  5 38  1  1  0  0  0
  6 21  1  1  0  0  0
  6 42  1  0  0  0  0
  7 15  1  0  0  0  0
  7 44  1  0  0  0  0
  7 32  1  6  0  0  0
  8  9  1  6  0  0  0
  8 17  1  0  0  0  0
 11 12  1  6  0  0  0
 11 20  1  0  0  0  0
 13  6  1  0  0  0  0
 13 14  1  1  0  0  0
 15 16  1  6  0  0  0
 15 24  1  0  0  0  0
 17 26  1  0  0  0  0
 18 10  1  0  0  0  0
 18 19  1  6  0  0  0
 20 21  1  6  0  0  0
 20 29  1  0  0  0  0
 22 13  1  0  0  0  0
 22 23  1  1  0  0  0
 24 25  1  6  0  0  0
 24 33  1  0  0  0  0
 26 27  1  6  0  0  0
 26 35  1  0  0  0  0
 28  2  1  1  0  0  0
 28 18  1  0  0  0  0
 29 30  1  0  0  0  0
 29 39  1  1  0  0  0
 31 22  1  0  0  0  0
 31 32  1  1  0  0  0
 31 41  1  0  0  0  0
 33 34  1  1  0  0  0
 33 43  1  0  0  0  0
 35 36  1  0  0  0  0
 35 45  1  1  0  0  0
 37 28  1  0  0  0  0
 37 38  1  1  0  0  0
 39 40  1  0  0  0  0
 41 42  1  0  0  0  0
 41 49  1  1  0  0  0
 43 44  1  0  0  0  0
 43 51  1  6  0  0  0
 45 46  1  0  0  0  0
 47 37  1  0  0  0  0
 47 48  1  1  0  0  0
 49 50  1  0  0  0  0
 51 52  1  0  0  0  0
M  END
>  <CHROM.1>
-169.85665843,89.84722798,-152.84978488,138.69691030,83.76892349,-167.32584076
-60.74648447,157.58185960,-66.99195942,-81.30707728,-174.08840166,73.74552283
1.07895738,-48.45595808,10.10117754,2.42525048,0.43112476,3.06836274

>  <Name>
2fd0_lig

>  <RI>
0

>  <Rbt.Current_Directory>
/home/itssahil/PROJECTS/Mol_Feturizer/New_Systems/rnas/2fd0

>  <Rbt.Executable>
rbdock ($Id: //depot/dev/client3/rdock/2013.1/src/exe/rbdock.cxx#4 $)

>  <Rbt.Library>
libRbt.so (2013.1, Build901 2013/11/27)

>  <Rbt.Parameter_File>
/export/apps/rDock/src/rDock_2013.1_src/data/scripts/dock_solv.prm

>  <Rbt.Receptor>
prm/pocket_docking_8.prm

>  <SCORE>
-15.1948

>  <SCORE.INTER>
-13.7651

>  <SCORE.INTER.CONST>
1

>  <SCORE.INTER.POLAR>
-2.37103

>  <SCORE.INTER.ROT>
12

>  <SCORE.INTER.SOLV>
13.1686

>  <SCORE.INTER.VDW>
-17.2629

>  <SCORE.INTER.norm>
-0.264714

>  <SCORE.INTRA>
-1.4297

>  <SCORE.INTRA.DIHEDRAL>
-1.48571

>  <SCORE.INTRA.DIHEDRAL.0>
23.9727

>  <SCORE.INTRA.POLAR>
0

>  <SCORE.INTRA.POLAR.0>
0

>  <SCORE.INTRA.REPUL>
0

>  <SCORE.INTRA.REPUL.0>
0

>  <SCORE.INTRA.SOLV>
-1.94706

>  <SCORE.INTRA.SOLV.lig_0>
-115.028

>  <SCORE.INTRA.VDW>
0.286685

>  <SCORE.INTRA.VDW.0>
-6.82393

>  <SCORE.INTRA.norm>
-0.0274943

>  <SCORE.RESTR>
0

>  <SCORE.RESTR.CAVITY>
0

>  <SCORE.RESTR.norm>
0

>  <SCORE.SYSTEM>
0

>  <SCORE.SYSTEM.CONST>
0

>  <SCORE.SYSTEM.DIHEDRAL>
0

>  <SCORE.SYSTEM.SOLV>
0

>  <SCORE.SYSTEM.norm>
0

>  <SCORE.heavy>
52

>  <SCORE.norm>
-0.292208

>  <RMSD>
11.080

$$$$
2fd0_lig
 OpenBabel11021811433D
libRbt.so/2013.1/901 2013/11/27
 52 56  0  0  0  0  0  0  0  0999 V2000
    2.1796  -54.0161    6.8065 C   0  0  2  0  0  0  0  0  0  0  0  0
    1.8029  -52.7146    6.3363 O   0  0  0  0  0  0  0  0  0  0  0  0
   -1.3455  -51.2168    3.7408 C   0  0  2  0  0  0  0  0  0  0  0  0
   -2.6773  -50.9100    3.1937 N   0  0  0  0  0  0  0  0  0  0  0  0
    0.5244  -48.9261    7.3070 C   0  0  1  0  0  0  0  0  0  0  0  0
    0.8489  -45.9361   10.7010 C   0  0  1  0  0  0  0  0  0  0  0  0
    4.0675  -42.2989   12.2308 C   0  0  1  0  0  0  0  0  0  0  0  0
    1.7213  -54.1589    8.3035 C   0  0  2  0  0  0  0  0  0  0  0  0
    0.2901  -53.9372    8.4561 N   0  0  0  0  0  0  0  0  0  0  0  0
   -1.1698  -52.7888    3.9171 C   0  0  0  0  0  0  0  0  0  0  0  0
    0.3350  -48.7223    8.7990 C   0  0  2  0  0  0  0  0  0  0  0  0
   -1.0437  -48.4066    9.1419 O   0  0  0  0  0  0  0  0  0  0  0  0
    0.9699  -44.3438   10.6043 C   0  0  2  0  0  0  0  0  0  0  0  0
    2.0841  -43.9595    9.6954 N   0  0  0  0  0  0  0  0  0  0  0  0
    5.2145  -42.5761   11.2331 C   0  0  1  0  0  0  0  0  0  0  0  0
    4.6599  -42.7069    9.9007 O   0  0  0  0  0  0  0  0  0  0  0  0
    2.5527  -53.1919    9.2255 C   0  0  0  0  0  0  0  0  0  0  0  0
    0.2849  -53.1212    4.5024 C   0  0  2  0  0  0  0  0  0  0  0  0
    0.4723  -54.5690    4.6776 N   0  0  0  0  0  0  0  0  0  0  0  0
    1.3661  -47.6565    9.1300 C   0  0  2  0  0  0  0  0  0  0  0  0
    0.7599  -46.4203    9.3927 O   0  0  0  0  0  0  0  0  0  0  0  0
    1.0755  -43.7763   12.1135 C   0  0  1  0  0  0  0  0  0  0  0  0
   -0.0803  -44.2306   12.8407 O   0  0  0  0  0  0  0  0  0  0  0  0
    6.3750  -41.5462   11.1733 C   0  0  1  0  0  0  0  0  0  0  0  0
    6.0705  -40.5974   10.1431 O   0  0  0  0  0  0  0  0  0  0  0  0
    4.0729  -53.4919    9.0170 C   0  0  2  0  0  0  0  0  0  0  0  0
    4.8613  -52.6476    9.8498 O   0  0  0  0  0  0  0  0  0  0  0  0
    0.4661  -52.3903    5.8621 C   0  0  2  0  0  0  0  0  0  0  0  0
    2.2513  -47.4194    7.8832 C   0  0  2  0  0  0  0  0  0  0  0  0
    1.8226  -48.4472    7.0015 O   0  0  0  0  0  0  0  0  0  0  0  0
    2.3666  -44.3642   12.8892 C   0  0  2  0  0  0  0  0  0  0  0  0
    3.4933  -43.8720   12.1396 O   0  0  0  0  0  0  0  0  0  0  0  0
    6.6725  -40.7803   12.4831 C   0  0  2  0  0  0  0  0  0  0  0  0
    8.1122  -40.7158   12.5807 O   0  0  0  0  0  0  0  0  0  0  0  0
    4.4458  -53.2618    7.5244 C   0  0  2  0  0  0  0  0  0  0  0  0
    3.6185  -54.1674    6.6968 O   0  0  0  0  0  0  0  0  0  0  0  0
    0.2467  -50.8505    5.7537 C   0  0  2  0  0  0  0  0  0  0  0  0
    0.3974  -50.2944    7.0819 O   0  0  0  0  0  0  0  0  0  0  0  0
    3.7498  -47.5801    8.1138 C   0  0  0  0  0  0  0  0  0  0  0  0
    3.9553  -48.8997    8.6406 O   0  0  0  0  0  0  0  0  0  0  0  0
    2.2947  -45.8701   12.7201 C   0  0  1  0  0  0  0  0  0  0  0  0
    2.0355  -46.5442   11.4709 O   0  0  0  0  0  0  0  0  0  0  0  0
    6.0094  -41.4599   13.6782 C   0  0  2  0  0  0  0  0  0  0  0  0
    4.5919  -41.7391   13.5109 O   0  0  0  0  0  0  0  0  0  0  0  0
    5.8841  -53.5674    7.2505 C   0  0  0  0  0  0  0  0  0  0  0  0
    6.1455  -53.2574    5.9084 O   0  0  0  0  0  0  0  0  0  0  0  0
   -1.1794  -50.5481    5.1643 C   0  0  1  0  0  0  0  0  0  0  0  0
   -1.3300  -49.0926    5.0285 O   0  0  0  0  0  0  0  0  0  0  0  0
    3.5050  -46.6251   13.3755 C   0  0  0  0  0  0  0  0  0  0  0  0
    3.3250  -48.0958   13.4384 N   0  0  0  0  0  0  0  0  0  0  0  0
    6.1332  -40.9047   15.0953 C   0  0  0  0  0  0  0  0  0  0  0  0
    7.5392  -40.7299   15.4517 O   0  0  0  0  0  0  0  0  0  0  0  0
  1  2  1  1  0  0  0
  1  8  1  0  0  0  0
  1 36  1  0  0  0  0
  3  4  1  1  0  0  0
  3 10  1  0  0  0  0
  3 47  1  0  0  0  0
  5 11  1  0  0  0  0
  5 30  1  0  0  0  0
  5 38  1  1  0  0  0
  6 21  1  6  0  0  0
  6 42  1  0  0  0  0
  7 15  1  0  0  0  0
  7 44  1  0  0  0  0
  7 32  1  1  0  0  0
  8  9  1  6  0  0  0
  8 17  1  0  0  0  0
 11 12  1  6  0  0  0
 11 20  1  0  0  0  0
 13  6  1  0  0  0  0
 13 14  1  6  0  0  0
 15 16  1  6  0  0  0
 15 24  1  0  0  0  0
 17 26  1  0  0  0  0
 18 10  1  0  0  0  0
 18 19  1  1  0  0  0
 20 21  1  6  0  0  0
 20 29  1  0  0  0  0
 22 13  1  0  0  0  0
 22 23  1  1  0  0  0
 24 25  1  6  0  0  0
 24 33  1  0  0  0  0
 26 27  1  1  0  0  0
 26 35  1  0  0  0  0
 28  2  1  6  0  0  0
 28 18  1  0  0  0  0
 29 30  1  0  0  0  0
 29 39  1  1  0  0  0
 31 22  1  0  0  0  0
 31 32  1  6  0  0  0
 31 41  1  0  0  0  0
 33 34  1  1  0  0  0
 33 43  1  0  0  0  0
 35 36  1  0  0  0  0
 35 45  1  1  0  0  0
 37 28  1  0  0  0  0
 37 38  1  1  0  0  0
 39 40  1  0  0  0  0
 41 42  1  0  0  0  0
 41 49  1  6  0  0  0
 43 44  1  0  0  0  0
 43 51  1  1  0  0  0
 45 46  1  0  0  0  0
 47 37  1  0  0  0  0
 47 48  1  6  0  0  0
 49 50  1  0  0  0  0
 51 52  1  0  0  0  0
M  END
>  <CHROM.1>
-81.84286031,167.19098699,145.33437970,178.78294607,113.00255218,-70.45469018
56.41065771,76.87900910,-176.56187879,167.12455778,169.33506278,-54.25852056
2.59517034,-47.85063769,9.23754231,-1.91009671,-0.46069848,0.41076115

>  <Name>
2fd0_lig

>  <RI>
3.4301e+07

>  <Rbt.Current_Directory>
/home/itssahil/PROJECTS/Mol_Feturizer/New_Systems/rnas/2fd0

>  <Rbt.Executable>
rbdock ($Id: //depot/dev/client3/rdock/2013.1/src/exe/rbdock.cxx#4 $)

>  <Rbt.Library>
libRbt.so (2013.1, Build901 2013/11/27)

>  <Rbt.Parameter_File>
/export/apps/rDock/src/rDock_2013.1_src/data/scripts/dock_solv.prm

>  <Rbt.Receptor>
prm/pocket_docking_7.prm

>  <SCORE>
-22.6119

>  <SCORE.INTER>
-21.8042

>  <SCORE.INTER.CONST>
1

>  <SCORE.INTER.POLAR>
-2.74903

>  <SCORE.INTER.ROT>
12

>  <SCORE.INTER.SOLV>
13.0341

>  <SCORE.INTER.VDW>
-21.3174

>  <SCORE.INTER.norm>
-0.419312

>  <SCORE.INTRA>
-0.807623

>  <SCORE.INTRA.DIHEDRAL>
-4.90006

>  <SCORE.INTRA.DIHEDRAL.0>
23.9727

>  <SCORE.INTRA.POLAR>
0

>  <SCORE.INTRA.POLAR.0>
0

>  <SCORE.INTRA.REPUL>
0

>  <SCORE.INTRA.REPUL.0>
0

>  <SCORE.INTRA.SOLV>
0.144359

>  <SCORE.INTRA.SOLV.lig_0>
-115.028

>  <SCORE.INTRA.VDW>
1.57023

>  <SCORE.INTRA.VDW.0>
-6.82393

>  <SCORE.INTRA.norm>
-0.0155312

>  <SCORE.RESTR>
0

>  <SCORE.RESTR.CAVITY>
0

>  <SCORE.RESTR.norm>
0

>  <SCORE.SYSTEM>
0

>  <SCORE.SYSTEM.CONST>
0

>  <SCORE.SYSTEM.DIHEDRAL>
0

>  <SCORE.SYSTEM.SOLV>
0

>  <SCORE.SYSTEM.norm>
0

>  <SCORE.heavy>
52

>  <SCORE.norm>
-0.434843

>  <RMSD>
11.122

$$$$
2fd0_lig
 OpenBabel11021811433D
libRbt.so/2013.1/901 2013/11/27
 52 56  0  0  0  0  0  0  0  0999 V2000
    1.4624  -50.0451    6.5135 C   0  0  2  0  0  0  0  0  0  0  0  0
    1.2510  -50.8099    7.7083 O   0  0  0  0  0  0  0  0  0  0  0  0
   -1.0153  -54.3981    8.6469 C   0  0  2  0  0  0  0  0  0  0  0  0
   -1.4931  -55.7904    8.6401 N   0  0  0  0  0  0  0  0  0  0  0  0
    2.8938  -52.2975   10.6480 C   0  0  1  0  0  0  0  0  0  0  0  0
    3.9303  -48.5388   12.1243 C   0  0  1  0  0  0  0  0  0  0  0  0
    6.2603  -46.4373   15.0528 C   0  0  1  0  0  0  0  0  0  0  0  0
    2.9960  -49.7215    6.3918 C   0  0  2  0  0  0  0  0  0  0  0  0
    3.8075  -50.9308    6.3940 N   0  0  0  0  0  0  0  0  0  0  0  0
   -1.1334  -53.7666    7.1908 C   0  0  0  0  0  0  0  0  0  0  0  0
    2.8601  -50.7865   10.5096 C   0  0  2  0  0  0  0  0  0  0  0  0
    4.1378  -50.2441   10.0719 O   0  0  0  0  0  0  0  0  0  0  0  0
    5.4814  -48.7927   11.8256 C   0  0  2  0  0  0  0  0  0  0  0  0
    6.1596  -49.3505   13.0274 N   0  0  0  0  0  0  0  0  0  0  0  0
    7.6132  -46.9485   15.5969 C   0  0  1  0  0  0  0  0  0  0  0  0
    8.6241  -45.9337   15.3773 O   0  0  0  0  0  0  0  0  0  0  0  0
    3.4392  -48.7318    7.5322 C   0  0  0  0  0  0  0  0  0  0  0  0
   -0.6230  -52.2471    7.2032 C   0  0  2  0  0  0  0  0  0  0  0  0
   -0.7192  -51.6404    5.8673 N   0  0  0  0  0  0  0  0  0  0  0  0
    2.3741  -50.3309   11.8752 C   0  0  2  0  0  0  0  0  0  0  0  0
    3.4062  -49.7379   12.6155 O   0  0  0  0  0  0  0  0  0  0  0  0
    6.0955  -47.4096   11.2591 C   0  0  1  0  0  0  0  0  0  0  0  0
    5.3330  -47.0270   10.1001 O   0  0  0  0  0  0  0  0  0  0  0  0
    7.6702  -47.3706   17.0900 C   0  0  1  0  0  0  0  0  0  0  0  0
    8.0992  -46.2359   17.8535 O   0  0  0  0  0  0  0  0  0  0  0  0
    2.5350  -47.4581    7.4635 C   0  0  2  0  0  0  0  0  0  0  0  0
    2.9171  -46.5267    8.4708 O   0  0  0  0  0  0  0  0  0  0  0  0
    0.8480  -52.2080    7.7034 C   0  0  2  0  0  0  0  0  0  0  0  0
    1.9508  -51.5757   12.6911 C   0  0  2  0  0  0  0  0  0  0  0  0
    2.0355  -52.6174   11.7291 O   0  0  0  0  0  0  0  0  0  0  0  0
    5.9470  -46.2032   12.3253 C   0  0  2  0  0  0  0  0  0  0  0  0
    6.7361  -46.6207   13.4552 O   0  0  0  0  0  0  0  0  0  0  0  0
    6.3530  -47.9084   17.6953 C   0  0  2  0  0  0  0  0  0  0  0  0
    6.7316  -49.0297   18.5234 O   0  0  0  0  0  0  0  0  0  0  0  0
    1.0472  -47.8685    7.6581 C   0  0  2  0  0  0  0  0  0  0  0  0
    0.6867  -48.8210    6.5846 O   0  0  0  0  0  0  0  0  0  0  0  0
    1.0270  -52.8682    9.1045 C   0  0  2  0  0  0  0  0  0  0  0  0
    2.4349  -52.8095    9.4371 O   0  0  0  0  0  0  0  0  0  0  0  0
    0.5266  -51.5396   13.2340 C   0  0  0  0  0  0  0  0  0  0  0  0
    0.4271  -50.3820   14.0774 O   0  0  0  0  0  0  0  0  0  0  0  0
    4.4858  -46.1953   12.7332 C   0  0  1  0  0  0  0  0  0  0  0  0
    3.7309  -47.3678   13.1038 O   0  0  0  0  0  0  0  0  0  0  0  0
    5.3532  -48.2687   16.5997 C   0  0  2  0  0  0  0  0  0  0  0  0
    5.1229  -47.2216   15.6169 O   0  0  0  0  0  0  0  0  0  0  0  0
    0.1237  -46.6955    7.5669 C   0  0  0  0  0  0  0  0  0  0  0  0
    0.3371  -45.8868    8.6921 O   0  0  0  0  0  0  0  0  0  0  0  0
    0.5070  -54.3518    9.0731 C   0  0  1  0  0  0  0  0  0  0  0  0
    0.6432  -54.9234   10.4200 O   0  0  0  0  0  0  0  0  0  0  0  0
    4.1504  -45.1062   13.8130 C   0  0  0  0  0  0  0  0  0  0  0  0
    2.7020  -44.9887   14.1092 N   0  0  0  0  0  0  0  0  0  0  0  0
    3.9639  -48.8151   16.9207 C   0  0  0  0  0  0  0  0  0  0  0  0
    4.0695  -50.0931   17.6207 O   0  0  0  0  0  0  0  0  0  0  0  0
  1  2  1  1  0  0  0
  1  8  1  0  0  0  0
  1 36  1  0  0  0  0
  3  4  1  6  0  0  0
  3 10  1  0  0  0  0
  3 47  1  0  0  0  0
  5 11  1  0  0  0  0
  5 30  1  0  0  0  0
  5 38  1  6  0  0  0
  6 21  1  1  0  0  0
  6 42  1  0  0  0  0
  7 15  1  0  0  0  0
  7 44  1  0  0  0  0
  7 32  1  6  0  0  0
  8  9  1  1  0  0  0
  8 17  1  0  0  0  0
 11 12  1  1  0  0  0
 11 20  1  0  0  0  0
 13  6  1  0  0  0  0
 13 14  1  1  0  0  0
 15 16  1  1  0  0  0
 15 24  1  0  0  0  0
 17 26  1  0  0  0  0
 18 10  1  0  0  0  0
 18 19  1  6  0  0  0
 20 21  1  1  0  0  0
 20 29  1  0  0  0  0
 22 13  1  0  0  0  0
 22 23  1  6  0  0  0
 24 25  1  1  0  0  0
 24 33  1  0  0  0  0
 26 27  1  1  0  0  0
 26 35  1  0  0  0  0
 28  2  1  1  0  0  0
 28 18  1  0  0  0  0
 29 30  1  0  0  0  0
 29 39  1  6  0  0  0
 31 22  1  0  0  0  0
 31 32  1  1  0  0  0
 31 41  1  0  0  0  0
 33 34  1  6  0  0  0
 33 43  1  0  0  0  0
 35 36  1  0  0  0  0
 35 45  1  6  0  0  0
 37 28  1  0  0  0  0
 37 38  1  6  0  0  0
 39 40  1  0  0  0  0
 41 42  1  0  0  0  0
 41 49  1  1  0  0  0
 43 44  1  0  0  0  0
 43 51  1  1  0  0  0
 45 46  1  0  0  0  0
 47 37  1  0  0  0  0
 47 48  1  1  0  0  0
 49 50  1  0  0  0  0
 51 52  1  0  0  0  0
M  END
>  <CHROM.1>
-111.70002369,-79.21879851,-119.16727030,-174.55586269,65.46198673,-70.00916045
-59.12523084,-137.94831837,-69.14136334,128.59726898,173.63061902,-62.35601170
3.21655926,-49.39629438,11.46344030,-2.81855311,0.98511297,2.23365958

>  <Name>
2fd0_lig

>  <RI>
0

>  <Rbt.Current_Directory>
/home/itssahil/PROJECTS/Mol_Feturizer/New_Systems/rnas/2fd0

>  <Rbt.Executable>
rbdock ($Id: //depot/dev/client3/rdock/2013.1/src/exe/rbdock.cxx#4 $)

>  <Rbt.Library>
libRbt.so (2013.1, Build901 2013/11/27)

>  <Rbt.Parameter_File>
/export/apps/rDock/src/rDock_2013.1_src/data/scripts/dock_solv.prm

>  <Rbt.Receptor>
prm/pocket_docking_5.prm

>  <SCORE>
-10.9627

>  <SCORE.INTER>
-18.6033

>  <SCORE.INTER.CONST>
1

>  <SCORE.INTER.POLAR>
-1.2263

>  <SCORE.INTER.ROT>
12

>  <SCORE.INTER.SOLV>
21.1753

>  <SCORE.INTER.VDW>
-26.9729

>  <SCORE.INTER.norm>
-0.357756

>  <SCORE.INTRA>
7.64054

>  <SCORE.INTRA.DIHEDRAL>
6.88818

>  <SCORE.INTRA.DIHEDRAL.0>
23.9727

>  <SCORE.INTRA.POLAR>
0

>  <SCORE.INTRA.POLAR.0>
0

>  <SCORE.INTRA.REPUL>
0

>  <SCORE.INTRA.REPUL.0>
0

>  <SCORE.INTRA.SOLV>
2.7788

>  <SCORE.INTRA.SOLV.lig_0>
-115.028

>  <SCORE.INTRA.VDW>
2.80706

>  <SCORE.INTRA.VDW.0>
-6.82393

>  <SCORE.INTRA.norm>
0.146934

>  <SCORE.RESTR>
0

>  <SCORE.RESTR.CAVITY>
0

>  <SCORE.RESTR.norm>
0

>  <SCORE.SYSTEM>
0

>  <SCORE.SYSTEM.CONST>
0

>  <SCORE.SYSTEM.DIHEDRAL>
0

>  <SCORE.SYSTEM.SOLV>
0

>  <SCORE.SYSTEM.norm>
0

>  <SCORE.heavy>
52

>  <SCORE.norm>
-0.210822

>  <RMSD>
11.132

$$$$
2fd0_lig
 OpenBabel11021811433D
libRbt.so/2013.1/901 2013/11/27
 52 56  0  0  0  0  0  0  0  0999 V2000
   -0.6821  -52.9352    6.2260 C   0  0  2  0  0  0  0  0  0  0  0  0
   -2.0057  -52.9898    5.6765 O   0  0  0  0  0  0  0  0  0  0  0  0
   -4.6577  -49.9805    4.0021 C   0  0  2  0  0  0  0  0  0  0  0  0
   -5.5991  -48.8543    3.8905 N   0  0  0  0  0  0  0  0  0  0  0  0
   -1.0416  -49.7655    6.7239 C   0  0  1  0  0  0  0  0  0  0  0  0
    1.6605  -47.4202    9.3570 C   0  0  1  0  0  0  0  0  0  0  0  0
    3.9013  -47.8934   13.8927 C   0  0  1  0  0  0  0  0  0  0  0  0
    0.0191  -54.3205    5.9797 C   0  0  2  0  0  0  0  0  0  0  0  0
    0.0493  -54.6695    4.5662 N   0  0  0  0  0  0  0  0  0  0  0  0
   -5.2682  -51.1207    4.9296 C   0  0  0  0  0  0  0  0  0  0  0  0
    0.3158  -49.1122    6.9092 C   0  0  2  0  0  0  0  0  0  0  0  0
    1.2881  -50.0191    7.5009 O   0  0  0  0  0  0  0  0  0  0  0  0
    2.7062  -48.6238    9.4880 C   0  0  2  0  0  0  0  0  0  0  0  0
    2.2038  -49.6500   10.4419 N   0  0  0  0  0  0  0  0  0  0  0  0
    3.7354  -49.3954   14.2156 C   0  0  1  0  0  0  0  0  0  0  0  0
    4.9481  -50.0953   13.8424 O   0  0  0  0  0  0  0  0  0  0  0  0
   -0.6755  -55.4455    6.8331 C   0  0  0  0  0  0  0  0  0  0  0  0
   -4.2462  -52.3506    5.0406 C   0  0  2  0  0  0  0  0  0  0  0  0
   -4.7859  -53.4181    5.8955 N   0  0  0  0  0  0  0  0  0  0  0  0
   -0.0134  -47.8675    7.7159 C   0  0  2  0  0  0  0  0  0  0  0  0
    0.4216  -47.9863    9.0431 O   0  0  0  0  0  0  0  0  0  0  0  0
    4.1414  -47.9775    9.8532 C   0  0  1  0  0  0  0  0  0  0  0  0
    4.4735  -47.0249    8.8269 O   0  0  0  0  0  0  0  0  0  0  0  0
    3.3891  -49.7782   15.6801 C   0  0  1  0  0  0  0  0  0  0  0  0
    4.6176  -50.0424   16.3695 O   0  0  0  0  0  0  0  0  0  0  0  0
   -0.6633  -55.0088    8.3345 C   0  0  2  0  0  0  0  0  0  0  0  0
   -1.2684  -56.0114    9.1449 O   0  0  0  0  0  0  0  0  0  0  0  0
   -2.8944  -51.8395    5.6126 C   0  0  2  0  0  0  0  0  0  0  0  0
   -1.5519  -47.7257    7.8025 C   0  0  2  0  0  0  0  0  0  0  0  0
   -2.0047  -48.7454    6.9235 O   0  0  0  0  0  0  0  0  0  0  0  0
    4.0953  -47.1557   11.2450 C   0  0  2  0  0  0  0  0  0  0  0  0
    3.7783  -48.1477   12.2395 O   0  0  0  0  0  0  0  0  0  0  0  0
    2.5825  -48.7321   16.4836 C   0  0  2  0  0  0  0  0  0  0  0  0
    1.6080  -49.4848   17.2388 O   0  0  0  0  0  0  0  0  0  0  0  0
   -1.4333  -53.6661    8.4891 C   0  0  2  0  0  0  0  0  0  0  0  0
   -0.7643  -52.6504    7.6464 O   0  0  0  0  0  0  0  0  0  0  0  0
   -2.2822  -50.6795    4.7698 C   0  0  2  0  0  0  0  0  0  0  0  0
   -1.0591  -50.2642    5.4239 O   0  0  0  0  0  0  0  0  0  0  0  0
   -2.1070  -46.3919    7.3155 C   0  0  0  0  0  0  0  0  0  0  0  0
   -1.8945  -46.3406    5.8965 O   0  0  0  0  0  0  0  0  0  0  0  0
    2.9202  -46.2045   11.1197 C   0  0  1  0  0  0  0  0  0  0  0  0
    1.6097  -46.5773   10.6445 O   0  0  0  0  0  0  0  0  0  0  0  0
    1.9637  -47.6880   15.5581 C   0  0  2  0  0  0  0  0  0  0  0  0
    2.8951  -47.0713   14.6266 O   0  0  0  0  0  0  0  0  0  0  0  0
   -1.4275  -53.1739    9.9015 C   0  0  0  0  0  0  0  0  0  0  0  0
   -0.0931  -53.0672   10.3183 O   0  0  0  0  0  0  0  0  0  0  0  0
   -3.3062  -49.4911    4.6619 C   0  0  1  0  0  0  0  0  0  0  0  0
   -2.7167  -48.4411    3.8196 O   0  0  0  0  0  0  0  0  0  0  0  0
    2.6828  -45.3408   12.4089 C   0  0  0  0  0  0  0  0  0  0  0  0
    3.5177  -44.1164   12.4665 N   0  0  0  0  0  0  0  0  0  0  0  0
    1.1225  -46.5309   16.0922 C   0  0  0  0  0  0  0  0  0  0  0  0
    1.9850  -45.4427   16.5464 O   0  0  0  0  0  0  0  0  0  0  0  0
  1  2  1  1  0  0  0
  1  8  1  0  0  0  0
  1 36  1  0  0  0  0
  3  4  1  1  0  0  0
  3 10  1  0  0  0  0
  3 47  1  0  0  0  0
  5 11  1  0  0  0  0
  5 30  1  0  0  0  0
  5 38  1  6  0  0  0
  6 21  1  1  0  0  0
  6 42  1  0  0  0  0
  7 15  1  0  0  0  0
  7 44  1  0  0  0  0
  7 32  1  6  0  0  0
  8  9  1  6  0  0  0
  8 17  1  0  0  0  0
 11 12  1  1  0  0  0
 11 20  1  0  0  0  0
 13  6  1  0  0  0  0
 13 14  1  1  0  0  0
 15 16  1  1  0  0  0
 15 24  1  0  0  0  0
 17 26  1  0  0  0  0
 18 10  1  0  0  0  0
 18 19  1  1  0  0  0
 20 21  1  1  0  0  0
 20 29  1  0  0  0  0
 22 13  1  0  0  0  0
 22 23  1  6  0  0  0
 24 25  1  1  0  0  0
 24 33  1  0  0  0  0
 26 27  1  1  0  0  0
 26 35  1  0  0  0  0
 28  2  1  6  0  0  0
 28 18  1  0  0  0  0
 29 30  1  0  0  0  0
 29 39  1  6  0  0  0
 31 22  1  0  0  0  0
 31 32  1  1  0  0  0
 31 41  1  0  0  0  0
 33 34  1  6  0  0  0
 33 43  1  0  0  0  0
 35 36  1  0  0  0  0
 35 45  1  1  0  0  0
 37 28  1  0  0  0  0
 37 38  1  1  0  0  0
 39 40  1  0  0  0  0
 41 42  1  0  0  0  0
 41 49  1  1  0  0  0
 43 44  1  0  0  0  0
 43 51  1  1  0  0  0
 45 46  1  0  0  0  0
 47 37  1  0  0  0  0
 47 48  1  6  0  0  0
 49 50  1  0  0  0  0
 51 52  1  0  0  0  0
M  END
>  <CHROM.1>
-173.96032665,-165.30614353,-104.35797602,-167.96745702,96.44481131,-176.31122479
68.05228308,167.53024302,56.03749151,-60.69885219,84.56328060,82.59473556
0.29881626,-49.69151897,9.38321541,-2.93741341,-1.01781723,-0.18365218

>  <Name>
2fd0_lig

>  <RI>
2.00683e+07

>  <Rbt.Current_Directory>
/home/itssahil/PROJECTS/Mol_Feturizer/New_Systems/rnas/2fd0

>  <Rbt.Executable>
rbdock ($Id: //depot/dev/client3/rdock/2013.1/src/exe/rbdock.cxx#4 $)

>  <Rbt.Library>
libRbt.so (2013.1, Build901 2013/11/27)

>  <Rbt.Parameter_File>
/export/apps/rDock/src/rDock_2013.1_src/data/scripts/dock_solv.prm

>  <Rbt.Receptor>
prm/pocket_docking_4.prm

>  <SCORE>
-13.5071

>  <SCORE.INTER>
-11.2341

>  <SCORE.INTER.CONST>
1

>  <SCORE.INTER.POLAR>
-1.63693

>  <SCORE.INTER.ROT>
12

>  <SCORE.INTER.SOLV>
14.085

>  <SCORE.INTER.VDW>
-18.328

>  <SCORE.INTER.norm>
-0.216041

>  <SCORE.INTRA>
-2.28627

>  <SCORE.INTRA.DIHEDRAL>
-5.92817

>  <SCORE.INTRA.DIHEDRAL.0>
23.9727

>  <SCORE.INTRA.POLAR>
0

>  <SCORE.INTRA.POLAR.0>
0

>  <SCORE.INTRA.REPUL>
0.0544113

>  <SCORE.INTRA.REPUL.0>
0

>  <SCORE.INTRA.SOLV>
-1.79955

>  <SCORE.INTRA.SOLV.lig_0>
-115.028

>  <SCORE.INTRA.VDW>
1.30553

>  <SCORE.INTRA.VDW.0>
-6.82393

>  <SCORE.INTRA.norm>
-0.0439668

>  <SCORE.RESTR>
0.013326

>  <SCORE.RESTR.CAVITY>
0.013326

>  <SCORE.RESTR.norm>
0.000256269

>  <SCORE.SYSTEM>
0

>  <SCORE.SYSTEM.CONST>
0

>  <SCORE.SYSTEM.DIHEDRAL>
0

>  <SCORE.SYSTEM.SOLV>
0

>  <SCORE.SYSTEM.norm>
0

>  <SCORE.heavy>
52

>  <SCORE.norm>
-0.259751

>  <RMSD>
11.153

$$$$
2fd0_lig
 OpenBabel11021811433D
libRbt.so/2013.1/901 2013/11/27
 52 56  0  0  0  0  0  0  0  0999 V2000
   -0.8738  -51.7373    7.2183 C   0  0  2  0  0  0  0  0  0  0  0  0
   -0.1265  -50.6154    7.7079 O   0  0  0  0  0  0  0  0  0  0  0  0
    3.2867  -52.4750    9.6533 C   0  0  2  0  0  0  0  0  0  0  0  0
    4.5975  -52.6614   10.2967 N   0  0  0  0  0  0  0  0  0  0  0  0
    0.7485  -49.2040   11.1897 C   0  0  1  0  0  0  0  0  0  0  0  0
    2.1447  -44.8711   10.8793 C   0  0  1  0  0  0  0  0  0  0  0  0
    6.3374  -41.6896   10.7897 C   0  0  1  0  0  0  0  0  0  0  0  0
   -2.2112  -51.2085    6.5833 C   0  0  2  0  0  0  0  0  0  0  0  0
   -1.9633  -50.2384    5.5259 N   0  0  0  0  0  0  0  0  0  0  0  0
    3.4685  -51.8519    8.2002 C   0  0  0  0  0  0  0  0  0  0  0  0
    1.3601  -48.3663   10.0817 C   0  0  2  0  0  0  0  0  0  0  0  0
    2.7718  -48.6596    9.8838 O   0  0  0  0  0  0  0  0  0  0  0  0
    2.8394  -44.4748    9.4938 C   0  0  2  0  0  0  0  0  0  0  0  0
    4.1804  -45.1109    9.3817 N   0  0  0  0  0  0  0  0  0  0  0  0
    7.2541  -42.9252   10.9330 C   0  0  1  0  0  0  0  0  0  0  0  0
    7.4994  -43.4859    9.6195 O   0  0  0  0  0  0  0  0  0  0  0  0
   -3.1493  -50.6139    7.6982 C   0  0  0  0  0  0  0  0  0  0  0  0
    2.0407  -51.6601    7.4973 C   0  0  2  0  0  0  0  0  0  0  0  0
    2.1806  -51.0826    6.1524 N   0  0  0  0  0  0  0  0  0  0  0  0
    1.0264  -46.9460   10.5057 C   0  0  2  0  0  0  0  0  0  0  0  0
    2.1639  -46.2663   10.9627 O   0  0  0  0  0  0  0  0  0  0  0  0
    2.8232  -42.8623    9.3907 C   0  0  1  0  0  0  0  0  0  0  0  0
    1.4573  -42.4238    9.5051 O   0  0  0  0  0  0  0  0  0  0  0  0
    8.6246  -42.7217   11.6339 C   0  0  1  0  0  0  0  0  0  0  0  0
    9.6022  -42.4502   10.6215 O   0  0  0  0  0  0  0  0  0  0  0  0
   -3.3785  -51.7091    8.7904 C   0  0  2  0  0  0  0  0  0  0  0  0
   -4.2398  -51.2152    9.8114 O   0  0  0  0  0  0  0  0  0  0  0  0
    1.1556  -50.7409    8.3845 C   0  0  2  0  0  0  0  0  0  0  0  0
    0.0704  -47.0035   11.7212 C   0  0  2  0  0  0  0  0  0  0  0  0
   -0.2301  -48.3888   11.8109 O   0  0  0  0  0  0  0  0  0  0  0  0
    3.6307  -42.1726   10.6099 C   0  0  2  0  0  0  0  0  0  0  0  0
    4.9881  -42.6240   10.4450 O   0  0  0  0  0  0  0  0  0  0  0  0
    8.6847  -41.6007   12.6971 C   0  0  2  0  0  0  0  0  0  0  0  0
    9.4710  -42.1344   13.7849 O   0  0  0  0  0  0  0  0  0  0  0  0
   -2.0102  -52.1214    9.4049 C   0  0  2  0  0  0  0  0  0  0  0  0
   -1.1537  -52.6429    8.3168 O   0  0  0  0  0  0  0  0  0  0  0  0
    0.9938  -51.2794    9.8387 C   0  0  2  0  0  0  0  0  0  0  0  0
    0.1931  -50.3213   10.5715 O   0  0  0  0  0  0  0  0  0  0  0  0
   -1.2380  -46.2394   11.5518 C   0  0  0  0  0  0  0  0  0  0  0  0
   -1.9397  -46.3245   12.8014 O   0  0  0  0  0  0  0  0  0  0  0  0
    3.0666  -42.7904   11.8755 C   0  0  1  0  0  0  0  0  0  0  0  0
    2.8510  -44.2034   12.0734 O   0  0  0  0  0  0  0  0  0  0  0  0
    7.2826  -41.1646   13.1137 C   0  0  2  0  0  0  0  0  0  0  0  0
    6.3948  -40.8330   12.0104 O   0  0  0  0  0  0  0  0  0  0  0  0
   -2.1572  -53.1957   10.4351 C   0  0  0  0  0  0  0  0  0  0  0  0
   -0.8810  -53.5001   10.9296 O   0  0  0  0  0  0  0  0  0  0  0  0
    2.4057  -51.4736   10.5032 C   0  0  1  0  0  0  0  0  0  0  0  0
    2.2158  -52.0297   11.8500 O   0  0  0  0  0  0  0  0  0  0  0  0
    3.7662  -42.2728   13.1820 C   0  0  0  0  0  0  0  0  0  0  0  0
    3.0193  -41.1906   13.8678 N   0  0  0  0  0  0  0  0  0  0  0  0
    7.0516  -40.0625   14.1452 C   0  0  0  0  0  0  0  0  0  0  0  0
    5.6289  -39.9488   14.4575 O   0  0  0  0  0  0  0  0  0  0  0  0
  1  2  1  1  0  0  0
  1  8  1  0  0  0  0
  1 36  1  0  0  0  0
  3  4  1  1  0  0  0
  3 10  1  0  0  0  0
  3 47  1  0  0  0  0
  5 11  1  0  0  0  0
  5 30  1  0  0  0  0
  5 38  1  6  0  0  0
  6 21  1  1  0  0  0
  6 42  1  0  0  0  0
  7 15  1  0  0  0  0
  7 44  1  0  0  0  0
  7 32  1  1  0  0  0
  8  9  1  6  0  0  0
  8 17  1  0  0  0  0
 11 12  1  1  0  0  0
 11 20  1  0  0  0  0
 13  6  1  0  0  0  0
 13 14  1  1  0  0  0
 15 16  1  6  0  0  0
 15 24  1  0  0  0  0
 17 26  1  0  0  0  0
 18 10  1  0  0  0  0
 18 19  1  6  0  0  0
 20 21  1  1  0  0  0
 20 29  1  0  0  0  0
 22 13  1  0  0  0  0
 22 23  1  1  0  0  0
 24 25  1  6  0  0  0
 24 33  1  0  0  0  0
 26 27  1  1  0  0  0
 26 35  1  0  0  0  0
 28  2  1  6  0  0  0
 28 18  1  0  0  0  0
 29 30  1  0  0  0  0
 29 39  1  6  0  0  0
 31 22  1  0  0  0  0
 31 32  1  6  0  0  0
 31 41  1  0  0  0  0
 33 34  1  1  0  0  0
 33 43  1  0  0  0  0
 35 36  1  0  0  0  0
 35 45  1  1  0  0  0
 37 28  1  0  0  0  0
 37 38  1  1  0  0  0
 39 40  1  0  0  0  0
 41 42  1  0  0  0  0
 41 49  1  1  0  0  0
 43 44  1  0  0  0  0
 43 51  1  1  0  0  0
 45 46  1  0  0  0  0
 47 37  1  0  0  0  0
 47 48  1  1  0  0  0
 49 50  1  0  0  0  0
 51 52  1  0  0  0  0
M  END
>  <CHROM.1>
178.67906489,62.32720919,-93.86015075,158.71476683,155.28225646,49.53446805
-175.83653481,144.64536501,179.99946487,-85.34061423,98.04192501,-173.97543704
2.38603386,-47.00953694,10.42763453,-2.17911781,0.06307604,0.35823800

>  <Name>
2fd0_lig

>  <RI>
3.4301e+07

>  <Rbt.Current_Directory>
/home/itssahil/PROJECTS/Mol_Feturizer/New_Systems/rnas/2fd0

>  <Rbt.Executable>
rbdock ($Id: //depot/dev/client3/rdock/2013.1/src/exe/rbdock.cxx#4 $)

>  <Rbt.Library>
libRbt.so (2013.1, Build901 2013/11/27)

>  <Rbt.Parameter_File>
/export/apps/rDock/src/rDock_2013.1_src/data/scripts/dock_solv.prm

>  <Rbt.Receptor>
prm/pocket_docking_7.prm

>  <SCORE>
-14.8178

>  <SCORE.INTER>
-13.4592

>  <SCORE.INTER.CONST>
1

>  <SCORE.INTER.POLAR>
-2.19642

>  <SCORE.INTER.ROT>
12

>  <SCORE.INTER.SOLV>
22.3019

>  <SCORE.INTER.VDW>
-20.6854

>  <SCORE.INTER.norm>
-0.258831

>  <SCORE.INTRA>
-1.35852

>  <SCORE.INTRA.DIHEDRAL>
-3.16763

>  <SCORE.INTRA.DIHEDRAL.0>
23.9727

>  <SCORE.INTRA.POLAR>
0

>  <SCORE.INTRA.POLAR.0>
0

>  <SCORE.INTRA.REPUL>
0

>  <SCORE.INTRA.REPUL.0>
0

>  <SCORE.INTRA.SOLV>
-0.983501

>  <SCORE.INTRA.SOLV.lig_0>
-115.028

>  <SCORE.INTRA.VDW>
0.717042

>  <SCORE.INTRA.VDW.0>
-6.82393

>  <SCORE.INTRA.norm>
-0.0261255

>  <SCORE.RESTR>
0

>  <SCORE.RESTR.CAVITY>
0

>  <SCORE.RESTR.norm>
0

>  <SCORE.SYSTEM>
0

>  <SCORE.SYSTEM.CONST>
0

>  <SCORE.SYSTEM.DIHEDRAL>
0

>  <SCORE.SYSTEM.SOLV>
0

>  <SCORE.SYSTEM.norm>
0

>  <SCORE.heavy>
52

>  <SCORE.norm>
-0.284957

>  <RMSD>
11.217

$$$$
2fd0_lig
 OpenBabel11021811433D
libRbt.so/2013.1/901 2013/11/27
 52 56  0  0  0  0  0  0  0  0999 V2000
   -0.3268  -53.1019    7.0491 C   0  0  2  0  0  0  0  0  0  0  0  0
   -1.7135  -52.8233    7.2864 O   0  0  0  0  0  0  0  0  0  0  0  0
   -2.5857  -49.6145    4.4872 C   0  0  2  0  0  0  0  0  0  0  0  0
   -3.2932  -48.5451    3.7641 N   0  0  0  0  0  0  0  0  0  0  0  0
   -0.4444  -49.8596    8.8877 C   0  0  1  0  0  0  0  0  0  0  0  0
    2.8620  -46.9423   10.0714 C   0  0  1  0  0  0  0  0  0  0  0  0
    5.6445  -47.4528   14.4177 C   0  0  1  0  0  0  0  0  0  0  0  0
   -0.2086  -54.5216    6.3843 C   0  0  2  0  0  0  0  0  0  0  0  0
   -0.9821  -54.6104    5.1537 N   0  0  0  0  0  0  0  0  0  0  0  0
   -3.3862  -50.9849    4.3679 C   0  0  0  0  0  0  0  0  0  0  0  0
    0.1811  -48.6404    8.2352 C   0  0  2  0  0  0  0  0  0  0  0  0
    1.1118  -48.9986    7.1752 O   0  0  0  0  0  0  0  0  0  0  0  0
    4.4225  -47.2657    9.9305 C   0  0  2  0  0  0  0  0  0  0  0  0
    4.7166  -48.6405   10.4193 N   0  0  0  0  0  0  0  0  0  0  0  0
    7.0483  -46.8257   14.2634 C   0  0  1  0  0  0  0  0  0  0  0  0
    6.9097  -45.3929   14.0967 O   0  0  0  0  0  0  0  0  0  0  0  0
   -0.6278  -55.6418    7.4070 C   0  0  0  0  0  0  0  0  0  0  0  0
   -2.6083  -52.1502    5.1465 C   0  0  2  0  0  0  0  0  0  0  0  0
   -3.3293  -53.4283    5.0539 N   0  0  0  0  0  0  0  0  0  0  0  0
    0.7714  -47.8883    9.4160 C   0  0  2  0  0  0  0  0  0  0  0  0
    2.1703  -47.9750    9.4321 O   0  0  0  0  0  0  0  0  0  0  0  0
    5.2295  -46.0768   10.6695 C   0  0  1  0  0  0  0  0  0  0  0  0
    4.8350  -44.8310   10.0669 O   0  0  0  0  0  0  0  0  0  0  0  0
    8.0750  -47.0818   15.3998 C   0  0  1  0  0  0  0  0  0  0  0  0
    7.9868  -45.9931   16.3279 O   0  0  0  0  0  0  0  0  0  0  0  0
    0.2466  -55.4914    8.6945 C   0  0  2  0  0  0  0  0  0  0  0  0
   -0.0903  -56.5012    9.6405 O   0  0  0  0  0  0  0  0  0  0  0  0
   -2.4356  -51.7405    6.6358 C   0  0  2  0  0  0  0  0  0  0  0  0
    0.3056  -48.5736   10.7229 C   0  0  2  0  0  0  0  0  0  0  0  0
   -0.6361  -49.5267   10.2516 O   0  0  0  0  0  0  0  0  0  0  0  0
    4.8450  -45.9712   12.2365 C   0  0  2  0  0  0  0  0  0  0  0  0
    5.2717  -47.2266   12.7983 O   0  0  0  0  0  0  0  0  0  0  0  0
    7.9145  -48.4102   16.1744 C   0  0  2  0  0  0  0  0  0  0  0  0
    9.2545  -48.9111   16.3746 O   0  0  0  0  0  0  0  0  0  0  0  0
    0.0148  -54.0843    9.3159 C   0  0  2  0  0  0  0  0  0  0  0  0
    0.3915  -53.0672    8.3093 O   0  0  0  0  0  0  0  0  0  0  0  0
   -1.7062  -50.3729    6.8050 C   0  0  2  0  0  0  0  0  0  0  0  0
   -1.6471  -50.0832    8.2223 O   0  0  0  0  0  0  0  0  0  0  0  0
   -0.3970  -47.6576   11.7187 C   0  0  0  0  0  0  0  0  0  0  0  0
   -1.5265  -47.0868   11.0409 O   0  0  0  0  0  0  0  0  0  0  0  0
    3.3299  -45.9114   12.2828 C   0  0  1  0  0  0  0  0  0  0  0  0
    2.4511  -46.7882   11.5472 O   0  0  0  0  0  0  0  0  0  0  0  0
    7.0072  -49.3784   15.4201 C   0  0  2  0  0  0  0  0  0  0  0  0
    5.7285  -48.8203   15.0092 O   0  0  0  0  0  0  0  0  0  0  0  0
    0.8525  -53.8630   10.5350 C   0  0  0  0  0  0  0  0  0  0  0  0
    0.4946  -52.6256   11.0885 O   0  0  0  0  0  0  0  0  0  0  0  0
   -2.4777  -49.2485    6.0220 C   0  0  1  0  0  0  0  0  0  0  0  0
   -1.7347  -47.9883    6.1610 O   0  0  0  0  0  0  0  0  0  0  0  0
    2.7571  -45.8512   13.7432 C   0  0  0  0  0  0  0  0  0  0  0  0
    2.7993  -47.1529   14.4526 N   0  0  0  0  0  0  0  0  0  0  0  0
    6.6705  -50.7638   15.9671 C   0  0  0  0  0  0  0  0  0  0  0  0
    6.1028  -51.6020   14.9137 O   0  0  0  0  0  0  0  0  0  0  0  0
  1  2  1  1  0  0  0
  1  8  1  0  0  0  0
  1 36  1  0  0  0  0
  3  4  1  6  0  0  0
  3 10  1  0  0  0  0
  3 47  1  0  0  0  0
  5 11  1  0  0  0  0
  5 30  1  0  0  0  0
  5 38  1  6  0  0  0
  6 21  1  1  0  0  0
  6 42  1  0  0  0  0
  7 15  1  0  0  0  0
  7 44  1  0  0  0  0
  7 32  1  6  0  0  0
  8  9  1  6  0  0  0
  8 17  1  0  0  0  0
 11 12  1  6  0  0  0
 11 20  1  0  0  0  0
 13  6  1  0  0  0  0
 13 14  1  1  0  0  0
 15 16  1  1  0  0  0
 15 24  1  0  0  0  0
 17 26  1  0  0  0  0
 18 10  1  0  0  0  0
 18 19  1  1  0  0  0
 20 21  1  6  0  0  0
 20 29  1  0  0  0  0
 22 13  1  0  0  0  0
 22 23  1  6  0  0  0
 24 25  1  1  0  0  0
 24 33  1  0  0  0  0
 26 27  1  1  0  0  0
 26 35  1  0  0  0  0
 28  2  1  1  0  0  0
 28 18  1  0  0  0  0
 29 30  1  0  0  0  0
 29 39  1  1  0  0  0
 31 22  1  0  0  0  0
 31 32  1  1  0  0  0
 31 41  1  0  0  0  0
 33 34  1  6  0  0  0
 33 43  1  0  0  0  0
 35 36  1  0  0  0  0
 35 45  1  1  0  0  0
 37 28  1  0  0  0  0
 37 38  1  1  0  0  0
 39 40  1  0  0  0  0
 41 42  1  0  0  0  0
 41 49  1  1  0  0  0
 43 44  1  0  0  0  0
 43 51  1  1  0  0  0
 45 46  1  0  0  0  0
 47 37  1  0  0  0  0
 47 48  1  6  0  0  0
 49 50  1  0  0  0  0
 51 52  1  0  0  0  0
M  END
>  <CHROM.1>
-115.85725413,61.03568311,-179.16871062,-79.41098119,154.32379543,70.98833995
57.71708919,156.19022512,-174.97945968,122.73714746,-75.79636675,-164.67697443
1.87971720,-49.60298506,10.26255050,-2.81124082,-0.79779212,-0.07660599

>  <Name>
2fd0_lig

>  <RI>
2.00683e+07

>  <Rbt.Current_Directory>
/home/itssahil/PROJECTS/Mol_Feturizer/New_Systems/rnas/2fd0

>  <Rbt.Executable>
rbdock ($Id: //depot/dev/client3/rdock/2013.1/src/exe/rbdock.cxx#4 $)

>  <Rbt.Library>
libRbt.so (2013.1, Build901 2013/11/27)

>  <Rbt.Parameter_File>
/export/apps/rDock/src/rDock_2013.1_src/data/scripts/dock_solv.prm

>  <Rbt.Receptor>
prm/pocket_docking_4.prm

>  <SCORE>
-8.65663

>  <SCORE.INTER>
-11.9637

>  <SCORE.INTER.CONST>
1

>  <SCORE.INTER.POLAR>
-2.52063

>  <SCORE.INTER.ROT>
12

>  <SCORE.INTER.SOLV>
15.2624

>  <SCORE.INTER.VDW>
-16.2612

>  <SCORE.INTER.norm>
-0.230071

>  <SCORE.INTRA>
3.30706

>  <SCORE.INTRA.DIHEDRAL>
0.897857

>  <SCORE.INTRA.DIHEDRAL.0>
23.9727

>  <SCORE.INTRA.POLAR>
0

>  <SCORE.INTRA.POLAR.0>
0

>  <SCORE.INTRA.REPUL>
0

>  <SCORE.INTRA.REPUL.0>
0

>  <SCORE.INTRA.SOLV>
3.65084

>  <SCORE.INTRA.SOLV.lig_0>
-115.028

>  <SCORE.INTRA.VDW>
1.03271

>  <SCORE.INTRA.VDW.0>
-6.82393

>  <SCORE.INTRA.norm>
0.0635972

>  <SCORE.RESTR>
0

>  <SCORE.RESTR.CAVITY>
0

>  <SCORE.RESTR.norm>
0

>  <SCORE.SYSTEM>
0

>  <SCORE.SYSTEM.CONST>
0

>  <SCORE.SYSTEM.DIHEDRAL>
0

>  <SCORE.SYSTEM.SOLV>
0

>  <SCORE.SYSTEM.norm>
0

>  <SCORE.heavy>
52

>  <SCORE.norm>
-0.166474

>  <RMSD>
11.229

$$$$
2fd0_lig
 OpenBabel11021811433D
libRbt.so/2013.1/901 2013/11/27
 52 56  0  0  0  0  0  0  0  0999 V2000
   -0.9402  -53.6202    5.4118 C   0  0  2  0  0  0  0  0  0  0  0  0
    0.0051  -53.5300    6.4867 O   0  0  0  0  0  0  0  0  0  0  0  0
    1.4594  -56.3144    9.4908 C   0  0  2  0  0  0  0  0  0  0  0  0
    2.0799  -57.4911   10.1212 N   0  0  0  0  0  0  0  0  0  0  0  0
    3.4349  -52.3829    7.4765 C   0  0  1  0  0  0  0  0  0  0  0  0
    2.4624  -48.0751    8.6253 C   0  0  1  0  0  0  0  0  0  0  0  0
    3.9475  -45.2410   12.3946 C   0  0  1  0  0  0  0  0  0  0  0  0
   -0.1880  -54.1211    4.1253 C   0  0  2  0  0  0  0  0  0  0  0  0
    0.4790  -55.3961    4.3488 N   0  0  0  0  0  0  0  0  0  0  0  0
    0.2758  -56.7644    8.5266 C   0  0  0  0  0  0  0  0  0  0  0  0
    2.3513  -51.3233    7.3960 C   0  0  2  0  0  0  0  0  0  0  0  0
    2.3418  -50.6407    6.1106 O   0  0  0  0  0  0  0  0  0  0  0  0
    3.3232  -46.8082    8.1631 C   0  0  2  0  0  0  0  0  0  0  0  0
    4.7155  -46.9068    8.6798 N   0  0  0  0  0  0  0  0  0  0  0  0
    3.5260  -43.7562   12.4690 C   0  0  1  0  0  0  0  0  0  0  0  0
    2.0833  -43.6692   12.3644 O   0  0  0  0  0  0  0  0  0  0  0  0
    0.8230  -53.0259    3.6207 C   0  0  0  0  0  0  0  0  0  0  0  0
   -0.4055  -55.4809    7.8499 C   0  0  2  0  0  0  0  0  0  0  0  0
   -1.5020  -55.8697    6.9508 N   0  0  0  0  0  0  0  0  0  0  0  0
    2.6338  -50.4553    8.6107 C   0  0  2  0  0  0  0  0  0  0  0  0
    3.1734  -49.2155    8.2410 O   0  0  0  0  0  0  0  0  0  0  0  0
    2.5086  -45.4848    8.6059 C   0  0  1  0  0  0  0  0  0  0  0  0
    1.1997  -45.5494    8.0112 O   0  0  0  0  0  0  0  0  0  0  0  0
    3.9683  -42.9489   13.7194 C   0  0  1  0  0  0  0  0  0  0  0  0
    2.9117  -43.0173   14.6854 O   0  0  0  0  0  0  0  0  0  0  0  0
    0.0385  -51.6925    3.3939 C   0  0  2  0  0  0  0  0  0  0  0  0
    0.9172  -50.6778    2.9179 O   0  0  0  0  0  0  0  0  0  0  0  0
    0.6742  -54.6861    7.0637 C   0  0  2  0  0  0  0  0  0  0  0  0
    3.7293  -51.1384    9.4637 C   0  0  2  0  0  0  0  0  0  0  0  0
    3.8787  -52.3968    8.8221 O   0  0  0  0  0  0  0  0  0  0  0  0
    2.2837  -45.4232   10.2059 C   0  0  2  0  0  0  0  0  0  0  0  0
    3.6126  -45.3425   10.7544 O   0  0  0  0  0  0  0  0  0  0  0  0
    5.2858  -43.4017   14.3900 C   0  0  2  0  0  0  0  0  0  0  0  0
    5.9827  -42.1870   14.7439 O   0  0  0  0  0  0  0  0  0  0  0  0
   -0.6151  -51.2427    4.7319 C   0  0  2  0  0  0  0  0  0  0  0  0
   -1.5304  -52.3148    5.1820 O   0  0  0  0  0  0  0  0  0  0  0  0
    1.8855  -54.2710    7.9534 C   0  0  2  0  0  0  0  0  0  0  0  0
    2.8344  -53.5827    7.1037 O   0  0  0  0  0  0  0  0  0  0  0  0
    3.3546  -51.3850   10.9209 C   0  0  0  0  0  0  0  0  0  0  0  0
    3.2140  -50.0985   11.5426 O   0  0  0  0  0  0  0  0  0  0  0  0
    1.6845  -46.7638   10.5867 C   0  0  1  0  0  0  0  0  0  0  0  0
    2.1821  -48.0421   10.1388 O   0  0  0  0  0  0  0  0  0  0  0  0
    6.0848  -44.3169   13.4661 C   0  0  2  0  0  0  0  0  0  0  0  0
    5.3327  -45.4334   12.9154 O   0  0  0  0  0  0  0  0  0  0  0  0
   -1.4130  -49.9875    4.5740 C   0  0  0  0  0  0  0  0  0  0  0  0
   -1.8066  -49.5603    5.8500 O   0  0  0  0  0  0  0  0  0  0  0  0
    2.5288  -55.5427    8.6178 C   0  0  1  0  0  0  0  0  0  0  0  0
    3.6312  -55.1087    9.4872 O   0  0  0  0  0  0  0  0  0  0  0  0
    1.4337  -46.9140   12.1291 C   0  0  0  0  0  0  0  0  0  0  0  0
    0.0934  -46.4494   12.5617 N   0  0  0  0  0  0  0  0  0  0  0  0
    7.4250  -44.9176   13.8843 C   0  0  0  0  0  0  0  0  0  0  0  0
    7.2331  -45.8912   14.9566 O   0  0  0  0  0  0  0  0  0  0  0  0
  1  2  1  1  0  0  0
  1  8  1  0  0  0  0
  1 36  1  0  0  0  0
  3  4  1  6  0  0  0
  3 10  1  0  0  0  0
  3 47  1  0  0  0  0
  5 11  1  0  0  0  0
  5 30  1  0  0  0  0
  5 38  1  1  0  0  0
  6 21  1  1  0  0  0
  6 42  1  0  0  0  0
  7 15  1  0  0  0  0
  7 44  1  0  0  0  0
  7 32  1  6  0  0  0
  8  9  1  1  0  0  0
  8 17  1  0  0  0  0
 11 12  1  6  0  0  0
 11 20  1  0  0  0  0
 13  6  1  0  0  0  0
 13 14  1  1  0  0  0
 15 16  1  1  0  0  0
 15 24  1  0  0  0  0
 17 26  1  0  0  0  0
 18 10  1  0  0  0  0
 18 19  1  6  0  0  0
 20 21  1  6  0  0  0
 20 29  1  0  0  0  0
 22 13  1  0  0  0  0
 22 23  1  6  0  0  0
 24 25  1  1  0  0  0
 24 33  1  0  0  0  0
 26 27  1  1  0  0  0
 26 35  1  0  0  0  0
 28  2  1  1  0  0  0
 28 18  1  0  0  0  0
 29 30  1  0  0  0  0
 29 39  1  1  0  0  0
 31 22  1  0  0  0  0
 31 32  1  1  0  0  0
 31 41  1  0  0  0  0
 33 34  1  6  0  0  0
 33 43  1  0  0  0  0
 35 36  1  0  0  0  0
 35 45  1  6  0  0  0
 37 28  1  0  0  0  0
 37 38  1  6  0  0  0
 39 40  1  0  0  0  0
 41 42  1  0  0  0  0
 41 49  1  1  0  0  0
 43 44  1  0  0  0  0
 43 51  1  1  0  0  0
 45 46  1  0  0  0  0
 47 37  1  0  0  0  0
 47 48  1  1  0  0  0
 49 50  1  0  0  0  0
 51 52  1  0  0  0  0
M  END
>  <CHROM.1>
-65.86429439,-71.71822116,176.75063198,-75.43314753,120.85063612,-70.34026080
-66.12178899,179.40689796,-171.99660246,133.65664248,89.67043301,68.01961855
2.26095340,-49.67649418,9.07974320,2.17434204,0.99170143,-3.05586421

>  <Name>
2fd0_lig

>  <RI>
0

>  <Rbt.Current_Directory>
/home/itssahil/PROJECTS/Mol_Feturizer/New_Systems/rnas/2fd0

>  <Rbt.Executable>
rbdock ($Id: //depot/dev/client3/rdock/2013.1/src/exe/rbdock.cxx#4 $)

>  <Rbt.Library>
libRbt.so (2013.1, Build901 2013/11/27)

>  <Rbt.Parameter_File>
/export/apps/rDock/src/rDock_2013.1_src/data/scripts/dock_solv.prm

>  <Rbt.Receptor>
prm/pocket_docking_6.prm

>  <SCORE>
-12.4219

>  <SCORE.INTER>
-11.86

>  <SCORE.INTER.CONST>
1

>  <SCORE.INTER.POLAR>
-1.98168

>  <SCORE.INTER.ROT>
12

>  <SCORE.INTER.SOLV>
20.4379

>  <SCORE.INTER.VDW>
-19.7137

>  <SCORE.INTER.norm>
-0.228077

>  <SCORE.INTRA>
-0.561881

>  <SCORE.INTRA.DIHEDRAL>
-4.09031

>  <SCORE.INTRA.DIHEDRAL.0>
23.9727

>  <SCORE.INTRA.POLAR>
0

>  <SCORE.INTRA.POLAR.0>
0

>  <SCORE.INTRA.REPUL>
0

>  <SCORE.INTRA.REPUL.0>
0

>  <SCORE.INTRA.SOLV>
1.96491

>  <SCORE.INTRA.SOLV.lig_0>
-115.028

>  <SCORE.INTRA.VDW>
0.500819

>  <SCORE.INTRA.VDW.0>
-6.82393

>  <SCORE.INTRA.norm>
-0.0108054

>  <SCORE.RESTR>
0

>  <SCORE.RESTR.CAVITY>
0

>  <SCORE.RESTR.norm>
0

>  <SCORE.SYSTEM>
0

>  <SCORE.SYSTEM.CONST>
0

>  <SCORE.SYSTEM.DIHEDRAL>
0

>  <SCORE.SYSTEM.SOLV>
0

>  <SCORE.SYSTEM.norm>
0

>  <SCORE.heavy>
52

>  <SCORE.norm>
-0.238882

>  <RMSD>
11.299

$$$$
2fd0_lig
 OpenBabel11021811433D
libRbt.so/2013.1/901 2013/11/27
 52 56  0  0  0  0  0  0  0  0999 V2000
   -0.7803  -52.5433    9.3767 C   0  0  2  0  0  0  0  0  0  0  0  0
   -0.8566  -53.8118    8.7119 O   0  0  0  0  0  0  0  0  0  0  0  0
    2.0396  -57.0353    8.3753 C   0  0  2  0  0  0  0  0  0  0  0  0
    3.1815  -57.8457    7.9211 N   0  0  0  0  0  0  0  0  0  0  0  0
    1.9106  -53.1280   11.2008 C   0  0  1  0  0  0  0  0  0  0  0  0
    4.0666  -50.3742   13.3918 C   0  0  1  0  0  0  0  0  0  0  0  0
    4.5542  -45.4398   13.6365 C   0  0  1  0  0  0  0  0  0  0  0  0
   -2.2325  -52.1096    9.7945 C   0  0  2  0  0  0  0  0  0  0  0  0
   -2.8756  -53.1082   10.6370 N   0  0  0  0  0  0  0  0  0  0  0  0
    1.0404  -56.7630    7.1669 C   0  0  0  0  0  0  0  0  0  0  0  0
    2.7095  -51.8384   11.2467 C   0  0  2  0  0  0  0  0  0  0  0  0
    4.1349  -52.0785   11.4167 O   0  0  0  0  0  0  0  0  0  0  0  0
    4.4623  -49.8417   14.8476 C   0  0  2  0  0  0  0  0  0  0  0  0
    3.3680  -49.0059   15.4127 N   0  0  0  0  0  0  0  0  0  0  0  0
    5.9317  -44.8483   14.0113 C   0  0  1  0  0  0  0  0  0  0  0  0
    6.9401  -45.4070   13.1332 O   0  0  0  0  0  0  0  0  0  0  0  0
   -3.0978  -51.7926    8.5188 C   0  0  0  0  0  0  0  0  0  0  0  0
   -0.2076  -55.8899    7.6663 C   0  0  2  0  0  0  0  0  0  0  0  0
   -1.1461  -55.6215    6.5667 N   0  0  0  0  0  0  0  0  0  0  0  0
    2.0275  -51.0554   12.3559 C   0  0  2  0  0  0  0  0  0  0  0  0
    2.8226  -51.0007   13.5090 O   0  0  0  0  0  0  0  0  0  0  0  0
    5.8992  -49.1137   14.7202 C   0  0  1  0  0  0  0  0  0  0  0  0
    6.8313  -50.0638   14.1731 O   0  0  0  0  0  0  0  0  0  0  0  0
    6.0763  -43.3025   13.9895 C   0  0  1  0  0  0  0  0  0  0  0  0
    6.5668  -42.9232   12.6972 O   0  0  0  0  0  0  0  0  0  0  0  0
   -2.3535  -50.7106    7.6702 C   0  0  2  0  0  0  0  0  0  0  0  0
   -3.1150  -50.3817    6.5125 O   0  0  0  0  0  0  0  0  0  0  0  0
    0.3127  -54.5526    8.2634 C   0  0  2  0  0  0  0  0  0  0  0  0
    0.7458  -51.8115   12.7802 C   0  0  2  0  0  0  0  0  0  0  0  0
    0.6626  -52.8448   11.8092 O   0  0  0  0  0  0  0  0  0  0  0  0
    5.8543  -47.8686   13.6897 C   0  0  2  0  0  0  0  0  0  0  0  0
    4.9270  -46.9411   14.2843 O   0  0  0  0  0  0  0  0  0  0  0  0
    4.7926  -42.4952   14.2911 C   0  0  2  0  0  0  0  0  0  0  0  0
    5.2076  -41.4020   15.1391 O   0  0  0  0  0  0  0  0  0  0  0  0
   -0.9575  -51.2530    7.2498 C   0  0  2  0  0  0  0  0  0  0  0  0
   -0.1945  -51.5660    8.4783 O   0  0  0  0  0  0  0  0  0  0  0  0
    1.3414  -54.7657    9.4156 C   0  0  2  0  0  0  0  0  0  0  0  0
    1.7813  -53.4579    9.8541 O   0  0  0  0  0  0  0  0  0  0  0  0
   -0.5386  -50.9923   12.7195 C   0  0  0  0  0  0  0  0  0  0  0  0
   -1.5061  -51.6653   13.5393 O   0  0  0  0  0  0  0  0  0  0  0  0
    5.2403  -48.4148   12.4145 C   0  0  1  0  0  0  0  0  0  0  0  0
    4.0517  -49.2312   12.3603 O   0  0  0  0  0  0  0  0  0  0  0  0
    3.7218  -43.3829   14.9197 C   0  0  2  0  0  0  0  0  0  0  0  0
    3.4442  -44.6110   14.1915 O   0  0  0  0  0  0  0  0  0  0  0  0
   -0.1776  -50.2483    6.4626 C   0  0  0  0  0  0  0  0  0  0  0  0
    0.9904  -50.8711    6.0006 O   0  0  0  0  0  0  0  0  0  0  0  0
    2.5487  -55.6359    8.9079 C   0  0  1  0  0  0  0  0  0  0  0  0
    3.4692  -55.8588   10.0314 O   0  0  0  0  0  0  0  0  0  0  0  0
    5.0695  -47.3279   11.2948 C   0  0  0  0  0  0  0  0  0  0  0  0
    6.3542  -46.8528   10.7263 N   0  0  0  0  0  0  0  0  0  0  0  0
    2.3482  -42.8410   15.3087 C   0  0  0  0  0  0  0  0  0  0  0  0
    2.4821  -41.7969   16.3218 O   0  0  0  0  0  0  0  0  0  0  0  0
  1  2  1  6  0  0  0
  1  8  1  0  0  0  0
  1 36  1  0  0  0  0
  3  4  1  6  0  0  0
  3 10  1  0  0  0  0
  3 47  1  0  0  0  0
  5 11  1  0  0  0  0
  5 30  1  0  0  0  0
  5 38  1  6  0  0  0
  6 21  1  1  0  0  0
  6 42  1  0  0  0  0
  7 15  1  0  0  0  0
  7 44  1  0  0  0  0
  7 32  1  1  0  0  0
  8  9  1  6  0  0  0
  8 17  1  0  0  0  0
 11 12  1  1  0  0  0
 11 20  1  0  0  0  0
 13  6  1  0  0  0  0
 13 14  1  6  0  0  0
 15 16  1  6  0  0  0
 15 24  1  0  0  0  0
 17 26  1  0  0  0  0
 18 10  1  0  0  0  0
 18 19  1  6  0  0  0
 20 21  1  1  0  0  0
 20 29  1  0  0  0  0
 22 13  1  0  0  0  0
 22 23  1  6  0  0  0
 24 25  1  6  0  0  0
 24 33  1  0  0  0  0
 26 27  1  6  0  0  0
 26 35  1  0  0  0  0
 28  2  1  1  0  0  0
 28 18  1  0  0  0  0
 29 30  1  0  0  0  0
 29 39  1  6  0  0  0
 31 22  1  0  0  0  0
 31 32  1  1  0  0  0
 31 41  1  0  0  0  0
 33 34  1  1  0  0  0
 33 43  1  0  0  0  0
 35 36  1  0  0  0  0
 35 45  1  1  0  0  0
 37 28  1  0  0  0  0
 37 38  1  6  0  0  0
 39 40  1  0  0  0  0
 41 42  1  0  0  0  0
 41 49  1  6  0  0  0
 43 44  1  0  0  0  0
 43 51  1  6  0  0  0
 45 46  1  0  0  0  0
 47 37  1  0  0  0  0
 47 48  1  1  0  0  0
 49 50  1  0  0  0  0
 51 52  1  0  0  0  0
M  END
>  <CHROM.1>
-176.01718681,166.02153162,154.47255348,-71.98804680,61.51245056,177.21596510
-161.18265327,177.78002241,-173.37407293,136.30370349,68.98610701,-61.57188003
2.31789406,-50.06036473,11.34622589,2.04441680,0.48586563,-2.82941221

>  <Name>
2fd0_lig

>  <RI>
3.4301e+07

>  <Rbt.Current_Directory>
/home/itssahil/PROJECTS/Mol_Feturizer/New_Systems/rnas/2fd0

>  <Rbt.Executable>
rbdock ($Id: //depot/dev/client3/rdock/2013.1/src/exe/rbdock.cxx#4 $)

>  <Rbt.Library>
libRbt.so (2013.1, Build901 2013/11/27)

>  <Rbt.Parameter_File>
/export/apps/rDock/src/rDock_2013.1_src/data/scripts/dock_solv.prm

>  <Rbt.Receptor>
prm/pocket_docking_7.prm

>  <SCORE>
-18.5022

>  <SCORE.INTER>
-15.616

>  <SCORE.INTER.CONST>
1

>  <SCORE.INTER.POLAR>
-1.97437

>  <SCORE.INTER.ROT>
12

>  <SCORE.INTER.SOLV>
23.9829

>  <SCORE.INTER.VDW>
-23.4237

>  <SCORE.INTER.norm>
-0.300307

>  <SCORE.INTRA>
-3.24097

>  <SCORE.INTRA.DIHEDRAL>
-10.3834

>  <SCORE.INTRA.DIHEDRAL.0>
23.9727

>  <SCORE.INTRA.POLAR>
0

>  <SCORE.INTRA.POLAR.0>
0

>  <SCORE.INTRA.REPUL>
0

>  <SCORE.INTRA.REPUL.0>
0

>  <SCORE.INTRA.SOLV>
-0.838775

>  <SCORE.INTRA.SOLV.lig_0>
-115.028

>  <SCORE.INTRA.VDW>
2.37013

>  <SCORE.INTRA.VDW.0>
-6.82393

>  <SCORE.INTRA.norm>
-0.0623264

>  <SCORE.RESTR>
0.354717

>  <SCORE.RESTR.CAVITY>
0.354717

>  <SCORE.RESTR.norm>
0.00682149

>  <SCORE.SYSTEM>
0

>  <SCORE.SYSTEM.CONST>
0

>  <SCORE.SYSTEM.DIHEDRAL>
0

>  <SCORE.SYSTEM.SOLV>
0

>  <SCORE.SYSTEM.norm>
0

>  <SCORE.heavy>
52

>  <SCORE.norm>
-0.355812

>  <RMSD>
11.301

$$$$
2fd0_lig
 OpenBabel11021811433D
libRbt.so/2013.1/901 2013/11/27
 52 56  0  0  0  0  0  0  0  0999 V2000
    0.3018  -54.7701    8.7417 C   0  0  2  0  0  0  0  0  0  0  0  0
    1.4253  -55.2277    7.9767 O   0  0  0  0  0  0  0  0  0  0  0  0
    5.5213  -53.8660    7.4653 C   0  0  2  0  0  0  0  0  0  0  0  0
    6.6857  -53.0602    7.0632 N   0  0  0  0  0  0  0  0  0  0  0  0
    2.8349  -52.3504   10.7596 C   0  0  1  0  0  0  0  0  0  0  0  0
    3.5774  -48.2554   11.6622 C   0  0  1  0  0  0  0  0  0  0  0  0
    6.1046  -44.8693   14.0781 C   0  0  1  0  0  0  0  0  0  0  0  0
   -0.8042  -55.8872    8.7228 C   0  0  2  0  0  0  0  0  0  0  0  0
   -0.3023  -57.1562    9.2311 N   0  0  0  0  0  0  0  0  0  0  0  0
    4.6867  -54.3081    6.1843 C   0  0  0  0  0  0  0  0  0  0  0  0
    2.7494  -50.8887   10.3599 C   0  0  2  0  0  0  0  0  0  0  0  0
    4.0137  -50.3825    9.8466 O   0  0  0  0  0  0  0  0  0  0  0  0
    5.0584  -47.9056   12.1560 C   0  0  2  0  0  0  0  0  0  0  0  0
    5.1361  -47.9460   13.6418 N   0  0  0  0  0  0  0  0  0  0  0  0
    6.0507  -43.3657   13.7260 C   0  0  1  0  0  0  0  0  0  0  0  0
    5.0483  -42.7230   14.5518 O   0  0  0  0  0  0  0  0  0  0  0  0
   -1.3990  -56.0446    7.2744 C   0  0  0  0  0  0  0  0  0  0  0  0
    3.4256  -55.1946    6.6238 C   0  0  2  0  0  0  0  0  0  0  0  0
    2.6352  -55.6144    5.4572 N   0  0  0  0  0  0  0  0  0  0  0  0
    2.2257  -50.2217   11.6205 C   0  0  2  0  0  0  0  0  0  0  0  0
    3.2239  -49.4704   12.2560 O   0  0  0  0  0  0  0  0  0  0  0  0
    5.4738  -46.5003   11.4752 C   0  0  1  0  0  0  0  0  0  0  0  0
    5.3533  -46.6453   10.0485 O   0  0  0  0  0  0  0  0  0  0  0  0
    7.3690  -42.5545   13.8489 C   0  0  1  0  0  0  0  0  0  0  0  0
    7.4074  -41.9703   15.1571 O   0  0  0  0  0  0  0  0  0  0  0  0
   -1.9249  -54.6509    6.7993 C   0  0  2  0  0  0  0  0  0  0  0  0
   -2.4894  -54.7547    5.4959 O   0  0  0  0  0  0  0  0  0  0  0  0
    2.5406  -54.3719    7.6013 C   0  0  2  0  0  0  0  0  0  0  0  0
    1.8340  -51.3210   12.6366 C   0  0  2  0  0  0  0  0  0  0  0  0
    1.9713  -52.5099   11.8716 O   0  0  0  0  0  0  0  0  0  0  0  0
    4.4720  -45.3050   11.9017 C   0  0  2  0  0  0  0  0  0  0  0  0
    4.6389  -45.1854   13.3270 O   0  0  0  0  0  0  0  0  0  0  0  0
    8.6776  -43.3450   13.6182 C   0  0  2  0  0  0  0  0  0  0  0  0
    9.5285  -42.4752   12.8397 O   0  0  0  0  0  0  0  0  0  0  0  0
   -0.7505  -53.6309    6.7886 C   0  0  2  0  0  0  0  0  0  0  0  0
   -0.2047  -53.5407    8.1609 O   0  0  0  0  0  0  0  0  0  0  0  0
    3.3282  -53.8653    8.8479 C   0  0  2  0  0  0  0  0  0  0  0  0
    2.4140  -53.0819    9.6520 O   0  0  0  0  0  0  0  0  0  0  0  0
    0.4009  -51.2452   13.1513 C   0  0  0  0  0  0  0  0  0  0  0  0
   -0.4629  -51.3849   12.0131 O   0  0  0  0  0  0  0  0  0  0  0  0
    3.0741  -45.8229   11.6207 C   0  0  1  0  0  0  0  0  0  0  0  0
    2.5890  -47.1261   12.0062 O   0  0  0  0  0  0  0  0  0  0  0  0
    8.3968  -44.6860   12.9457 C   0  0  2  0  0  0  0  0  0  0  0  0
    7.3725  -45.4898   13.5940 O   0  0  0  0  0  0  0  0  0  0  0  0
   -1.1964  -52.2642    6.3759 C   0  0  0  0  0  0  0  0  0  0  0  0
   -0.0659  -51.4367    6.3224 O   0  0  0  0  0  0  0  0  0  0  0  0
    4.5678  -53.0112    8.3934 C   0  0  1  0  0  0  0  0  0  0  0  0
    5.3130  -52.5957    9.5899 O   0  0  0  0  0  0  0  0  0  0  0  0
    1.9458  -44.8066   12.0187 C   0  0  0  0  0  0  0  0  0  0  0  0
    1.8711  -43.6225   11.1290 N   0  0  0  0  0  0  0  0  0  0  0  0
    9.5134  -45.6726   12.6113 C   0  0  0  0  0  0  0  0  0  0  0  0
   10.3343  -45.9304   13.7921 O   0  0  0  0  0  0  0  0  0  0  0  0
  1  2  1  6  0  0  0
  1  8  1  0  0  0  0
  1 36  1  0  0  0  0
  3  4  1  6  0  0  0
  3 10  1  0  0  0  0
  3 47  1  0  0  0  0
  5 11  1  0  0  0  0
  5 30  1  0  0  0  0
  5 38  1  6  0  0  0
  6 21  1  1  0  0  0
  6 42  1  0  0  0  0
  7 15  1  0  0  0  0
  7 44  1  0  0  0  0
  7 32  1  6  0  0  0
  8  9  1  6  0  0  0
  8 17  1  0  0  0  0
 11 12  1  1  0  0  0
 11 20  1  0  0  0  0
 13  6  1  0  0  0  0
 13 14  1  1  0  0  0
 15 16  1  1  0  0  0
 15 24  1  0  0  0  0
 17 26  1  0  0  0  0
 18 10  1  0  0  0  0
 18 19  1  6  0  0  0
 20 21  1  1  0  0  0
 20 29  1  0  0  0  0
 22 13  1  0  0  0  0
 22 23  1  6  0  0  0
 24 25  1  1  0  0  0
 24 33  1  0  0  0  0
 26 27  1  6  0  0  0
 26 35  1  0  0  0  0
 28  2  1  1  0  0  0
 28 18  1  0  0  0  0
 29 30  1  0  0  0  0
 29 39  1  6  0  0  0
 31 22  1  0  0  0  0
 31 32  1  1  0  0  0
 31 41  1  0  0  0  0
 33 34  1  6  0  0  0
 33 43  1  0  0  0  0
 35 36  1  0  0  0  0
 35 45  1  1  0  0  0
 37 28  1  0  0  0  0
 37 38  1  1  0  0  0
 39 40  1  0  0  0  0
 41 42  1  0  0  0  0
 41 49  1  1  0  0  0
 43 44  1  0  0  0  0
 43 51  1  1  0  0  0
 45 46  1  0  0  0  0
 47 37  1  0  0  0  0
 47 48  1  1  0  0  0
 49 50  1  0  0  0  0
 51 52  1  0  0  0  0
M  END
>  <CHROM.1>
169.79854524,108.75698540,-156.83864052,77.62813842,74.33505123,-172.19136675
60.71312619,58.03665787,-176.71860870,-172.27782149,71.06047959,52.08806137
3.49725812,-49.77304462,10.50594452,2.04946042,-0.06801827,-2.59937362

>  <Name>
2fd0_lig

>  <RI>
3.4301e+07

>  <Rbt.Current_Directory>
/home/itssahil/PROJECTS/Mol_Feturizer/New_Systems/rnas/2fd0

>  <Rbt.Executable>
rbdock ($Id: //depot/dev/client3/rdock/2013.1/src/exe/rbdock.cxx#4 $)

>  <Rbt.Library>
libRbt.so (2013.1, Build901 2013/11/27)

>  <Rbt.Parameter_File>
/export/apps/rDock/src/rDock_2013.1_src/data/scripts/dock_solv.prm

>  <Rbt.Receptor>
prm/pocket_docking_7.prm

>  <SCORE>
-22.5526

>  <SCORE.INTER>
-17.4202

>  <SCORE.INTER.CONST>
1

>  <SCORE.INTER.POLAR>
-3.06331

>  <SCORE.INTER.ROT>
12

>  <SCORE.INTER.SOLV>
23.9932

>  <SCORE.INTER.VDW>
-21.0001

>  <SCORE.INTER.norm>
-0.335003

>  <SCORE.INTRA>
-5.13245

>  <SCORE.INTRA.DIHEDRAL>
-9.51968

>  <SCORE.INTRA.DIHEDRAL.0>
23.9727

>  <SCORE.INTRA.POLAR>
0

>  <SCORE.INTRA.POLAR.0>
0

>  <SCORE.INTRA.REPUL>
0

>  <SCORE.INTRA.REPUL.0>
0

>  <SCORE.INTRA.SOLV>
-3.33422

>  <SCORE.INTRA.SOLV.lig_0>
-115.028

>  <SCORE.INTRA.VDW>
1.2945

>  <SCORE.INTRA.VDW.0>
-6.82393

>  <SCORE.INTRA.norm>
-0.0987009

>  <SCORE.RESTR>
0

>  <SCORE.RESTR.CAVITY>
0

>  <SCORE.RESTR.norm>
0

>  <SCORE.SYSTEM>
0

>  <SCORE.SYSTEM.CONST>
0

>  <SCORE.SYSTEM.DIHEDRAL>
0

>  <SCORE.SYSTEM.SOLV>
0

>  <SCORE.SYSTEM.norm>
0

>  <SCORE.heavy>
52

>  <SCORE.norm>
-0.433704

>  <RMSD>
11.311

$$$$
2fd0_lig
 OpenBabel11021811433D
libRbt.so/2013.1/901 2013/11/27
 52 56  0  0  0  0  0  0  0  0999 V2000
   -1.7195  -52.7909    6.3657 C   0  0  2  0  0  0  0  0  0  0  0  0
   -2.0519  -51.8947    7.4349 O   0  0  0  0  0  0  0  0  0  0  0  0
   -4.0714  -48.6377    5.3840 C   0  0  2  0  0  0  0  0  0  0  0  0
   -4.8064  -47.3873    5.1326 N   0  0  0  0  0  0  0  0  0  0  0  0
   -0.4736  -48.2458    7.8491 C   0  0  1  0  0  0  0  0  0  0  0  0
    1.1114  -47.2770   11.7966 C   0  0  1  0  0  0  0  0  0  0  0  0
    5.7095  -48.5782   13.0229 C   0  0  1  0  0  0  0  0  0  0  0  0
   -0.8279  -53.9496    6.9435 C   0  0  2  0  0  0  0  0  0  0  0  0
   -1.4907  -54.6523    8.0333 N   0  0  0  0  0  0  0  0  0  0  0  0
   -4.9136  -49.5905    6.3409 C   0  0  0  0  0  0  0  0  0  0  0  0
    0.1711  -48.7172    9.1397 C   0  0  2  0  0  0  0  0  0  0  0  0
   -0.8099  -48.9820   10.1816 O   0  0  0  0  0  0  0  0  0  0  0  0
    2.5279  -46.6291   12.1616 C   0  0  2  0  0  0  0  0  0  0  0  0
    3.5228  -46.9134   11.0917 N   0  0  0  0  0  0  0  0  0  0  0  0
    5.7533  -49.0972   14.4777 C   0  0  1  0  0  0  0  0  0  0  0  0
    5.8036  -50.5453   14.4611 O   0  0  0  0  0  0  0  0  0  0  0  0
    0.5740  -53.3913    7.3901 C   0  0  0  0  0  0  0  0  0  0  0  0
   -4.1162  -50.9558    6.6042 C   0  0  2  0  0  0  0  0  0  0  0  0
   -4.8726  -51.8542    7.4890 N   0  0  0  0  0  0  0  0  0  0  0  0
    1.1801  -47.6205    9.4360 C   0  0  2  0  0  0  0  0  0  0  0  0
    0.7727  -46.8270   10.5173 O   0  0  0  0  0  0  0  0  0  0  0  0
    2.9279  -47.1465   13.6392 C   0  0  1  0  0  0  0  0  0  0  0  0
    1.8682  -46.7783   14.5405 O   0  0  0  0  0  0  0  0  0  0  0  0
    6.9044  -48.5852   15.3854 C   0  0  1  0  0  0  0  0  0  0  0  0
    7.9829  -49.5256   15.3032 O   0  0  0  0  0  0  0  0  0  0  0  0
    1.2286  -52.6610    6.1724 C   0  0  2  0  0  0  0  0  0  0  0  0
    2.5108  -52.1556    6.5312 O   0  0  0  0  0  0  0  0  0  0  0  0
   -2.7339  -50.6253    7.2331 C   0  0  2  0  0  0  0  0  0  0  0  0
    1.2376  -46.6597    8.2244 C   0  0  2  0  0  0  0  0  0  0  0  0
    0.4335  -47.3284    7.2632 O   0  0  0  0  0  0  0  0  0  0  0  0
    3.0451  -48.7579   13.7019 C   0  0  2  0  0  0  0  0  0  0  0  0
    4.1234  -49.0767   12.8024 O   0  0  0  0  0  0  0  0  0  0  0  0
    7.4485  -47.1744   15.0627 C   0  0  2  0  0  0  0  0  0  0  0  0
    7.6607  -46.5348   16.3403 O   0  0  0  0  0  0  0  0  0  0  0  0
    0.3084  -51.4940    5.7132 C   0  0  2  0  0  0  0  0  0  0  0  0
   -1.0043  -52.0624    5.3347 O   0  0  0  0  0  0  0  0  0  0  0  0
   -1.8915  -49.6467    6.3592 C   0  0  2  0  0  0  0  0  0  0  0  0
   -0.6564  -49.3835    7.0673 O   0  0  0  0  0  0  0  0  0  0  0  0
    2.6254  -46.4531    7.6279 C   0  0  0  0  0  0  0  0  0  0  0  0
    2.9810  -47.6720    6.9578 O   0  0  0  0  0  0  0  0  0  0  0  0
    1.7513  -49.2855   13.1112 C   0  0  1  0  0  0  0  0  0  0  0  0
    1.1570  -48.8135   11.8839 O   0  0  0  0  0  0  0  0  0  0  0  0
    6.4907  -46.4129   14.1504 C   0  0  2  0  0  0  0  0  0  0  0  0
    6.0841  -47.1353   12.9552 O   0  0  0  0  0  0  0  0  0  0  0  0
    0.8627  -50.7749    4.5246 C   0  0  0  0  0  0  0  0  0  0  0  0
    0.6454  -51.5744    3.3936 O   0  0  0  0  0  0  0  0  0  0  0  0
   -2.6979  -48.3216    6.1017 C   0  0  1  0  0  0  0  0  0  0  0  0
   -1.8961  -47.4476    5.2341 O   0  0  0  0  0  0  0  0  0  0  0  0
    1.6956  -50.8529   13.0434 C   0  0  0  0  0  0  0  0  0  0  0  0
    0.4741  -51.3767   12.3853 N   0  0  0  0  0  0  0  0  0  0  0  0
    6.7894  -44.9956   13.6669 C   0  0  0  0  0  0  0  0  0  0  0  0
    5.6021  -44.4078   13.0510 O   0  0  0  0  0  0  0  0  0  0  0  0
  1  2  1  1  0  0  0
  1  8  1  0  0  0  0
  1 36  1  0  0  0  0
  3  4  1  1  0  0  0
  3 10  1  0  0  0  0
  3 47  1  0  0  0  0
  5 11  1  0  0  0  0
  5 30  1  0  0  0  0
  5 38  1  6  0  0  0
  6 21  1  6  0  0  0
  6 42  1  0  0  0  0
  7 15  1  0  0  0  0
  7 44  1  0  0  0  0
  7 32  1  1  0  0  0
  8  9  1  1  0  0  0
  8 17  1  0  0  0  0
 11 12  1  1  0  0  0
 11 20  1  0  0  0  0
 13  6  1  0  0  0  0
 13 14  1  6  0  0  0
 15 16  1  6  0  0  0
 15 24  1  0  0  0  0
 17 26  1  0  0  0  0
 18 10  1  0  0  0  0
 18 19  1  1  0  0  0
 20 21  1  1  0  0  0
 20 29  1  0  0  0  0
 22 13  1  0  0  0  0
 22 23  1  1  0  0  0
 24 25  1  6  0  0  0
 24 33  1  0  0  0  0
 26 27  1  1  0  0  0
 26 35  1  0  0  0  0
 28  2  1  6  0  0  0
 28 18  1  0  0  0  0
 29 30  1  0  0  0  0
 29 39  1  6  0  0  0
 31 22  1  0  0  0  0
 31 32  1  6  0  0  0
 31 41  1  0  0  0  0
 33 34  1  1  0  0  0
 33 43  1  0  0  0  0
 35 36  1  0  0  0  0
 35 45  1  6  0  0  0
 37 28  1  0  0  0  0
 37 38  1  1  0  0  0
 39 40  1  0  0  0  0
 41 42  1  0  0  0  0
 41 49  1  6  0  0  0
 43 44  1  0  0  0  0
 43 51  1  6  0  0  0
 45 46  1  0  0  0  0
 47 37  1  0  0  0  0
 47 48  1  6  0  0  0
 49 50  1  0  0  0  0
 51 52  1  0  0  0  0
M  END
>  <CHROM.1>
172.48984593,134.86947866,91.00995383,50.96850789,85.92891424,61.08594955
71.35193233,63.08249601,75.91824117,-97.70270647,-176.15830435,-168.18868003
1.41160705,-49.13128414,9.74165194,-2.78283364,-0.78760118,0.11810170

>  <Name>
2fd0_lig

>  <RI>
1.29864e+07

>  <Rbt.Current_Directory>
/home/itssahil/PROJECTS/Mol_Feturizer/New_Systems/rnas/2fd0

>  <Rbt.Executable>
rbdock ($Id: //depot/dev/client3/rdock/2013.1/src/exe/rbdock.cxx#4 $)

>  <Rbt.Library>
libRbt.so (2013.1, Build901 2013/11/27)

>  <Rbt.Parameter_File>
/export/apps/rDock/src/rDock_2013.1_src/data/scripts/dock_solv.prm

>  <Rbt.Receptor>
prm/pocket_docking_3.prm

>  <SCORE>
-2.58072

>  <SCORE.INTER>
-4.90445

>  <SCORE.INTER.CONST>
1

>  <SCORE.INTER.POLAR>
-0.933214

>  <SCORE.INTER.ROT>
12

>  <SCORE.INTER.SOLV>
11.3705

>  <SCORE.INTER.VDW>
-15.5491

>  <SCORE.INTER.norm>
-0.0943164

>  <SCORE.INTRA>
2.28567

>  <SCORE.INTRA.DIHEDRAL>
-2.10284

>  <SCORE.INTRA.DIHEDRAL.0>
23.9727

>  <SCORE.INTRA.POLAR>
0

>  <SCORE.INTRA.POLAR.0>
0

>  <SCORE.INTRA.REPUL>
0

>  <SCORE.INTRA.REPUL.0>
0

>  <SCORE.INTRA.SOLV>
0.804968

>  <SCORE.INTRA.SOLV.lig_0>
-115.028

>  <SCORE.INTRA.VDW>
2.93461

>  <SCORE.INTRA.VDW.0>
-6.82393

>  <SCORE.INTRA.norm>
0.0439553

>  <SCORE.RESTR>
0.0380615

>  <SCORE.RESTR.CAVITY>
0.0380615

>  <SCORE.RESTR.norm>
0.000731951

>  <SCORE.SYSTEM>
0

>  <SCORE.SYSTEM.CONST>
0

>  <SCORE.SYSTEM.DIHEDRAL>
0

>  <SCORE.SYSTEM.SOLV>
0

>  <SCORE.SYSTEM.norm>
0

>  <SCORE.heavy>
52

>  <SCORE.norm>
-0.0496291

>  <RMSD>
11.312

$$$$
2fd0_lig
 OpenBabel11021811433D
libRbt.so/2013.1/901 2013/11/27
 52 56  0  0  0  0  0  0  0  0999 V2000
    0.6886  -52.6299    9.1483 C   0  0  2  0  0  0  0  0  0  0  0  0
   -0.1874  -52.5852   10.2831 O   0  0  0  0  0  0  0  0  0  0  0  0
   -3.6485  -50.3358    8.9217 C   0  0  2  0  0  0  0  0  0  0  0  0
   -4.8900  -49.5448    8.9245 N   0  0  0  0  0  0  0  0  0  0  0  0
    0.2311  -48.3694   10.1486 C   0  0  1  0  0  0  0  0  0  0  0  0
    3.1795  -44.9376   10.7024 C   0  0  1  0  0  0  0  0  0  0  0  0
    5.8546  -43.4023   14.5287 C   0  0  1  0  0  0  0  0  0  0  0  0
    1.4907  -53.9814    9.1888 C   0  0  2  0  0  0  0  0  0  0  0  0
    0.6052  -55.1371    9.2168 N   0  0  0  0  0  0  0  0  0  0  0  0
   -3.8722  -51.7172    9.6798 C   0  0  0  0  0  0  0  0  0  0  0  0
    1.1580  -47.9524   11.2758 C   0  0  2  0  0  0  0  0  0  0  0  0
    0.4445  -47.3001   12.3637 O   0  0  0  0  0  0  0  0  0  0  0  0
    4.2769  -45.4583   11.7436 C   0  0  2  0  0  0  0  0  0  0  0  0
    3.7063  -45.5176   13.1170 N   0  0  0  0  0  0  0  0  0  0  0  0
    6.7022  -42.1139   14.4322 C   0  0  1  0  0  0  0  0  0  0  0  0
    5.9246  -40.9985   14.9333 O   0  0  0  0  0  0  0  0  0  0  0  0
    2.4854  -53.9917   10.4082 C   0  0  0  0  0  0  0  0  0  0  0  0
   -2.5223  -52.5814    9.6658 C   0  0  2  0  0  0  0  0  0  0  0  0
   -2.7014  -53.8634   10.3631 N   0  0  0  0  0  0  0  0  0  0  0  0
    2.2027  -47.1105   10.5630 C   0  0  2  0  0  0  0  0  0  0  0  0
    2.0514  -45.7482   10.8567 O   0  0  0  0  0  0  0  0  0  0  0  0
    5.5843  -44.5242   11.5729 C   0  0  1  0  0  0  0  0  0  0  0  0
    6.0042  -44.5950   10.1983 O   0  0  0  0  0  0  0  0  0  0  0  0
    8.0768  -42.1063   15.1542 C   0  0  1  0  0  0  0  0  0  0  0  0
    7.8842  -41.5588   16.4646 O   0  0  0  0  0  0  0  0  0  0  0  0
    3.4072  -52.7327   10.3079 C   0  0  2  0  0  0  0  0  0  0  0  0
    4.3369  -52.7146   11.3866 O   0  0  0  0  0  0  0  0  0  0  0  0
   -1.3856  -51.7616   10.3378 C   0  0  2  0  0  0  0  0  0  0  0  0
    1.9749  -47.2260    9.0368 C   0  0  2  0  0  0  0  0  0  0  0  0
    0.9744  -48.2305    8.9502 O   0  0  0  0  0  0  0  0  0  0  0  0
    5.2574  -42.9696   11.8738 C   0  0  2  0  0  0  0  0  0  0  0  0
    4.8602  -42.9455   13.2578 O   0  0  0  0  0  0  0  0  0  0  0  0
    8.7832  -43.4754   15.2858 C   0  0  2  0  0  0  0  0  0  0  0  0
   10.1805  -43.2223   15.0210 O   0  0  0  0  0  0  0  0  0  0  0  0
    2.5323  -51.4469   10.3406 C   0  0  2  0  0  0  0  0  0  0  0  0
    1.5943  -51.4974    9.1973 O   0  0  0  0  0  0  0  0  0  0  0  0
   -1.1655  -50.3718    9.6662 C   0  0  2  0  0  0  0  0  0  0  0  0
   -0.1213  -49.6922   10.4037 O   0  0  0  0  0  0  0  0  0  0  0  0
    3.1870  -47.6866    8.2349 C   0  0  0  0  0  0  0  0  0  0  0  0
    4.2245  -46.7170    8.4462 O   0  0  0  0  0  0  0  0  0  0  0  0
    4.0503  -42.6325   11.0189 C   0  0  1  0  0  0  0  0  0  0  0  0
    2.8630  -43.4463   10.9183 O   0  0  0  0  0  0  0  0  0  0  0  0
    8.1609  -44.5058   14.3474 C   0  0  2  0  0  0  0  0  0  0  0  0
    6.7139  -44.6192   14.4407 O   0  0  0  0  0  0  0  0  0  0  0  0
    3.3543  -50.2040   10.2118 C   0  0  0  0  0  0  0  0  0  0  0  0
    4.2282  -50.3721    9.1283 O   0  0  0  0  0  0  0  0  0  0  0  0
   -2.5047  -49.5478    9.6780 C   0  0  1  0  0  0  0  0  0  0  0  0
   -2.2725  -48.2689    8.9926 O   0  0  0  0  0  0  0  0  0  0  0  0
    3.5482  -41.1576   11.2109 C   0  0  0  0  0  0  0  0  0  0  0  0
    4.5900  -40.1356   10.9472 N   0  0  0  0  0  0  0  0  0  0  0  0
    8.6618  -45.9469   14.2823 C   0  0  0  0  0  0  0  0  0  0  0  0
    8.1941  -46.5928   13.0581 O   0  0  0  0  0  0  0  0  0  0  0  0
  1  2  1  1  0  0  0
  1  8  1  0  0  0  0
  1 36  1  0  0  0  0
  3  4  1  1  0  0  0
  3 10  1  0  0  0  0
  3 47  1  0  0  0  0
  5 11  1  0  0  0  0
  5 30  1  0  0  0  0
  5 38  1  1  0  0  0
  6 21  1  1  0  0  0
  6 42  1  0  0  0  0
  7 15  1  0  0  0  0
  7 44  1  0  0  0  0
  7 32  1  6  0  0  0
  8  9  1  1  0  0  0
  8 17  1  0  0  0  0
 11 12  1  1  0  0  0
 11 20  1  0  0  0  0
 13  6  1  0  0  0  0
 13 14  1  1  0  0  0
 15 16  1  1  0  0  0
 15 24  1  0  0  0  0
 17 26  1  0  0  0  0
 18 10  1  0  0  0  0
 18 19  1  1  0  0  0
 20 21  1  1  0  0  0
 20 29  1  0  0  0  0
 22 13  1  0  0  0  0
 22 23  1  6  0  0  0
 24 25  1  1  0  0  0
 24 33  1  0  0  0  0
 26 27  1  1  0  0  0
 26 35  1  0  0  0  0
 28  2  1  6  0  0  0
 28 18  1  0  0  0  0
 29 30  1  0  0  0  0
 29 39  1  6  0  0  0
 31 22  1  0  0  0  0
 31 32  1  1  0  0  0
 31 41  1  0  0  0  0
 33 34  1  6  0  0  0
 33 43  1  0  0  0  0
 35 36  1  0  0  0  0
 35 45  1  6  0  0  0
 37 28  1  0  0  0  0
 37 38  1  1  0  0  0
 39 40  1  0  0  0  0
 41 42  1  0  0  0  0
 41 49  1  1  0  0  0
 43 44  1  0  0  0  0
 43 51  1  1  0  0  0
 45 46  1  0  0  0  0
 47 37  1  0  0  0  0
 47 48  1  6  0  0  0
 49 50  1  0  0  0  0
 51 52  1  0  0  0  0
M  END
>  <CHROM.1>
-157.39577794,169.75421131,-63.00588071,74.15953371,156.76967025,84.97617241
-60.50584754,61.61286130,48.64244072,-173.46405761,56.57125121,-162.84601328
2.91313062,-47.42888285,11.24326254,-2.29181631,-0.37936293,0.12576013

>  <Name>
2fd0_lig

>  <RI>
3.4301e+07

>  <Rbt.Current_Directory>
/home/itssahil/PROJECTS/Mol_Feturizer/New_Systems/rnas/2fd0

>  <Rbt.Executable>
rbdock ($Id: //depot/dev/client3/rdock/2013.1/src/exe/rbdock.cxx#4 $)

>  <Rbt.Library>
libRbt.so (2013.1, Build901 2013/11/27)

>  <Rbt.Parameter_File>
/export/apps/rDock/src/rDock_2013.1_src/data/scripts/dock_solv.prm

>  <Rbt.Receptor>
prm/pocket_docking_7.prm

>  <SCORE>
-18.2844

>  <SCORE.INTER>
-12.5113

>  <SCORE.INTER.CONST>
1

>  <SCORE.INTER.POLAR>
-2.40829

>  <SCORE.INTER.ROT>
12

>  <SCORE.INTER.SOLV>
22.1976

>  <SCORE.INTER.VDW>
-19.3124

>  <SCORE.INTER.norm>
-0.240602

>  <SCORE.INTRA>
-5.78491

>  <SCORE.INTRA.DIHEDRAL>
-11.9181

>  <SCORE.INTRA.DIHEDRAL.0>
23.9727

>  <SCORE.INTRA.POLAR>
0

>  <SCORE.INTRA.POLAR.0>
0

>  <SCORE.INTRA.REPUL>
0

>  <SCORE.INTRA.REPUL.0>
0

>  <SCORE.INTRA.SOLV>
0.366067

>  <SCORE.INTRA.SOLV.lig_0>
-115.028

>  <SCORE.INTRA.VDW>
-0.00889745

>  <SCORE.INTRA.VDW.0>
-6.82393

>  <SCORE.INTRA.norm>
-0.111248

>  <SCORE.RESTR>
0.0118015

>  <SCORE.RESTR.CAVITY>
0.0118015

>  <SCORE.RESTR.norm>
0.000226952

>  <SCORE.SYSTEM>
0

>  <SCORE.SYSTEM.CONST>
0

>  <SCORE.SYSTEM.DIHEDRAL>
0

>  <SCORE.SYSTEM.SOLV>
0

>  <SCORE.SYSTEM.norm>
0

>  <SCORE.heavy>
52

>  <SCORE.norm>
-0.351623

>  <RMSD>
11.324

$$$$
2fd0_lig
 OpenBabel11021811433D
libRbt.so/2013.1/901 2013/11/27
 52 56  0  0  0  0  0  0  0  0999 V2000
    2.0759  -49.6107    7.3940 C   0  0  2  0  0  0  0  0  0  0  0  0
    1.5227  -50.6825    8.1701 O   0  0  0  0  0  0  0  0  0  0  0  0
   -1.2962  -53.8539    7.2279 C   0  0  2  0  0  0  0  0  0  0  0  0
   -1.8988  -55.0536    6.6241 N   0  0  0  0  0  0  0  0  0  0  0  0
    2.1117  -53.0864   10.6962 C   0  0  1  0  0  0  0  0  0  0  0  0
    2.7211  -49.9298   13.9700 C   0  0  1  0  0  0  0  0  0  0  0  0
    6.1283  -46.6517   13.9942 C   0  0  1  0  0  0  0  0  0  0  0  0
    3.2006  -48.9097    8.2397 C   0  0  2  0  0  0  0  0  0  0  0  0
    4.2339  -49.8492    8.6526 N   0  0  0  0  0  0  0  0  0  0  0  0
   -0.9069  -52.8031    6.0977 C   0  0  0  0  0  0  0  0  0  0  0  0
    2.6666  -51.6795   10.8238 C   0  0  2  0  0  0  0  0  0  0  0  0
    4.1216  -51.6613   10.8556 O   0  0  0  0  0  0  0  0  0  0  0  0
    3.3169  -48.6882   13.1557 C   0  0  2  0  0  0  0  0  0  0  0  0
    4.6931  -48.9908   12.6764 N   0  0  0  0  0  0  0  0  0  0  0  0
    7.5392  -47.1297   14.4048 C   0  0  1  0  0  0  0  0  0  0  0  0
    7.7543  -48.4659   13.8869 O   0  0  0  0  0  0  0  0  0  0  0  0
    2.5731  -48.1674    9.4773 C   0  0  0  0  0  0  0  0  0  0  0  0
   -0.2612  -51.4932    6.7583 C   0  0  2  0  0  0  0  0  0  0  0  0
    0.1104  -50.5061    5.7339 N   0  0  0  0  0  0  0  0  0  0  0  0
    1.9651  -51.1486   12.0626 C   0  0  2  0  0  0  0  0  0  0  0  0
    2.8448  -51.0549   13.1498 O   0  0  0  0  0  0  0  0  0  0  0  0
    3.1794  -47.3832   14.0985 C   0  0  1  0  0  0  0  0  0  0  0  0
    1.7927  -47.2364   14.4542 O   0  0  0  0  0  0  0  0  0  0  0  0
    8.7449  -46.2482   13.9802 C   0  0  1  0  0  0  0  0  0  0  0  0
    9.2356  -46.7447   12.7285 O   0  0  0  0  0  0  0  0  0  0  0  0
    1.4834  -47.1727    8.9597 C   0  0  2  0  0  0  0  0  0  0  0  0
    0.9024  -46.4657   10.0508 O   0  0  0  0  0  0  0  0  0  0  0  0
    0.9899  -51.9032    7.5844 C   0  0  2  0  0  0  0  0  0  0  0  0
    0.8871  -52.1699   12.4976 C   0  0  2  0  0  0  0  0  0  0  0  0
    0.8977  -53.1032   11.4268 O   0  0  0  0  0  0  0  0  0  0  0  0
    3.9937  -47.5532   15.4850 C   0  0  2  0  0  0  0  0  0  0  0  0
    5.3705  -47.6787   15.0820 O   0  0  0  0  0  0  0  0  0  0  0  0
    8.4640  -44.7343   13.8394 C   0  0  2  0  0  0  0  0  0  0  0  0
    9.6131  -44.0682   14.4072 O   0  0  0  0  0  0  0  0  0  0  0  0
    0.3835  -47.9626    8.1941 C   0  0  2  0  0  0  0  0  0  0  0  0
    1.0246  -48.6674    7.0619 O   0  0  0  0  0  0  0  0  0  0  0  0
    0.6716  -52.9764    8.6697 C   0  0  2  0  0  0  0  0  0  0  0  0
    1.9146  -53.3050    9.3352 O   0  0  0  0  0  0  0  0  0  0  0  0
   -0.5233  -51.6059   12.6277 C   0  0  0  0  0  0  0  0  0  0  0  0
   -0.9553  -51.2441   11.3072 O   0  0  0  0  0  0  0  0  0  0  0  0
    3.5381  -48.8780   16.0671 C   0  0  1  0  0  0  0  0  0  0  0  0
    3.4349  -50.1095   15.3223 O   0  0  0  0  0  0  0  0  0  0  0  0
    7.1461  -44.3566   14.5103 C   0  0  2  0  0  0  0  0  0  0  0  0
    6.0065  -45.1693   14.1151 O   0  0  0  0  0  0  0  0  0  0  0  0
   -0.6740  -47.0613    7.6406 C   0  0  0  0  0  0  0  0  0  0  0  0
   -0.0594  -46.1631    6.7567 O   0  0  0  0  0  0  0  0  0  0  0  0
    0.0263  -54.2453    8.0018 C   0  0  1  0  0  0  0  0  0  0  0  0
   -0.3069  -55.2110    9.0582 O   0  0  0  0  0  0  0  0  0  0  0  0
    4.2617  -49.2451   17.4111 C   0  0  0  0  0  0  0  0  0  0  0  0
    5.7375  -49.3255   17.2892 N   0  0  0  0  0  0  0  0  0  0  0  0
    6.6211  -42.9226   14.5113 C   0  0  0  0  0  0  0  0  0  0  0  0
    7.6212  -42.0155   15.0694 O   0  0  0  0  0  0  0  0  0  0  0  0
  1  2  1  1  0  0  0
  1  8  1  0  0  0  0
  1 36  1  0  0  0  0
  3  4  1  6  0  0  0
  3 10  1  0  0  0  0
  3 47  1  0  0  0  0
  5 11  1  0  0  0  0
  5 30  1  0  0  0  0
  5 38  1  6  0  0  0
  6 21  1  6  0  0  0
  6 42  1  0  0  0  0
  7 15  1  0  0  0  0
  7 44  1  0  0  0  0
  7 32  1  1  0  0  0
  8  9  1  1  0  0  0
  8 17  1  0  0  0  0
 11 12  1  1  0  0  0
 11 20  1  0  0  0  0
 13  6  1  0  0  0  0
 13 14  1  1  0  0  0
 15 16  1  6  0  0  0
 15 24  1  0  0  0  0
 17 26  1  0  0  0  0
 18 10  1  0  0  0  0
 18 19  1  6  0  0  0
 20 21  1  1  0  0  0
 20 29  1  0  0  0  0
 22 13  1  0  0  0  0
 22 23  1  1  0  0  0
 24 25  1  6  0  0  0
 24 33  1  0  0  0  0
 26 27  1  1  0  0  0
 26 35  1  0  0  0  0
 28  2  1  1  0  0  0
 28 18  1  0  0  0  0
 29 30  1  0  0  0  0
 29 39  1  6  0  0  0
 31 22  1  0  0  0  0
 31 32  1  6  0  0  0
 31 41  1  0  0  0  0
 33 34  1  1  0  0  0
 33 43  1  0  0  0  0
 35 36  1  0  0  0  0
 35 45  1  6  0  0  0
 37 28  1  0  0  0  0
 37 38  1  6  0  0  0
 39 40  1  0  0  0  0
 41 42  1  0  0  0  0
 41 49  1  1  0  0  0
 43 44  1  0  0  0  0
 43 51  1  6  0  0  0
 45 46  1  0  0  0  0
 47 37  1  0  0  0  0
 47 48  1  1  0  0  0
 49 50  1  0  0  0  0
 51 52  1  0  0  0  0
M  END
>  <CHROM.1>
-148.86767914,-89.47881672,-73.50031941,164.47695613,139.91282964,-65.43139811
66.90376693,48.29418143,59.94071129,118.33666034,-58.39698611,-55.21199371
3.03447462,-49.24853336,11.39824462,-3.09888982,0.92863733,2.33695621

>  <Name>
2fd0_lig

>  <RI>
2.00683e+07

>  <Rbt.Current_Directory>
/home/itssahil/PROJECTS/Mol_Feturizer/New_Systems/rnas/2fd0

>  <Rbt.Executable>
rbdock ($Id: //depot/dev/client3/rdock/2013.1/src/exe/rbdock.cxx#4 $)

>  <Rbt.Library>
libRbt.so (2013.1, Build901 2013/11/27)

>  <Rbt.Parameter_File>
/export/apps/rDock/src/rDock_2013.1_src/data/scripts/dock_solv.prm

>  <Rbt.Receptor>
prm/pocket_docking_4.prm

>  <SCORE>
-10.4211

>  <SCORE.INTER>
-14.649

>  <SCORE.INTER.CONST>
1

>  <SCORE.INTER.POLAR>
-1.82871

>  <SCORE.INTER.ROT>
12

>  <SCORE.INTER.SOLV>
18.2684

>  <SCORE.INTER.VDW>
-21.3598

>  <SCORE.INTER.norm>
-0.281712

>  <SCORE.INTRA>
3.82076

>  <SCORE.INTRA.DIHEDRAL>
0.561835

>  <SCORE.INTRA.DIHEDRAL.0>
23.9727

>  <SCORE.INTRA.POLAR>
0

>  <SCORE.INTRA.POLAR.0>
0

>  <SCORE.INTRA.REPUL>
0.041925

>  <SCORE.INTRA.REPUL.0>
0

>  <SCORE.INTRA.SOLV>
6.09577

>  <SCORE.INTRA.SOLV.lig_0>
-115.028

>  <SCORE.INTRA.VDW>
0.282335

>  <SCORE.INTRA.VDW.0>
-6.82393

>  <SCORE.INTRA.norm>
0.0734762

>  <SCORE.RESTR>
0.407202

>  <SCORE.RESTR.CAVITY>
0.407202

>  <SCORE.RESTR.norm>
0.00783081

>  <SCORE.SYSTEM>
0

>  <SCORE.SYSTEM.CONST>
0

>  <SCORE.SYSTEM.DIHEDRAL>
0

>  <SCORE.SYSTEM.SOLV>
0

>  <SCORE.SYSTEM.norm>
0

>  <SCORE.heavy>
52

>  <SCORE.norm>
-0.200405

>  <RMSD>
11.329

$$$$
2fd0_lig
 OpenBabel11021811433D
libRbt.so/2013.1/901 2013/11/27
 52 56  0  0  0  0  0  0  0  0999 V2000
   -3.3309  -50.7337    9.6411 C   0  0  2  0  0  0  0  0  0  0  0  0
   -2.6102  -50.1593    8.5423 O   0  0  0  0  0  0  0  0  0  0  0  0
   -3.3675  -47.6574    5.0696 C   0  0  2  0  0  0  0  0  0  0  0  0
   -3.8944  -46.5875    4.2067 N   0  0  0  0  0  0  0  0  0  0  0  0
   -0.0445  -46.9391    8.1972 C   0  0  1  0  0  0  0  0  0  0  0  0
    3.4615  -46.4285   10.5478 C   0  0  1  0  0  0  0  0  0  0  0  0
    7.8351  -44.8616   11.6202 C   0  0  1  0  0  0  0  0  0  0  0  0
   -2.9475  -49.9554   10.9521 C   0  0  2  0  0  0  0  0  0  0  0  0
   -3.2156  -48.5289   10.8342 N   0  0  0  0  0  0  0  0  0  0  0  0
   -4.5627  -48.5086    5.6860 C   0  0  0  0  0  0  0  0  0  0  0  0
    0.7809  -47.3225    9.4118 C   0  0  2  0  0  0  0  0  0  0  0  0
    0.6443  -46.3622   10.4968 O   0  0  0  0  0  0  0  0  0  0  0  0
    4.3306  -45.1003   10.7480 C   0  0  2  0  0  0  0  0  0  0  0  0
    5.3935  -45.0110    9.7099 N   0  0  0  0  0  0  0  0  0  0  0  0
    8.0682  -44.7851   13.1458 C   0  0  1  0  0  0  0  0  0  0  0  0
    8.9910  -45.8323   13.5355 O   0  0  0  0  0  0  0  0  0  0  0  0
   -1.4442  -50.2268   11.3304 C   0  0  0  0  0  0  0  0  0  0  0  0
   -3.9862  -49.6797    6.6163 C   0  0  2  0  0  0  0  0  0  0  0  0
   -5.0717  -50.4807    7.2012 N   0  0  0  0  0  0  0  0  0  0  0  0
    2.1775  -47.4851    8.8361 C   0  0  2  0  0  0  0  0  0  0  0  0
    3.0176  -46.4317    9.2224 O   0  0  0  0  0  0  0  0  0  0  0  0
    4.8496  -45.0903   12.2781 C   0  0  1  0  0  0  0  0  0  0  0  0
    3.6984  -45.1695   13.1380 O   0  0  0  0  0  0  0  0  0  0  0  0
    8.5916  -43.4420   13.7230 C   0  0  1  0  0  0  0  0  0  0  0  0
   10.0219  -43.5137   13.7805 O   0  0  0  0  0  0  0  0  0  0  0  0
   -1.2329  -51.7715   11.4487 C   0  0  2  0  0  0  0  0  0  0  0  0
    0.1146  -52.0591   11.8087 O   0  0  0  0  0  0  0  0  0  0  0  0
   -3.1167  -49.0543    7.7425 C   0  0  2  0  0  0  0  0  0  0  0  0
    2.0914  -47.3931    7.2938 C   0  0  2  0  0  0  0  0  0  0  0  0
    0.6898  -47.3707    7.0648 O   0  0  0  0  0  0  0  0  0  0  0  0
    5.7627  -46.3820   12.6129 C   0  0  2  0  0  0  0  0  0  0  0  0
    6.9048  -46.2513   11.7457 O   0  0  0  0  0  0  0  0  0  0  0  0
    8.1880  -42.1660   12.9487 C   0  0  2  0  0  0  0  0  0  0  0  0
    7.8629  -41.1830   13.9559 O   0  0  0  0  0  0  0  0  0  0  0  0
   -1.5738  -52.4460   10.0891 C   0  0  2  0  0  0  0  0  0  0  0  0
   -2.9832  -52.1373    9.7609 O   0  0  0  0  0  0  0  0  0  0  0  0
   -1.9637  -48.1619    7.1899 C   0  0  2  0  0  0  0  0  0  0  0  0
   -1.2601  -47.6059    8.3266 O   0  0  0  0  0  0  0  0  0  0  0  0
    2.6810  -48.5805    6.5410 C   0  0  0  0  0  0  0  0  0  0  0  0
    1.8112  -49.6991    6.7720 O   0  0  0  0  0  0  0  0  0  0  0  0
    4.9515  -47.5834   12.1657 C   0  0  1  0  0  0  0  0  0  0  0  0
    4.2735  -47.6893   10.8964 O   0  0  0  0  0  0  0  0  0  0  0  0
    7.0422  -42.4511   11.9815 C   0  0  2  0  0  0  0  0  0  0  0  0
    7.2577  -43.5877   11.0999 O   0  0  0  0  0  0  0  0  0  0  0  0
   -1.4258  -53.9333   10.1464 C   0  0  0  0  0  0  0  0  0  0  0  0
   -1.3966  -54.4174    8.8309 O   0  0  0  0  0  0  0  0  0  0  0  0
   -2.5503  -47.0300    6.2695 C   0  0  1  0  0  0  0  0  0  0  0  0
   -1.4338  -46.2434    5.7270 O   0  0  0  0  0  0  0  0  0  0  0  0
    5.7013  -48.9474   12.3703 C   0  0  0  0  0  0  0  0  0  0  0  0
    5.4730  -49.5575   13.7026 N   0  0  0  0  0  0  0  0  0  0  0  0
    6.4540  -41.3659   11.0824 C   0  0  0  0  0  0  0  0  0  0  0  0
    5.5372  -41.9543   10.1088 O   0  0  0  0  0  0  0  0  0  0  0  0
  1  2  1  6  0  0  0
  1  8  1  0  0  0  0
  1 36  1  0  0  0  0
  3  4  1  6  0  0  0
  3 10  1  0  0  0  0
  3 47  1  0  0  0  0
  5 11  1  0  0  0  0
  5 30  1  0  0  0  0
  5 38  1  1  0  0  0
  6 21  1  6  0  0  0
  6 42  1  0  0  0  0
  7 15  1  0  0  0  0
  7 44  1  0  0  0  0
  7 32  1  1  0  0  0
  8  9  1  6  0  0  0
  8 17  1  0  0  0  0
 11 12  1  1  0  0  0
 11 20  1  0  0  0  0
 13  6  1  0  0  0  0
 13 14  1  6  0  0  0
 15 16  1  6  0  0  0
 15 24  1  0  0  0  0
 17 26  1  0  0  0  0
 18 10  1  0  0  0  0
 18 19  1  1  0  0  0
 20 21  1  1  0  0  0
 20 29  1  0  0  0  0
 22 13  1  0  0  0  0
 22 23  1  1  0  0  0
 24 25  1  6  0  0  0
 24 33  1  0  0  0  0
 26 27  1  6  0  0  0
 26 35  1  0  0  0  0
 28  2  1  6  0  0  0
 28 18  1  0  0  0  0
 29 30  1  0  0  0  0
 29 39  1  6  0  0  0
 31 22  1  0  0  0  0
 31 32  1  6  0  0  0
 31 41  1  0  0  0  0
 33 34  1  1  0  0  0
 33 43  1  0  0  0  0
 35 36  1  0  0  0  0
 35 45  1  1  0  0  0
 37 28  1  0  0  0  0
 37 38  1  1  0  0  0
 39 40  1  0  0  0  0
 41 42  1  0  0  0  0
 41 49  1  6  0  0  0
 43 44  1  0  0  0  0
 43 51  1  6  0  0  0
 45 46  1  0  0  0  0
 47 37  1  0  0  0  0
 47 48  1  6  0  0  0
 49 50  1  0  0  0  0
 51 52  1  0  0  0  0
M  END
>  <CHROM.1>
-89.43885746,-142.79624879,-177.17621528,52.90733911,73.64480162,-86.74913171
69.91035661,50.99437922,-164.45257279,169.26478082,88.98885944,170.48013270
1.99119825,-47.36565065,9.97727755,-2.93317519,-0.60744360,-0.57025365

>  <Name>
2fd0_lig

>  <RI>
0

>  <Rbt.Current_Directory>
/home/itssahil/PROJECTS/Mol_Feturizer/New_Systems/rnas/2fd0

>  <Rbt.Executable>
rbdock ($Id: //depot/dev/client3/rdock/2013.1/src/exe/rbdock.cxx#4 $)

>  <Rbt.Library>
libRbt.so (2013.1, Build901 2013/11/27)

>  <Rbt.Parameter_File>
/export/apps/rDock/src/rDock_2013.1_src/data/scripts/dock_solv.prm

>  <Rbt.Receptor>
prm/pocket_docking_5.prm

>  <SCORE>
-12.7389

>  <SCORE.INTER>
-11.9043

>  <SCORE.INTER.CONST>
1

>  <SCORE.INTER.POLAR>
-1.61028

>  <SCORE.INTER.ROT>
12

>  <SCORE.INTER.SOLV>
14.8412

>  <SCORE.INTER.VDW>
-19.1156

>  <SCORE.INTER.norm>
-0.228928

>  <SCORE.INTRA>
-0.946031

>  <SCORE.INTRA.DIHEDRAL>
-5.94234

>  <SCORE.INTRA.DIHEDRAL.0>
23.9727

>  <SCORE.INTRA.POLAR>
0

>  <SCORE.INTRA.POLAR.0>
0

>  <SCORE.INTRA.REPUL>
0

>  <SCORE.INTRA.REPUL.0>
0

>  <SCORE.INTRA.SOLV>
0.966773

>  <SCORE.INTRA.SOLV.lig_0>
-115.028

>  <SCORE.INTRA.VDW>
1.54175

>  <SCORE.INTRA.VDW.0>
-6.82393

>  <SCORE.INTRA.norm>
-0.0181929

>  <SCORE.RESTR>
0.111432

>  <SCORE.RESTR.CAVITY>
0.111432

>  <SCORE.RESTR.norm>
0.00214292

>  <SCORE.SYSTEM>
0

>  <SCORE.SYSTEM.CONST>
0

>  <SCORE.SYSTEM.DIHEDRAL>
0

>  <SCORE.SYSTEM.SOLV>
0

>  <SCORE.SYSTEM.norm>
0

>  <SCORE.heavy>
52

>  <SCORE.norm>
-0.244978

>  <RMSD>
11.343

$$$$
2fd0_lig
 OpenBabel11021811433D
libRbt.so/2013.1/901 2013/11/27
 52 56  0  0  0  0  0  0  0  0999 V2000
    1.1016  -52.0871    6.1274 C   0  0  2  0  0  0  0  0  0  0  0  0
    0.0437  -51.9231    7.0818 O   0  0  0  0  0  0  0  0  0  0  0  0
   -1.7061  -48.0790    6.0550 C   0  0  2  0  0  0  0  0  0  0  0  0
   -2.6646  -46.9686    5.9314 N   0  0  0  0  0  0  0  0  0  0  0  0
    0.8596  -49.2744    9.8693 C   0  0  1  0  0  0  0  0  0  0  0  0
    1.8544  -47.3398   13.9078 C   0  0  1  0  0  0  0  0  0  0  0  0
    6.0530  -47.7838   17.0520 C   0  0  1  0  0  0  0  0  0  0  0  0
    2.0940  -53.1818    6.6643 C   0  0  2  0  0  0  0  0  0  0  0  0
    1.4186  -54.4454    6.9248 N   0  0  0  0  0  0  0  0  0  0  0  0
   -2.3061  -49.4015    5.4039 C   0  0  0  0  0  0  0  0  0  0  0  0
    0.1683  -48.5555   11.0134 C   0  0  2  0  0  0  0  0  0  0  0  0
   -0.1030  -47.1595   10.7040 O   0  0  0  0  0  0  0  0  0  0  0  0
    2.8848  -46.1268   14.0706 C   0  0  2  0  0  0  0  0  0  0  0  0
    4.1874  -46.4594   13.4319 N   0  0  0  0  0  0  0  0  0  0  0  0
    7.0211  -47.9614   15.8607 C   0  0  1  0  0  0  0  0  0  0  0  0
    7.4201  -46.6548   15.3777 O   0  0  0  0  0  0  0  0  0  0  0  0
    2.8458  -52.6591    7.9441 C   0  0  0  0  0  0  0  0  0  0  0  0
   -1.2563  -50.6063    5.5298 C   0  0  2  0  0  0  0  0  0  0  0  0
   -1.7881  -51.8424    4.9374 N   0  0  0  0  0  0  0  0  0  0  0  0
    1.0990  -48.8106   12.1869 C   0  0  2  0  0  0  0  0  0  0  0  0
    1.8010  -47.6518   12.5463 O   0  0  0  0  0  0  0  0  0  0  0  0
    2.9539  -45.7614   15.6431 C   0  0  1  0  0  0  0  0  0  0  0  0
    1.6193  -45.4570   16.0873 O   0  0  0  0  0  0  0  0  0  0  0  0
    8.3059  -48.7993   16.1019 C   0  0  1  0  0  0  0  0  0  0  0  0
    9.3572  -47.8985   16.4729 O   0  0  0  0  0  0  0  0  0  0  0  0
    3.5523  -51.3103    7.5889 C   0  0  2  0  0  0  0  0  0  0  0  0
    4.2613  -50.8119    8.7190 O   0  0  0  0  0  0  0  0  0  0  0  0
   -0.9199  -50.8341    7.0300 C   0  0  2  0  0  0  0  0  0  0  0  0
    2.1829  -49.8241   11.7484 C   0  0  2  0  0  0  0  0  0  0  0  0
    1.7293  -50.2227   10.4628 O   0  0  0  0  0  0  0  0  0  0  0  0
    3.4590  -47.0146   16.5311 C   0  0  2  0  0  0  0  0  0  0  0  0
    4.7974  -47.2707   16.0657 O   0  0  0  0  0  0  0  0  0  0  0  0
    8.2020  -49.9106   17.1719 C   0  0  2  0  0  0  0  0  0  0  0  0
    8.9117  -51.0452   16.6284 O   0  0  0  0  0  0  0  0  0  0  0  0
    2.4871  -50.2729    7.1319 C   0  0  2  0  0  0  0  0  0  0  0  0
    1.7868  -50.8206    5.9491 O   0  0  0  0  0  0  0  0  0  0  0  0
   -0.3813  -49.5491    7.7298 C   0  0  2  0  0  0  0  0  0  0  0  0
   -0.1493  -49.8754    9.1211 O   0  0  0  0  0  0  0  0  0  0  0  0
    2.2974  -51.0677   12.6230 C   0  0  0  0  0  0  0  0  0  0  0  0
    1.0564  -51.7801   12.5059 O   0  0  0  0  0  0  0  0  0  0  0  0
    2.5767  -48.1818   16.1306 C   0  0  1  0  0  0  0  0  0  0  0  0
    2.2670  -48.5472   14.7694 O   0  0  0  0  0  0  0  0  0  0  0  0
    6.7445  -50.2085   17.5131 C   0  0  2  0  0  0  0  0  0  0  0  0
    5.9467  -49.0400   17.8505 O   0  0  0  0  0  0  0  0  0  0  0  0
    3.1044  -48.9674    6.7422 C   0  0  0  0  0  0  0  0  0  0  0  0
    3.8981  -49.1845    5.6070 O   0  0  0  0  0  0  0  0  0  0  0  0
   -1.4195  -48.3775    7.5814 C   0  0  1  0  0  0  0  0  0  0  0  0
   -0.8565  -47.1723    8.2059 O   0  0  0  0  0  0  0  0  0  0  0  0
    2.9494  -49.5194   16.8630 C   0  0  0  0  0  0  0  0  0  0  0  0
    4.0892  -50.2386   16.2441 N   0  0  0  0  0  0  0  0  0  0  0  0
    6.3553  -51.2593   18.5505 C   0  0  0  0  0  0  0  0  0  0  0  0
    6.9595  -52.5479   18.2201 O   0  0  0  0  0  0  0  0  0  0  0  0
  1  2  1  1  0  0  0
  1  8  1  0  0  0  0
  1 36  1  0  0  0  0
  3  4  1  1  0  0  0
  3 10  1  0  0  0  0
  3 47  1  0  0  0  0
  5 11  1  0  0  0  0
  5 30  1  0  0  0  0
  5 38  1  6  0  0  0
  6 21  1  6  0  0  0
  6 42  1  0  0  0  0
  7 15  1  0  0  0  0
  7 44  1  0  0  0  0
  7 32  1  6  0  0  0
  8  9  1  1  0  0  0
  8 17  1  0  0  0  0
 11 12  1  6  0  0  0
 11 20  1  0  0  0  0
 13  6  1  0  0  0  0
 13 14  1  1  0  0  0
 15 16  1  1  0  0  0
 15 24  1  0  0  0  0
 17 26  1  0  0  0  0
 18 10  1  0  0  0  0
 18 19  1  1  0  0  0
 20 21  1  6  0  0  0
 20 29  1  0  0  0  0
 22 13  1  0  0  0  0
 22 23  1  1  0  0  0
 24 25  1  1  0  0  0
 24 33  1  0  0  0  0
 26 27  1  1  0  0  0
 26 35  1  0  0  0  0
 28  2  1  6  0  0  0
 28 18  1  0  0  0  0
 29 30  1  0  0  0  0
 29 39  1  1  0  0  0
 31 22  1  0  0  0  0
 31 32  1  6  0  0  0
 31 41  1  0  0  0  0
 33 34  1  6  0  0  0
 33 43  1  0  0  0  0
 35 36  1  0  0  0  0
 35 45  1  6  0  0  0
 37 28  1  0  0  0  0
 37 38  1  1  0  0  0
 39 40  1  0  0  0  0
 41 42  1  0  0  0  0
 41 49  1  6  0  0  0
 43 44  1  0  0  0  0
 43 51  1  1  0  0  0
 45 46  1  0  0  0  0
 47 37  1  0  0  0  0
 47 48  1  6  0  0  0
 49 50  1  0  0  0  0
 51 52  1  0  0  0  0
M  END
>  <CHROM.1>
168.74633807,119.15308419,171.39437597,174.46816649,133.62747799,38.69907296
63.83622846,144.59044339,65.21570778,148.40287794,-81.68025413,-54.87856705
2.71462655,-49.37754686,11.65627413,-2.28133736,-0.67039304,0.93859089

>  <Name>
2fd0_lig

>  <RI>
2.00683e+07

>  <Rbt.Current_Directory>
/home/itssahil/PROJECTS/Mol_Feturizer/New_Systems/rnas/2fd0

>  <Rbt.Executable>
rbdock ($Id: //depot/dev/client3/rdock/2013.1/src/exe/rbdock.cxx#4 $)

>  <Rbt.Library>
libRbt.so (2013.1, Build901 2013/11/27)

>  <Rbt.Parameter_File>
/export/apps/rDock/src/rDock_2013.1_src/data/scripts/dock_solv.prm

>  <Rbt.Receptor>
prm/pocket_docking_4.prm

>  <SCORE>
-10.3639

>  <SCORE.INTER>
-13.0265

>  <SCORE.INTER.CONST>
1

>  <SCORE.INTER.POLAR>
-0.555475

>  <SCORE.INTER.ROT>
12

>  <SCORE.INTER.SOLV>
13.7851

>  <SCORE.INTER.VDW>
-23.0278

>  <SCORE.INTER.norm>
-0.250509

>  <SCORE.INTRA>
2.66254

>  <SCORE.INTRA.DIHEDRAL>
3.83791

>  <SCORE.INTRA.DIHEDRAL.0>
23.9727

>  <SCORE.INTRA.POLAR>
0

>  <SCORE.INTRA.POLAR.0>
0

>  <SCORE.INTRA.REPUL>
0

>  <SCORE.INTRA.REPUL.0>
0

>  <SCORE.INTRA.SOLV>
3.86329

>  <SCORE.INTRA.SOLV.lig_0>
-115.028

>  <SCORE.INTRA.VDW>
-1.18806

>  <SCORE.INTRA.VDW.0>
-6.82393

>  <SCORE.INTRA.norm>
0.0512027

>  <SCORE.RESTR>
0

>  <SCORE.RESTR.CAVITY>
0

>  <SCORE.RESTR.norm>
0

>  <SCORE.SYSTEM>
0

>  <SCORE.SYSTEM.CONST>
0

>  <SCORE.SYSTEM.DIHEDRAL>
0

>  <SCORE.SYSTEM.SOLV>
0

>  <SCORE.SYSTEM.norm>
0

>  <SCORE.heavy>
52

>  <SCORE.norm>
-0.199307

>  <RMSD>
11.381

$$$$
2fd0_lig
 OpenBabel11021811433D
libRbt.so/2013.1/901 2013/11/27
 52 56  0  0  0  0  0  0  0  0999 V2000
   -1.4886  -50.7834    6.6937 C   0  0  2  0  0  0  0  0  0  0  0  0
   -0.3008  -51.1802    5.9947 O   0  0  0  0  0  0  0  0  0  0  0  0
    0.7210  -55.1507    7.4384 C   0  0  2  0  0  0  0  0  0  0  0  0
    1.1774  -56.5497    7.4738 N   0  0  0  0  0  0  0  0  0  0  0  0
    3.3457  -51.1591    7.3080 C   0  0  1  0  0  0  0  0  0  0  0  0
    3.8431  -48.1105   10.6810 C   0  0  1  0  0  0  0  0  0  0  0  0
    7.1552  -44.4958   12.4151 C   0  0  1  0  0  0  0  0  0  0  0  0
   -1.7194  -49.2468    6.4548 C   0  0  2  0  0  0  0  0  0  0  0  0
   -1.8100  -48.9257    5.0372 N   0  0  0  0  0  0  0  0  0  0  0  0
   -0.4793  -54.9874    6.4060 C   0  0  0  0  0  0  0  0  0  0  0  0
    2.6090  -49.9071    7.7478 C   0  0  2  0  0  0  0  0  0  0  0  0
    2.9239  -48.7591    6.9104 O   0  0  0  0  0  0  0  0  0  0  0  0
    4.0314  -46.5411   10.4336 C   0  0  2  0  0  0  0  0  0  0  0  0
    5.2528  -46.2837    9.6229 N   0  0  0  0  0  0  0  0  0  0  0  0
    7.1419  -44.1681   10.9050 C   0  0  1  0  0  0  0  0  0  0  0  0
    5.7888  -43.8369   10.5057 O   0  0  0  0  0  0  0  0  0  0  0  0
   -0.5918  -48.4070    7.1618 C   0  0  0  0  0  0  0  0  0  0  0  0
   -0.9818  -53.4655    6.3773 C   0  0  2  0  0  0  0  0  0  0  0  0
   -2.0902  -53.2868    5.4279 N   0  0  0  0  0  0  0  0  0  0  0  0
    2.9876  -49.7875    9.2144 C   0  0  2  0  0  0  0  0  0  0  0  0
    3.8825  -48.7301    9.4287 O   0  0  0  0  0  0  0  0  0  0  0  0
    3.9892  -45.8173   11.8776 C   0  0  1  0  0  0  0  0  0  0  0  0
    2.7442  -46.1629   12.5113 O   0  0  0  0  0  0  0  0  0  0  0  0
    8.0815  -43.0351   10.4106 C   0  0  1  0  0  0  0  0  0  0  0  0
    7.3343  -41.8120   10.4073 O   0  0  0  0  0  0  0  0  0  0  0  0
   -0.5589  -48.7954    8.6760 C   0  0  2  0  0  0  0  0  0  0  0  0
    0.4393  -48.0418    9.3571 O   0  0  0  0  0  0  0  0  0  0  0  0
    0.2079  -52.5435    5.9899 C   0  0  2  0  0  0  0  0  0  0  0  0
    3.7566  -51.0634    9.6332 C   0  0  2  0  0  0  0  0  0  0  0  0
    3.6228  -51.8930    8.4880 O   0  0  0  0  0  0  0  0  0  0  0  0
    5.1641  -46.3495   12.8527 C   0  0  2  0  0  0  0  0  0  0  0  0
    6.3841  -45.9679   12.1896 O   0  0  0  0  0  0  0  0  0  0  0  0
    9.3786  -42.8237   11.2250 C   0  0  2  0  0  0  0  0  0  0  0  0
   10.4176  -42.5822   10.2511 O   0  0  0  0  0  0  0  0  0  0  0  0
   -0.2611  -50.3160    8.8138 C   0  0  2  0  0  0  0  0  0  0  0  0
   -1.3274  -51.0611    8.1086 O   0  0  0  0  0  0  0  0  0  0  0  0
    1.4336  -52.7085    6.9392 C   0  0  2  0  0  0  0  0  0  0  0  0
    2.4826  -51.8379    6.4517 O   0  0  0  0  0  0  0  0  0  0  0  0
    3.1757  -51.8044   10.8323 C   0  0  0  0  0  0  0  0  0  0  0  0
    4.2162  -52.6471   11.3505 O   0  0  0  0  0  0  0  0  0  0  0  0
    5.0571  -47.8626   12.8342 C   0  0  1  0  0  0  0  0  0  0  0  0
    4.9141  -48.6606   11.6405 O   0  0  0  0  0  0  0  0  0  0  0  0
    9.6577  -44.0195   12.1316 C   0  0  2  0  0  0  0  0  0  0  0  0
    8.5390  -44.4234   12.9688 O   0  0  0  0  0  0  0  0  0  0  0  0
   -0.2515  -50.7600   10.2420 C   0  0  0  0  0  0  0  0  0  0  0  0
    0.0793  -52.1221   10.2707 O   0  0  0  0  0  0  0  0  0  0  0  0
    1.9002  -54.2100    6.9632 C   0  0  1  0  0  0  0  0  0  0  0  0
    3.0208  -54.3362    7.9054 O   0  0  0  0  0  0  0  0  0  0  0  0
    6.1591  -48.5717   13.6986 C   0  0  0  0  0  0  0  0  0  0  0  0
    5.7902  -49.9438   14.1235 N   0  0  0  0  0  0  0  0  0  0  0  0
   10.8733  -44.0682   13.0546 C   0  0  0  0  0  0  0  0  0  0  0  0
   10.7654  -43.0449   14.0917 O   0  0  0  0  0  0  0  0  0  0  0  0
  1  2  1  6  0  0  0
  1  8  1  0  0  0  0
  1 36  1  0  0  0  0
  3  4  1  6  0  0  0
  3 10  1  0  0  0  0
  3 47  1  0  0  0  0
  5 11  1  0  0  0  0
  5 30  1  0  0  0  0
  5 38  1  6  0  0  0
  6 21  1  6  0  0  0
  6 42  1  0  0  0  0
  7 15  1  0  0  0  0
  7 44  1  0  0  0  0
  7 32  1  6  0  0  0
  8  9  1  6  0  0  0
  8 17  1  0  0  0  0
 11 12  1  6  0  0  0
 11 20  1  0  0  0  0
 13  6  1  0  0  0  0
 13 14  1  1  0  0  0
 15 16  1  1  0  0  0
 15 24  1  0  0  0  0
 17 26  1  0  0  0  0
 18 10  1  0  0  0  0
 18 19  1  6  0  0  0
 20 21  1  6  0  0  0
 20 29  1  0  0  0  0
 22 13  1  0  0  0  0
 22 23  1  1  0  0  0
 24 25  1  1  0  0  0
 24 33  1  0  0  0  0
 26 27  1  1  0  0  0
 26 35  1  0  0  0  0
 28  2  1  1  0  0  0
 28 18  1  0  0  0  0
 29 30  1  0  0  0  0
 29 39  1  1  0  0  0
 31 22  1  0  0  0  0
 31 32  1  6  0  0  0
 31 41  1  0  0  0  0
 33 34  1  6  0  0  0
 33 43  1  0  0  0  0
 35 36  1  0  0  0  0
 35 45  1  1  0  0  0
 37 28  1  0  0  0  0
 37 38  1  6  0  0  0
 39 40  1  0  0  0  0
 41 42  1  0  0  0  0
 41 49  1  6  0  0  0
 43 44  1  0  0  0  0
 43 51  1  1  0  0  0
 45 46  1  0  0  0  0
 47 37  1  0  0  0  0
 47 48  1  1  0  0  0
 49 50  1  0  0  0  0
 51 52  1  0  0  0  0
M  END
>  <CHROM.1>
-179.54909814,-82.72396846,-140.61223176,-124.65587870,151.17642842,20.42098974
-160.76303192,88.98815411,-177.52771239,143.67977207,157.68025734,65.89429957
3.47688803,-48.87274041,9.56355681,2.49412177,0.64005639,3.00672824

>  <Name>
2fd0_lig

>  <RI>
3.4301e+07

>  <Rbt.Current_Directory>
/home/itssahil/PROJECTS/Mol_Feturizer/New_Systems/rnas/2fd0

>  <Rbt.Executable>
rbdock ($Id: //depot/dev/client3/rdock/2013.1/src/exe/rbdock.cxx#4 $)

>  <Rbt.Library>
libRbt.so (2013.1, Build901 2013/11/27)

>  <Rbt.Parameter_File>
/export/apps/rDock/src/rDock_2013.1_src/data/scripts/dock_solv.prm

>  <Rbt.Receptor>
prm/pocket_docking_7.prm

>  <SCORE>
-12.7457

>  <SCORE.INTER>
-16.8337

>  <SCORE.INTER.CONST>
1

>  <SCORE.INTER.POLAR>
-3.68424

>  <SCORE.INTER.ROT>
12

>  <SCORE.INTER.SOLV>
18.1165

>  <SCORE.INTER.VDW>
-16.5805

>  <SCORE.INTER.norm>
-0.323726

>  <SCORE.INTRA>
4.08799

>  <SCORE.INTRA.DIHEDRAL>
11.3673

>  <SCORE.INTRA.DIHEDRAL.0>
23.9727

>  <SCORE.INTRA.POLAR>
0

>  <SCORE.INTRA.POLAR.0>
0

>  <SCORE.INTRA.REPUL>
0

>  <SCORE.INTRA.REPUL.0>
0

>  <SCORE.INTRA.SOLV>
0.361778

>  <SCORE.INTRA.SOLV.lig_0>
-115.028

>  <SCORE.INTRA.VDW>
-1.77653

>  <SCORE.INTRA.VDW.0>
-6.82393

>  <SCORE.INTRA.norm>
0.0786152

>  <SCORE.RESTR>
0

>  <SCORE.RESTR.CAVITY>
0

>  <SCORE.RESTR.norm>
0

>  <SCORE.SYSTEM>
0

>  <SCORE.SYSTEM.CONST>
0

>  <SCORE.SYSTEM.DIHEDRAL>
0

>  <SCORE.SYSTEM.SOLV>
0

>  <SCORE.SYSTEM.norm>
0

>  <SCORE.heavy>
52

>  <SCORE.norm>
-0.24511

>  <RMSD>
11.382

$$$$
2fd0_lig
 OpenBabel11021811433D
libRbt.so/2013.1/901 2013/11/27
 52 56  0  0  0  0  0  0  0  0999 V2000
   -1.2300  -51.0968    6.0531 C   0  0  2  0  0  0  0  0  0  0  0  0
   -1.2738  -51.7881    7.3090 O   0  0  0  0  0  0  0  0  0  0  0  0
   -0.5317  -55.7511    8.9327 C   0  0  2  0  0  0  0  0  0  0  0  0
    0.0704  -57.0732    9.1706 N   0  0  0  0  0  0  0  0  0  0  0  0
    0.6506  -51.1319   10.1809 C   0  0  1  0  0  0  0  0  0  0  0  0
    1.7132  -49.7217   14.4139 C   0  0  1  0  0  0  0  0  0  0  0  0
    4.3315  -45.5650   15.0978 C   0  0  1  0  0  0  0  0  0  0  0  0
    0.1996  -50.4666    5.8788 C   0  0  2  0  0  0  0  0  0  0  0  0
    1.2497  -51.4719    5.9639 N   0  0  0  0  0  0  0  0  0  0  0  0
   -0.9647  -55.6078    7.4079 C   0  0  0  0  0  0  0  0  0  0  0  0
    1.1089  -51.6945   11.5140 C   0  0  2  0  0  0  0  0  0  0  0  0
    0.0141  -52.2861   12.2687 O   0  0  0  0  0  0  0  0  0  0  0  0
    0.8972  -48.5702   15.1674 C   0  0  2  0  0  0  0  0  0  0  0  0
    0.6978  -47.3995   14.2701 N   0  0  0  0  0  0  0  0  0  0  0  0
    3.4301  -44.3283   14.8835 C   0  0  1  0  0  0  0  0  0  0  0  0
    3.0217  -43.8123   16.1745 O   0  0  0  0  0  0  0  0  0  0  0  0
    0.4222  -49.3150    6.9281 C   0  0  0  0  0  0  0  0  0  0  0  0
   -1.6300  -54.1717    7.1538 C   0  0  2  0  0  0  0  0  0  0  0  0
   -2.0371  -54.0124    5.7500 N   0  0  0  0  0  0  0  0  0  0  0  0
    1.8029  -50.5088   12.1628 C   0  0  2  0  0  0  0  0  0  0  0  0
    1.0422  -49.9822   13.2157 O   0  0  0  0  0  0  0  0  0  0  0  0
    1.6684  -48.2614   16.5534 C   0  0  1  0  0  0  0  0  0  0  0  0
    1.7601  -49.4919   17.2941 O   0  0  0  0  0  0  0  0  0  0  0  0
    4.0153  -43.1513   14.0569 C   0  0  1  0  0  0  0  0  0  0  0  0
    4.6107  -42.2225   14.9718 O   0  0  0  0  0  0  0  0  0  0  0  0
   -0.7323  -48.2720    6.7731 C   0  0  2  0  0  0  0  0  0  0  0  0
   -0.5569  -47.2011    7.6954 O   0  0  0  0  0  0  0  0  0  0  0  0
   -0.6134  -53.0630    7.5448 C   0  0  2  0  0  0  0  0  0  0  0  0
    1.9067  -49.3664   11.1241 C   0  0  2  0  0  0  0  0  0  0  0  0
    1.4558  -49.9929    9.9318 O   0  0  0  0  0  0  0  0  0  0  0  0
    3.1856  -47.7633   16.3005 C   0  0  2  0  0  0  0  0  0  0  0  0
    3.0437  -46.5273   15.5753 O   0  0  0  0  0  0  0  0  0  0  0  0
    5.0595  -43.5290   12.9811 C   0  0  2  0  0  0  0  0  0  0  0  0
    4.7501  -42.7118   11.8309 O   0  0  0  0  0  0  0  0  0  0  0  0
   -2.0986  -48.9711    7.0262 C   0  0  2  0  0  0  0  0  0  0  0  0
   -2.2483  -50.0633    6.0392 O   0  0  0  0  0  0  0  0  0  0  0  0
   -0.1133  -53.1939    9.0157 C   0  0  2  0  0  0  0  0  0  0  0  0
    0.8537  -52.1405    9.2425 O   0  0  0  0  0  0  0  0  0  0  0  0
    3.3160  -48.8368   10.8837 C   0  0  0  0  0  0  0  0  0  0  0  0
    4.0857  -49.9202   10.3404 O   0  0  0  0  0  0  0  0  0  0  0  0
    3.8069  -48.7956   15.3786 C   0  0  1  0  0  0  0  0  0  0  0  0
    3.1804  -49.3140   14.1866 O   0  0  0  0  0  0  0  0  0  0  0  0
    5.0305  -45.0272   12.6911 C   0  0  2  0  0  0  0  0  0  0  0  0
    5.1173  -45.8772   13.8681 O   0  0  0  0  0  0  0  0  0  0  0  0
   -3.2506  -48.0321    6.8573 C   0  0  0  0  0  0  0  0  0  0  0  0
   -3.1912  -47.0830    7.8875 O   0  0  0  0  0  0  0  0  0  0  0  0
    0.5218  -54.6139    9.2462 C   0  0  1  0  0  0  0  0  0  0  0  0
    0.9333  -54.7190   10.6529 O   0  0  0  0  0  0  0  0  0  0  0  0
    5.2860  -48.4564   14.9769 C   0  0  0  0  0  0  0  0  0  0  0  0
    6.0121  -49.5954   14.3646 N   0  0  0  0  0  0  0  0  0  0  0  0
    5.9692  -45.6723   11.6739 C   0  0  0  0  0  0  0  0  0  0  0  0
    7.3598  -45.5104   12.0915 O   0  0  0  0  0  0  0  0  0  0  0  0
  1  2  1  1  0  0  0
  1  8  1  0  0  0  0
  1 36  1  0  0  0  0
  3  4  1  6  0  0  0
  3 10  1  0  0  0  0
  3 47  1  0  0  0  0
  5 11  1  0  0  0  0
  5 30  1  0  0  0  0
  5 38  1  6  0  0  0
  6 21  1  6  0  0  0
  6 42  1  0  0  0  0
  7 15  1  0  0  0  0
  7 44  1  0  0  0  0
  7 32  1  6  0  0  0
  8  9  1  1  0  0  0
  8 17  1  0  0  0  0
 11 12  1  1  0  0  0
 11 20  1  0  0  0  0
 13  6  1  0  0  0  0
 13 14  1  6  0  0  0
 15 16  1  1  0  0  0
 15 24  1  0  0  0  0
 17 26  1  0  0  0  0
 18 10  1  0  0  0  0
 18 19  1  6  0  0  0
 20 21  1  1  0  0  0
 20 29  1  0  0  0  0
 22 13  1  0  0  0  0
 22 23  1  1  0  0  0
 24 25  1  1  0  0  0
 24 33  1  0  0  0  0
 26 27  1  1  0  0  0
 26 35  1  0  0  0  0
 28  2  1  1  0  0  0
 28 18  1  0  0  0  0
 29 30  1  0  0  0  0
 29 39  1  6  0  0  0
 31 22  1  0  0  0  0
 31 32  1  6  0  0  0
 31 41  1  0  0  0  0
 33 34  1  6  0  0  0
 33 43  1  0  0  0  0
 35 36  1  0  0  0  0
 35 45  1  6  0  0  0
 37 28  1  0  0  0  0
 37 38  1  6  0  0  0
 39 40  1  0  0  0  0
 41 42  1  0  0  0  0
 41 49  1  6  0  0  0
 43 44  1  0  0  0  0
 43 51  1  6  0  0  0
 45 46  1  0  0  0  0
 47 37  1  0  0  0  0
 47 48  1  1  0  0  0
 49 50  1  0  0  0  0
 51 52  1  0  0  0  0
M  END
>  <CHROM.1>
-73.97242492,84.33857636,154.33820319,-161.77935622,132.91870338,-88.94974695
63.11935668,178.14401752,-67.42690447,117.11722606,165.72414374,62.65017175
1.61806615,-49.24197135,11.15542841,2.80568244,1.06778934,2.73515480

>  <Name>
2fd0_lig

>  <RI>
0

>  <Rbt.Current_Directory>
/home/itssahil/PROJECTS/Mol_Feturizer/New_Systems/rnas/2fd0

>  <Rbt.Executable>
rbdock ($Id: //depot/dev/client3/rdock/2013.1/src/exe/rbdock.cxx#4 $)

>  <Rbt.Library>
libRbt.so (2013.1, Build901 2013/11/27)

>  <Rbt.Parameter_File>
/export/apps/rDock/src/rDock_2013.1_src/data/scripts/dock_solv.prm

>  <Rbt.Receptor>
prm/pocket_docking_6.prm

>  <SCORE>
-15.7064

>  <SCORE.INTER>
-17.7849

>  <SCORE.INTER.CONST>
1

>  <SCORE.INTER.POLAR>
-2.92561

>  <SCORE.INTER.ROT>
12

>  <SCORE.INTER.SOLV>
17.6663

>  <SCORE.INTER.VDW>
-19.5933

>  <SCORE.INTER.norm>
-0.342017

>  <SCORE.INTRA>
2.03974

>  <SCORE.INTRA.DIHEDRAL>
3.1621

>  <SCORE.INTRA.DIHEDRAL.0>
23.9727

>  <SCORE.INTRA.POLAR>
0

>  <SCORE.INTRA.POLAR.0>
0

>  <SCORE.INTRA.REPUL>
0

>  <SCORE.INTRA.REPUL.0>
0

>  <SCORE.INTRA.SOLV>
0.359972

>  <SCORE.INTRA.SOLV.lig_0>
-115.028

>  <SCORE.INTRA.VDW>
0.278707

>  <SCORE.INTRA.VDW.0>
-6.82393

>  <SCORE.INTRA.norm>
0.0392258

>  <SCORE.RESTR>
0.0387895

>  <SCORE.RESTR.CAVITY>
0.0387895

>  <SCORE.RESTR.norm>
0.000745951

>  <SCORE.SYSTEM>
0

>  <SCORE.SYSTEM.CONST>
0

>  <SCORE.SYSTEM.DIHEDRAL>
0

>  <SCORE.SYSTEM.SOLV>
0

>  <SCORE.SYSTEM.norm>
0

>  <SCORE.heavy>
52

>  <SCORE.norm>
-0.302046

>  <RMSD>
11.389

$$$$
2fd0_lig
 OpenBabel11021811433D
libRbt.so/2013.1/901 2013/11/27
 52 56  0  0  0  0  0  0  0  0999 V2000
   -2.4077  -53.1042    6.2899 C   0  0  2  0  0  0  0  0  0  0  0  0
   -1.3937  -52.3090    5.6603 O   0  0  0  0  0  0  0  0  0  0  0  0
    1.2959  -55.2671    3.9549 C   0  0  2  0  0  0  0  0  0  0  0  0
    2.4534  -55.8802    3.2832 N   0  0  0  0  0  0  0  0  0  0  0  0
    1.9662  -52.1303    7.0871 C   0  0  1  0  0  0  0  0  0  0  0  0
    3.5114  -49.1450    9.6487 C   0  0  1  0  0  0  0  0  0  0  0  0
    5.8210  -44.6507   11.2331 C   0  0  1  0  0  0  0  0  0  0  0  0
   -3.6487  -52.1866    6.5891 C   0  0  2  0  0  0  0  0  0  0  0  0
   -4.1541  -51.5471    5.3823 N   0  0  0  0  0  0  0  0  0  0  0  0
    0.5925  -54.2136    2.9914 C   0  0  0  0  0  0  0  0  0  0  0  0
    2.0447  -51.5072    8.4688 C   0  0  2  0  0  0  0  0  0  0  0  0
    1.2314  -50.3053    8.5788 O   0  0  0  0  0  0  0  0  0  0  0  0
    3.4088  -47.6588    9.0655 C   0  0  2  0  0  0  0  0  0  0  0  0
    4.6753  -47.2776    8.3828 N   0  0  0  0  0  0  0  0  0  0  0  0
    6.2168  -45.0042   12.6843 C   0  0  1  0  0  0  0  0  0  0  0  0
    7.3829  -45.8642   12.6594 O   0  0  0  0  0  0  0  0  0  0  0  0
   -3.2909  -51.1245    7.6938 C   0  0  0  0  0  0  0  0  0  0  0  0
   -0.6740  -53.5555    3.7209 C   0  0  2  0  0  0  0  0  0  0  0  0
   -1.3412  -52.5749    2.8519 N   0  0  0  0  0  0  0  0  0  0  0  0
    3.5389  -51.3233    8.6742 C   0  0  2  0  0  0  0  0  0  0  0  0
    3.9054  -49.9727    8.5935 O   0  0  0  0  0  0  0  0  0  0  0  0
    2.9557  -46.6948   10.2805 C   0  0  1  0  0  0  0  0  0  0  0  0
    1.7170  -47.2006   10.8104 O   0  0  0  0  0  0  0  0  0  0  0  0
    6.5070  -43.8265   13.6537 C   0  0  1  0  0  0  0  0  0  0  0  0
    7.9155  -43.5637   13.6200 O   0  0  0  0  0  0  0  0  0  0  0  0
   -2.7664  -51.8803    8.9581 C   0  0  2  0  0  0  0  0  0  0  0  0
   -2.4479  -50.9528    9.9907 O   0  0  0  0  0  0  0  0  0  0  0  0
   -0.2062  -52.8728    5.0365 C   0  0  2  0  0  0  0  0  0  0  0  0
    4.2880  -52.0189    7.5126 C   0  0  2  0  0  0  0  0  0  0  0  0
    3.2405  -52.6952    6.8323 O   0  0  0  0  0  0  0  0  0  0  0  0
    4.0198  -46.7190   11.4976 C   0  0  2  0  0  0  0  0  0  0  0  0
    5.2323  -46.1910   10.9277 O   0  0  0  0  0  0  0  0  0  0  0  0
    5.7481  -42.5096   13.3700 C   0  0  2  0  0  0  0  0  0  0  0  0
    5.3455  -42.0034   14.6616 O   0  0  0  0  0  0  0  0  0  0  0  0
   -1.5039  -52.7068    8.5801 C   0  0  2  0  0  0  0  0  0  0  0  0
   -1.8810  -53.6669    7.5192 O   0  0  0  0  0  0  0  0  0  0  0  0
    0.5416  -53.8520    5.9920 C   0  0  2  0  0  0  0  0  0  0  0  0
    0.9624  -53.0933    7.1511 O   0  0  0  0  0  0  0  0  0  0  0  0
    5.3269  -53.0503    7.9386 C   0  0  0  0  0  0  0  0  0  0  0  0
    6.0127  -53.4724    6.7500 O   0  0  0  0  0  0  0  0  0  0  0  0
    4.2370  -48.1849   11.8221 C   0  0  1  0  0  0  0  0  0  0  0  0
    4.4824  -49.2148   10.8416 O   0  0  0  0  0  0  0  0  0  0  0  0
    4.5805  -42.7445   12.4154 C   0  0  2  0  0  0  0  0  0  0  0  0
    4.9250  -43.4578   11.1956 O   0  0  0  0  0  0  0  0  0  0  0  0
   -0.9723  -53.4845    9.7419 C   0  0  0  0  0  0  0  0  0  0  0  0
   -1.9690  -54.3782   10.1583 O   0  0  0  0  0  0  0  0  0  0  0  0
    1.7703  -54.4962    5.2518 C   0  0  1  0  0  0  0  0  0  0  0  0
    2.4179  -55.4495    6.1637 O   0  0  0  0  0  0  0  0  0  0  0  0
    5.2881  -48.4169   12.9648 C   0  0  0  0  0  0  0  0  0  0  0  0
    5.1750  -49.7443   13.6163 N   0  0  0  0  0  0  0  0  0  0  0  0
    3.6683  -41.6083   11.9586 C   0  0  0  0  0  0  0  0  0  0  0  0
    4.4058  -40.6734   11.1121 O   0  0  0  0  0  0  0  0  0  0  0  0
  1  2  1  1  0  0  0
  1  8  1  0  0  0  0
  1 36  1  0  0  0  0
  3  4  1  6  0  0  0
  3 10  1  0  0  0  0
  3 47  1  0  0  0  0
  5 11  1  0  0  0  0
  5 30  1  0  0  0  0
  5 38  1  1  0  0  0
  6 21  1  6  0  0  0
  6 42  1  0  0  0  0
  7 15  1  0  0  0  0
  7 44  1  0  0  0  0
  7 32  1  1  0  0  0
  8  9  1  6  0  0  0
  8 17  1  0  0  0  0
 11 12  1  6  0  0  0
 11 20  1  0  0  0  0
 13  6  1  0  0  0  0
 13 14  1  1  0  0  0
 15 16  1  6  0  0  0
 15 24  1  0  0  0  0
 17 26  1  0  0  0  0
 18 10  1  0  0  0  0
 18 19  1  6  0  0  0
 20 21  1  6  0  0  0
 20 29  1  0  0  0  0
 22 13  1  0  0  0  0
 22 23  1  1  0  0  0
 24 25  1  6  0  0  0
 24 33  1  0  0  0  0
 26 27  1  1  0  0  0
 26 35  1  0  0  0  0
 28  2  1  1  0  0  0
 28 18  1  0  0  0  0
 29 30  1  0  0  0  0
 29 39  1  1  0  0  0
 31 22  1  0  0  0  0
 31 32  1  6  0  0  0
 31 41  1  0  0  0  0
 33 34  1  1  0  0  0
 33 43  1  0  0  0  0
 35 36  1  0  0  0  0
 35 45  1  1  0  0  0
 37 28  1  0  0  0  0
 37 38  1  1  0  0  0
 39 40  1  0  0  0  0
 41 42  1  0  0  0  0
 41 49  1  1  0  0  0
 43 44  1  0  0  0  0
 43 51  1  6  0  0  0
 45 46  1  0  0  0  0
 47 37  1  0  0  0  0
 47 48  1  1  0  0  0
 49 50  1  0  0  0  0
 51 52  1  0  0  0  0
M  END
>  <CHROM.1>
-168.96990900,176.35083380,-154.07441273,71.07220930,71.05082236,72.31079976
-173.70882378,105.47074665,61.03134010,-69.82974147,159.75591956,67.33259621
2.33961862,-49.72875785,8.92035580,2.04361207,0.06559740,-2.56919455

>  <Name>
2fd0_lig

>  <RI>
3.4301e+07

>  <Rbt.Current_Directory>
/home/itssahil/PROJECTS/Mol_Feturizer/New_Systems/rnas/2fd0

>  <Rbt.Executable>
rbdock ($Id: //depot/dev/client3/rdock/2013.1/src/exe/rbdock.cxx#4 $)

>  <Rbt.Library>
libRbt.so (2013.1, Build901 2013/11/27)

>  <Rbt.Parameter_File>
/export/apps/rDock/src/rDock_2013.1_src/data/scripts/dock_solv.prm

>  <Rbt.Receptor>
prm/pocket_docking_7.prm

>  <SCORE>
-22.5077

>  <SCORE.INTER>
-16.9725

>  <SCORE.INTER.CONST>
1

>  <SCORE.INTER.POLAR>
-2.5187

>  <SCORE.INTER.ROT>
12

>  <SCORE.INTER.SOLV>
17.0176

>  <SCORE.INTER.VDW>
-20.1919

>  <SCORE.INTER.norm>
-0.326394

>  <SCORE.INTRA>
-5.53518

>  <SCORE.INTRA.DIHEDRAL>
-9.24549

>  <SCORE.INTRA.DIHEDRAL.0>
23.9727

>  <SCORE.INTRA.POLAR>
0

>  <SCORE.INTRA.POLAR.0>
0

>  <SCORE.INTRA.REPUL>
0

>  <SCORE.INTRA.REPUL.0>
0

>  <SCORE.INTRA.SOLV>
-3.39957

>  <SCORE.INTRA.SOLV.lig_0>
-115.028

>  <SCORE.INTRA.VDW>
0.787351

>  <SCORE.INTRA.VDW.0>
-6.82393

>  <SCORE.INTRA.norm>
-0.106446

>  <SCORE.RESTR>
0

>  <SCORE.RESTR.CAVITY>
0

>  <SCORE.RESTR.norm>
0

>  <SCORE.SYSTEM>
0

>  <SCORE.SYSTEM.CONST>
0

>  <SCORE.SYSTEM.DIHEDRAL>
0

>  <SCORE.SYSTEM.SOLV>
0

>  <SCORE.SYSTEM.norm>
0

>  <SCORE.heavy>
52

>  <SCORE.norm>
-0.43284

>  <RMSD>
11.421

$$$$
2fd0_lig
 OpenBabel11021811433D
libRbt.so/2013.1/901 2013/11/27
 52 56  0  0  0  0  0  0  0  0999 V2000
    0.8233  -54.5636    4.8070 C   0  0  2  0  0  0  0  0  0  0  0  0
    1.6926  -53.5236    5.2757 O   0  0  0  0  0  0  0  0  0  0  0  0
    4.0446  -55.4863    8.3593 C   0  0  2  0  0  0  0  0  0  0  0  0
    5.1153  -55.7771    9.3268 N   0  0  0  0  0  0  0  0  0  0  0  0
    2.3249  -51.3647    8.2085 C   0  0  1  0  0  0  0  0  0  0  0  0
    2.1698  -47.0597    9.7854 C   0  0  1  0  0  0  0  0  0  0  0  0
    5.5857  -43.4583   11.4740 C   0  0  1  0  0  0  0  0  0  0  0  0
   -0.2594  -53.9232    3.8640 C   0  0  2  0  0  0  0  0  0  0  0  0
    0.3467  -53.2023    2.7533 N   0  0  0  0  0  0  0  0  0  0  0  0
    4.6470  -55.3550    6.8920 C   0  0  0  0  0  0  0  0  0  0  0  0
    1.3254  -50.2416    8.4168 C   0  0  2  0  0  0  0  0  0  0  0  0
    1.0336  -49.5271    7.1830 O   0  0  0  0  0  0  0  0  0  0  0  0
    2.9171  -45.8374    9.0734 C   0  0  2  0  0  0  0  0  0  0  0  0
    4.3642  -46.1398    8.9008 N   0  0  0  0  0  0  0  0  0  0  0  0
    6.8263  -44.3662   11.3176 C   0  0  1  0  0  0  0  0  0  0  0  0
    6.9159  -44.8101    9.9410 O   0  0  0  0  0  0  0  0  0  0  0  0
   -1.2256  -52.9958    4.6902 C   0  0  0  0  0  0  0  0  0  0  0  0
    3.4780  -55.0494    5.8388 C   0  0  2  0  0  0  0  0  0  0  0  0
    4.0090  -54.9206    4.4737 N   0  0  0  0  0  0  0  0  0  0  0  0
    1.9607  -49.4230    9.5281 C   0  0  2  0  0  0  0  0  0  0  0  0
    2.4661  -48.2080    9.0455 O   0  0  0  0  0  0  0  0  0  0  0  0
    2.5810  -44.5057    9.9246 C   0  0  1  0  0  0  0  0  0  0  0  0
    1.1501  -44.3629    9.9792 O   0  0  0  0  0  0  0  0  0  0  0  0
    8.2026  -43.7728   11.7233 C   0  0  1  0  0  0  0  0  0  0  0  0
    8.8030  -43.2083   10.5507 O   0  0  0  0  0  0  0  0  0  0  0  0
   -1.8444  -53.8354    5.8551 C   0  0  2  0  0  0  0  0  0  0  0  0
   -2.7417  -53.0348    6.6180 O   0  0  0  0  0  0  0  0  0  0  0  0
    2.7475  -53.7418    6.2538 C   0  0  2  0  0  0  0  0  0  0  0  0
    3.1911  -50.1907   10.0675 C   0  0  2  0  0  0  0  0  0  0  0  0
    3.0933  -51.4389    9.3967 O   0  0  0  0  0  0  0  0  0  0  0  0
    3.0894  -44.6247   11.4549 C   0  0  2  0  0  0  0  0  0  0  0  0
    4.5204  -44.7478   11.3514 O   0  0  0  0  0  0  0  0  0  0  0  0
    8.1789  -42.6996   12.8361 C   0  0  2  0  0  0  0  0  0  0  0  0
    9.3119  -42.9894   13.6840 O   0  0  0  0  0  0  0  0  0  0  0  0
   -0.7051  -54.3716    6.7684 C   0  0  2  0  0  0  0  0  0  0  0  0
    0.1928  -55.2095    5.9430 O   0  0  0  0  0  0  0  0  0  0  0  0
    2.1877  -53.7985    7.7079 C   0  0  2  0  0  0  0  0  0  0  0  0
    1.5749  -52.5173    7.9891 O   0  0  0  0  0  0  0  0  0  0  0  0
    3.1831  -50.4521   11.5695 C   0  0  0  0  0  0  0  0  0  0  0  0
    2.0570  -51.2995   11.8431 O   0  0  0  0  0  0  0  0  0  0  0  0
    2.5280  -45.9358   11.9718 C   0  0  1  0  0  0  0  0  0  0  0  0
    2.5871  -47.1905   11.2617 O   0  0  0  0  0  0  0  0  0  0  0  0
    6.8444  -42.7073   13.5768 C   0  0  2  0  0  0  0  0  0  0  0  0
    5.6714  -42.6405   12.7193 O   0  0  0  0  0  0  0  0  0  0  0  0
   -1.2303  -55.2158    7.8858 C   0  0  0  0  0  0  0  0  0  0  0  0
   -0.1548  -55.5463    8.7224 O   0  0  0  0  0  0  0  0  0  0  0  0
    3.3478  -54.1135    8.7216 C   0  0  1  0  0  0  0  0  0  0  0  0
    2.7754  -54.2104   10.0715 O   0  0  0  0  0  0  0  0  0  0  0  0
    2.9572  -46.2539   13.4479 C   0  0  0  0  0  0  0  0  0  0  0  0
    2.1498  -45.5427   14.4685 N   0  0  0  0  0  0  0  0  0  0  0  0
    6.5481  -41.7386   14.7194 C   0  0  0  0  0  0  0  0  0  0  0  0
    7.5519  -41.8725   15.7725 O   0  0  0  0  0  0  0  0  0  0  0  0
  1  2  1  1  0  0  0
  1  8  1  0  0  0  0
  1 36  1  0  0  0  0
  3  4  1  1  0  0  0
  3 10  1  0  0  0  0
  3 47  1  0  0  0  0
  5 11  1  0  0  0  0
  5 30  1  0  0  0  0
  5 38  1  1  0  0  0
  6 21  1  6  0  0  0
  6 42  1  0  0  0  0
  7 15  1  0  0  0  0
  7 44  1  0  0  0  0
  7 32  1  1  0  0  0
  8  9  1  6  0  0  0
  8 17  1  0  0  0  0
 11 12  1  6  0  0  0
 11 20  1  0  0  0  0
 13  6  1  0  0  0  0
 13 14  1  1  0  0  0
 15 16  1  6  0  0  0
 15 24  1  0  0  0  0
 17 26  1  0  0  0  0
 18 10  1  0  0  0  0
 18 19  1  6  0  0  0
 20 21  1  6  0  0  0
 20 29  1  0  0  0  0
 22 13  1  0  0  0  0
 22 23  1  1  0  0  0
 24 25  1  6  0  0  0
 24 33  1  0  0  0  0
 26 27  1  1  0  0  0
 26 35  1  0  0  0  0
 28  2  1  6  0  0  0
 28 18  1  0  0  0  0
 29 30  1  0  0  0  0
 29 39  1  1  0  0  0
 31 22  1  0  0  0  0
 31 32  1  6  0  0  0
 31 41  1  0  0  0  0
 33 34  1  1  0  0  0
 33 43  1  0  0  0  0
 35 36  1  0  0  0  0
 35 45  1  1  0  0  0
 37 28  1  0  0  0  0
 37 38  1  1  0  0  0
 39 40  1  0  0  0  0
 41 42  1  0  0  0  0
 41 49  1  1  0  0  0
 43 44  1  0  0  0  0
 43 51  1  1  0  0  0
 45 46  1  0  0  0  0
 47 37  1  0  0  0  0
 47 48  1  1  0  0  0
 49 50  1  0  0  0  0
 51 52  1  0  0  0  0
M  END
>  <CHROM.1>
174.99686672,178.07523486,177.12442751,178.19628198,133.89928884,44.46888492
63.31678002,95.14410573,-174.48732838,-72.85439454,80.65999335,-56.86247740
3.10136437,-49.37090586,9.34305227,-1.98228188,-0.30084527,0.38995647

>  <Name>
2fd0_lig

>  <RI>
0

>  <Rbt.Current_Directory>
/home/itssahil/PROJECTS/Mol_Feturizer/New_Systems/rnas/2fd0

>  <Rbt.Executable>
rbdock ($Id: //depot/dev/client3/rdock/2013.1/src/exe/rbdock.cxx#4 $)

>  <Rbt.Library>
libRbt.so (2013.1, Build901 2013/11/27)

>  <Rbt.Parameter_File>
/export/apps/rDock/src/rDock_2013.1_src/data/scripts/dock_solv.prm

>  <Rbt.Receptor>
prm/pocket_docking_8.prm

>  <SCORE>
-13.6832

>  <SCORE.INTER>
-8.51619

>  <SCORE.INTER.CONST>
1

>  <SCORE.INTER.POLAR>
-1.85158

>  <SCORE.INTER.ROT>
12

>  <SCORE.INTER.SOLV>
18.8995

>  <SCORE.INTER.VDW>
-17.4054

>  <SCORE.INTER.norm>
-0.163773

>  <SCORE.INTRA>
-5.16698

>  <SCORE.INTRA.DIHEDRAL>
-8.56177

>  <SCORE.INTRA.DIHEDRAL.0>
23.9727

>  <SCORE.INTRA.POLAR>
0

>  <SCORE.INTRA.POLAR.0>
0

>  <SCORE.INTRA.REPUL>
0

>  <SCORE.INTRA.REPUL.0>
0

>  <SCORE.INTRA.SOLV>
-2.46321

>  <SCORE.INTRA.SOLV.lig_0>
-115.028

>  <SCORE.INTRA.VDW>
0.345511

>  <SCORE.INTRA.VDW.0>
-6.82393

>  <SCORE.INTRA.norm>
-0.099365

>  <SCORE.RESTR>
0

>  <SCORE.RESTR.CAVITY>
0

>  <SCORE.RESTR.norm>
0

>  <SCORE.SYSTEM>
0

>  <SCORE.SYSTEM.CONST>
0

>  <SCORE.SYSTEM.DIHEDRAL>
0

>  <SCORE.SYSTEM.SOLV>
0

>  <SCORE.SYSTEM.norm>
0

>  <SCORE.heavy>
52

>  <SCORE.norm>
-0.263138

>  <RMSD>
11.443

$$$$
2fd0_lig
 OpenBabel11021811433D
libRbt.so/2013.1/901 2013/11/27
 52 56  0  0  0  0  0  0  0  0999 V2000
   -2.8587  -49.4597   10.3147 C   0  0  2  0  0  0  0  0  0  0  0  0
   -1.9598  -50.5764   10.3591 O   0  0  0  0  0  0  0  0  0  0  0  0
   -0.4153  -53.6357    7.6856 C   0  0  2  0  0  0  0  0  0  0  0  0
    0.1305  -54.3016    6.4916 N   0  0  0  0  0  0  0  0  0  0  0  0
    1.8243  -50.9056   10.9316 C   0  0  1  0  0  0  0  0  0  0  0  0
    4.9348  -48.9852   13.6820 C   0  0  1  0  0  0  0  0  0  0  0  0
    8.6449  -46.0905   12.6839 C   0  0  1  0  0  0  0  0  0  0  0  0
   -2.0883  -48.2206    9.7294 C   0  0  2  0  0  0  0  0  0  0  0  0
   -1.5304  -48.5007    8.4137 N   0  0  0  0  0  0  0  0  0  0  0  0
   -1.8025  -52.9355    7.3416 C   0  0  0  0  0  0  0  0  0  0  0  0
    2.7914  -49.7410   10.8227 C   0  0  2  0  0  0  0  0  0  0  0  0
    3.9665  -50.0721   10.0305 O   0  0  0  0  0  0  0  0  0  0  0  0
    5.3033  -47.5716   13.0300 C   0  0  2  0  0  0  0  0  0  0  0  0
    6.1062  -47.7618   11.7912 N   0  0  0  0  0  0  0  0  0  0  0  0
    9.6281  -45.5518   13.7474 C   0  0  1  0  0  0  0  0  0  0  0  0
   10.8101  -46.3899   13.7652 O   0  0  0  0  0  0  0  0  0  0  0  0
   -0.9753  -47.7431   10.7342 C   0  0  0  0  0  0  0  0  0  0  0  0
   -2.4003  -52.2205    8.6458 C   0  0  2  0  0  0  0  0  0  0  0  0
   -3.6825  -51.5627    8.3541 N   0  0  0  0  0  0  0  0  0  0  0  0
    3.0470  -49.3746   12.2750 C   0  0  2  0  0  0  0  0  0  0  0  0
    4.3339  -49.7538   12.6810 O   0  0  0  0  0  0  0  0  0  0  0  0
    6.0009  -46.6774   14.1809 C   0  0  1  0  0  0  0  0  0  0  0  0
    5.0871  -46.5885   15.2891 O   0  0  0  0  0  0  0  0  0  0  0  0
   10.0867  -44.0743   13.6143 C   0  0  1  0  0  0  0  0  0  0  0  0
   11.3092  -44.0572   12.8663 O   0  0  0  0  0  0  0  0  0  0  0  0
   -1.6456  -47.4530   12.1167 C   0  0  2  0  0  0  0  0  0  0  0  0
   -0.6718  -46.9995   13.0518 O   0  0  0  0  0  0  0  0  0  0  0  0
   -1.3730  -51.1797    9.1722 C   0  0  2  0  0  0  0  0  0  0  0  0
    2.0813  -50.1889   13.1687 C   0  0  2  0  0  0  0  0  0  0  0  0
    1.2327  -50.8129   12.2158 O   0  0  0  0  0  0  0  0  0  0  0  0
    7.3464  -47.3706   14.7497 C   0  0  2  0  0  0  0  0  0  0  0  0
    8.2328  -47.4224   13.6159 O   0  0  0  0  0  0  0  0  0  0  0  0
    9.0813  -43.1078   12.9467 C   0  0  2  0  0  0  0  0  0  0  0  0
    9.1435  -41.8860   13.7147 O   0  0  0  0  0  0  0  0  0  0  0  0
   -2.3242  -48.7493   12.6449 C   0  0  2  0  0  0  0  0  0  0  0  0
   -3.3375  -49.1764   11.6548 O   0  0  0  0  0  0  0  0  0  0  0  0
    0.0231  -51.8068    9.4700 C   0  0  2  0  0  0  0  0  0  0  0  0
    0.8965  -50.7380    9.9069 O   0  0  0  0  0  0  0  0  0  0  0  0
    1.2158  -49.3587   14.1101 C   0  0  0  0  0  0  0  0  0  0  0  0
    0.4033  -50.2782   14.8554 O   0  0  0  0  0  0  0  0  0  0  0  0
    6.9515  -48.7880   15.1192 C   0  0  1  0  0  0  0  0  0  0  0  0
    6.1780  -49.6699   14.2790 O   0  0  0  0  0  0  0  0  0  0  0  0
    7.6854  -43.7226   12.8894 C   0  0  2  0  0  0  0  0  0  0  0  0
    7.6312  -45.0586   12.3171 O   0  0  0  0  0  0  0  0  0  0  0  0
   -3.0168  -48.5289   13.9521 C   0  0  0  0  0  0  0  0  0  0  0  0
   -3.3004  -49.7836   14.5097 O   0  0  0  0  0  0  0  0  0  0  0  0
    0.5833  -52.5144    8.1823 C   0  0  1  0  0  0  0  0  0  0  0  0
    1.8726  -53.1366    8.5145 O   0  0  0  0  0  0  0  0  0  0  0  0
    8.1523  -49.6452   15.6556 C   0  0  0  0  0  0  0  0  0  0  0  0
    8.4682  -49.3984   17.0834 N   0  0  0  0  0  0  0  0  0  0  0  0
    6.5014  -42.9840   12.2692 C   0  0  0  0  0  0  0  0  0  0  0  0
    5.2491  -43.6555   12.6089 O   0  0  0  0  0  0  0  0  0  0  0  0
  1  2  1  1  0  0  0
  1  8  1  0  0  0  0
  1 36  1  0  0  0  0
  3  4  1  6  0  0  0
  3 10  1  0  0  0  0
  3 47  1  0  0  0  0
  5 11  1  0  0  0  0
  5 30  1  0  0  0  0
  5 38  1  6  0  0  0
  6 21  1  6  0  0  0
  6 42  1  0  0  0  0
  7 15  1  0  0  0  0
  7 44  1  0  0  0  0
  7 32  1  1  0  0  0
  8  9  1  6  0  0  0
  8 17  1  0  0  0  0
 11 12  1  1  0  0  0
 11 20  1  0  0  0  0
 13  6  1  0  0  0  0
 13 14  1  6  0  0  0
 15 16  1  6  0  0  0
 15 24  1  0  0  0  0
 17 26  1  0  0  0  0
 18 10  1  0  0  0  0
 18 19  1  6  0  0  0
 20 21  1  1  0  0  0
 20 29  1  0  0  0  0
 22 13  1  0  0  0  0
 22 23  1  1  0  0  0
 24 25  1  6  0  0  0
 24 33  1  0  0  0  0
 26 27  1  1  0  0  0
 26 35  1  0  0  0  0
 28  2  1  1  0  0  0
 28 18  1  0  0  0  0
 29 30  1  0  0  0  0
 29 39  1  1  0  0  0
 31 22  1  0  0  0  0
 31 32  1  6  0  0  0
 31 41  1  0  0  0  0
 33 34  1  1  0  0  0
 33 43  1  0  0  0  0
 35 36  1  0  0  0  0
 35 45  1  1  0  0  0
 37 28  1  0  0  0  0
 37 38  1  6  0  0  0
 39 40  1  0  0  0  0
 41 42  1  0  0  0  0
 41 49  1  6  0  0  0
 43 44  1  0  0  0  0
 43 51  1  6  0  0  0
 45 46  1  0  0  0  0
 47 37  1  0  0  0  0
 47 48  1  1  0  0  0
 49 50  1  0  0  0  0
 51 52  1  0  0  0  0
M  END
>  <CHROM.1>
-63.79947372,164.00963841,-70.92923535,76.63829752,150.71330760,-85.58255103
-179.57398345,53.94777702,-165.39823516,140.83213954,80.80819739,-167.36962763
3.09681185,-48.55750114,12.03759346,2.56026796,0.00744435,-2.53846064

>  <Name>
2fd0_lig

>  <RI>
0

>  <Rbt.Current_Directory>
/home/itssahil/PROJECTS/Mol_Feturizer/New_Systems/rnas/2fd0

>  <Rbt.Executable>
rbdock ($Id: //depot/dev/client3/rdock/2013.1/src/exe/rbdock.cxx#4 $)

>  <Rbt.Library>
libRbt.so (2013.1, Build901 2013/11/27)

>  <Rbt.Parameter_File>
/export/apps/rDock/src/rDock_2013.1_src/data/scripts/dock_solv.prm

>  <Rbt.Receptor>
prm/pocket_docking_6.prm

>  <SCORE>
-11.4999

>  <SCORE.INTER>
-8.86893

>  <SCORE.INTER.CONST>
1

>  <SCORE.INTER.POLAR>
-1.74314

>  <SCORE.INTER.ROT>
12

>  <SCORE.INTER.SOLV>
13.7358

>  <SCORE.INTER.VDW>
-16.2807

>  <SCORE.INTER.norm>
-0.170556

>  <SCORE.INTRA>
-2.63093

>  <SCORE.INTRA.DIHEDRAL>
-5.44837

>  <SCORE.INTRA.DIHEDRAL.0>
23.9727

>  <SCORE.INTRA.POLAR>
0

>  <SCORE.INTRA.POLAR.0>
0

>  <SCORE.INTRA.REPUL>
0.128931

>  <SCORE.INTRA.REPUL.0>
0

>  <SCORE.INTRA.SOLV>
1.03714

>  <SCORE.INTRA.SOLV.lig_0>
-115.028

>  <SCORE.INTRA.VDW>
-1.06997

>  <SCORE.INTRA.VDW.0>
-6.82393

>  <SCORE.INTRA.norm>
-0.0505948

>  <SCORE.RESTR>
0

>  <SCORE.RESTR.CAVITY>
0

>  <SCORE.RESTR.norm>
0

>  <SCORE.SYSTEM>
0

>  <SCORE.SYSTEM.CONST>
0

>  <SCORE.SYSTEM.DIHEDRAL>
0

>  <SCORE.SYSTEM.SOLV>
0

>  <SCORE.SYSTEM.norm>
0

>  <SCORE.heavy>
52

>  <SCORE.norm>
-0.221151

>  <RMSD>
11.452

$$$$
2fd0_lig
 OpenBabel11021811433D
libRbt.so/2013.1/901 2013/11/27
 52 56  0  0  0  0  0  0  0  0999 V2000
   -1.4942  -51.5767    8.8313 C   0  0  2  0  0  0  0  0  0  0  0  0
   -0.9059  -50.6879    7.8717 O   0  0  0  0  0  0  0  0  0  0  0  0
    3.1646  -52.1504    7.4419 C   0  0  2  0  0  0  0  0  0  0  0  0
    4.4998  -52.4227    6.8850 N   0  0  0  0  0  0  0  0  0  0  0  0
    2.1137  -48.0158    9.0512 C   0  0  1  0  0  0  0  0  0  0  0  0
    2.8183  -44.3977   11.6041 C   0  0  1  0  0  0  0  0  0  0  0  0
    7.2729  -42.6193   13.4677 C   0  0  1  0  0  0  0  0  0  0  0  0
   -2.8645  -50.9672    9.3029 C   0  0  2  0  0  0  0  0  0  0  0  0
   -3.7656  -50.7283    8.1841 N   0  0  0  0  0  0  0  0  0  0  0  0
    2.0359  -52.7044    6.4662 C   0  0  0  0  0  0  0  0  0  0  0  0
    1.4973  -46.6324    8.9534 C   0  0  2  0  0  0  0  0  0  0  0  0
    2.0808  -45.8433    7.8786 O   0  0  0  0  0  0  0  0  0  0  0  0
    3.7846  -43.1567   11.3117 C   0  0  2  0  0  0  0  0  0  0  0  0
    5.0433  -43.6167   10.6640 N   0  0  0  0  0  0  0  0  0  0  0  0
    8.1905  -43.6313   12.7455 C   0  0  1  0  0  0  0  0  0  0  0  0
    7.8544  -43.6511   11.3360 O   0  0  0  0  0  0  0  0  0  0  0  0
   -2.6224  -49.6535   10.1346 C   0  0  0  0  0  0  0  0  0  0  0  0
    0.5834  -52.4165    7.0800 C   0  0  2  0  0  0  0  0  0  0  0  0
   -0.4791  -52.9169    6.1953 N   0  0  0  0  0  0  0  0  0  0  0  0
    1.6743  -46.0813   10.3582 C   0  0  2  0  0  0  0  0  0  0  0  0
    2.6636  -45.0891   10.3991 O   0  0  0  0  0  0  0  0  0  0  0  0
    3.9704  -42.3530   12.7012 C   0  0  1  0  0  0  0  0  0  0  0  0
    2.6644  -41.9769   13.1746 O   0  0  0  0  0  0  0  0  0  0  0  0
    9.7241  -43.4236   12.8725 C   0  0  1  0  0  0  0  0  0  0  0  0
   10.1580  -42.6416   11.7525 O   0  0  0  0  0  0  0  0  0  0  0  0
   -1.6578  -49.9863   11.3193 C   0  0  2  0  0  0  0  0  0  0  0  0
   -1.4272  -48.8241   12.1094 O   0  0  0  0  0  0  0  0  0  0  0  0
    0.4181  -50.8872    7.3020 C   0  0  2  0  0  0  0  0  0  0  0  0
    2.1962  -47.2150   11.2730 C   0  0  2  0  0  0  0  0  0  0  0  0
    2.1173  -48.3535   10.4274 O   0  0  0  0  0  0  0  0  0  0  0  0
    4.6259  -43.2816   13.8511 C   0  0  2  0  0  0  0  0  0  0  0  0
    5.9310  -43.6175   13.3435 O   0  0  0  0  0  0  0  0  0  0  0  0
   10.2128  -42.7445   14.1728 C   0  0  2  0  0  0  0  0  0  0  0  0
   11.4062  -43.4586   14.5629 O   0  0  0  0  0  0  0  0  0  0  0  0
   -0.3098  -50.5195   10.7548 C   0  0  2  0  0  0  0  0  0  0  0  0
   -0.5913  -51.7330    9.9563 O   0  0  0  0  0  0  0  0  0  0  0  0
    1.5356  -50.2842    8.2067 C   0  0  2  0  0  0  0  0  0  0  0  0
    1.2987  -48.8590    8.3004 O   0  0  0  0  0  0  0  0  0  0  0  0
    1.3549  -47.4821   12.5161 C   0  0  0  0  0  0  0  0  0  0  0  0
    2.0620  -48.4535   13.3019 O   0  0  0  0  0  0  0  0  0  0  0  0
    3.7831  -44.5424   13.8888 C   0  0  1  0  0  0  0  0  0  0  0  0
    3.3768  -45.2930   12.7253 O   0  0  0  0  0  0  0  0  0  0  0  0
    9.1207  -42.7522   15.2391 C   0  0  2  0  0  0  0  0  0  0  0  0
    7.8340  -42.2380   14.7969 O   0  0  0  0  0  0  0  0  0  0  0  0
    0.6475  -50.8913   11.8422 C   0  0  0  0  0  0  0  0  0  0  0  0
    0.0600  -51.9077   12.6086 O   0  0  0  0  0  0  0  0  0  0  0  0
    2.9510  -50.5907    7.5939 C   0  0  1  0  0  0  0  0  0  0  0  0
    3.9778  -50.0541    8.4978 O   0  0  0  0  0  0  0  0  0  0  0  0
    4.2983  -45.6006   14.9275 C   0  0  0  0  0  0  0  0  0  0  0  0
    3.3343  -46.6972   15.1873 N   0  0  0  0  0  0  0  0  0  0  0  0
    9.3340  -42.1349   16.6194 C   0  0  0  0  0  0  0  0  0  0  0  0
    8.2233  -42.4752   17.5055 O   0  0  0  0  0  0  0  0  0  0  0  0
  1  2  1  6  0  0  0
  1  8  1  0  0  0  0
  1 36  1  0  0  0  0
  3  4  1  6  0  0  0
  3 10  1  0  0  0  0
  3 47  1  0  0  0  0
  5 11  1  0  0  0  0
  5 30  1  0  0  0  0
  5 38  1  6  0  0  0
  6 21  1  6  0  0  0
  6 42  1  0  0  0  0
  7 15  1  0  0  0  0
  7 44  1  0  0  0  0
  7 32  1  1  0  0  0
  8  9  1  6  0  0  0
  8 17  1  0  0  0  0
 11 12  1  6  0  0  0
 11 20  1  0  0  0  0
 13  6  1  0  0  0  0
 13 14  1  1  0  0  0
 15 16  1  6  0  0  0
 15 24  1  0  0  0  0
 17 26  1  0  0  0  0
 18 10  1  0  0  0  0
 18 19  1  6  0  0  0
 20 21  1  6  0  0  0
 20 29  1  0  0  0  0
 22 13  1  0  0  0  0
 22 23  1  1  0  0  0
 24 25  1  6  0  0  0
 24 33  1  0  0  0  0
 26 27  1  6  0  0  0
 26 35  1  0  0  0  0
 28  2  1  1  0  0  0
 28 18  1  0  0  0  0
 29 30  1  0  0  0  0
 29 39  1  1  0  0  0
 31 22  1  0  0  0  0
 31 32  1  6  0  0  0
 31 41  1  0  0  0  0
 33 34  1  1  0  0  0
 33 43  1  0  0  0  0
 35 36  1  0  0  0  0
 35 45  1  1  0  0  0
 37 28  1  0  0  0  0
 37 38  1  6  0  0  0
 39 40  1  0  0  0  0
 41 42  1  0  0  0  0
 41 49  1  1  0  0  0
 43 44  1  0  0  0  0
 43 51  1  1  0  0  0
 45 46  1  0  0  0  0
 47 37  1  0  0  0  0
 47 48  1  1  0  0  0
 49 50  1  0  0  0  0
 51 52  1  0  0  0  0
M  END
>  <CHROM.1>
175.04434345,-177.08815628,-169.24229998,179.74543987,173.05707704,38.16037519
-174.03110520,82.46388355,60.84031705,179.33871676,167.50474956,-170.57806874
3.21853848,-47.08975113,11.18032220,2.29620581,-0.29022091,-2.30530733

>  <Name>
2fd0_lig

>  <RI>
0

>  <Rbt.Current_Directory>
/home/itssahil/PROJECTS/Mol_Feturizer/New_Systems/rnas/2fd0

>  <Rbt.Executable>
rbdock ($Id: //depot/dev/client3/rdock/2013.1/src/exe/rbdock.cxx#4 $)

>  <Rbt.Library>
libRbt.so (2013.1, Build901 2013/11/27)

>  <Rbt.Parameter_File>
/export/apps/rDock/src/rDock_2013.1_src/data/scripts/dock_solv.prm

>  <Rbt.Receptor>
prm/pocket_docking_6.prm

>  <SCORE>
-14.9871

>  <SCORE.INTER>
-7.55621

>  <SCORE.INTER.CONST>
1

>  <SCORE.INTER.POLAR>
-1.76872

>  <SCORE.INTER.ROT>
12

>  <SCORE.INTER.SOLV>
9.60556

>  <SCORE.INTER.VDW>
-13.9436

>  <SCORE.INTER.norm>
-0.145312

>  <SCORE.INTRA>
-7.43092

>  <SCORE.INTRA.DIHEDRAL>
-16.2683

>  <SCORE.INTRA.DIHEDRAL.0>
23.9727

>  <SCORE.INTRA.POLAR>
0

>  <SCORE.INTRA.POLAR.0>
0

>  <SCORE.INTRA.REPUL>
0

>  <SCORE.INTRA.REPUL.0>
0

>  <SCORE.INTRA.SOLV>
0.381454

>  <SCORE.INTRA.SOLV.lig_0>
-115.028

>  <SCORE.INTRA.VDW>
0.512527

>  <SCORE.INTRA.VDW.0>
-6.82393

>  <SCORE.INTRA.norm>
-0.142902

>  <SCORE.RESTR>
0

>  <SCORE.RESTR.CAVITY>
0

>  <SCORE.RESTR.norm>
0

>  <SCORE.SYSTEM>
0

>  <SCORE.SYSTEM.CONST>
0

>  <SCORE.SYSTEM.DIHEDRAL>
0

>  <SCORE.SYSTEM.SOLV>
0

>  <SCORE.SYSTEM.norm>
0

>  <SCORE.heavy>
52

>  <SCORE.norm>
-0.288214

>  <RMSD>
11.455

$$$$
2fd0_lig
 OpenBabel11021811433D
libRbt.so/2013.1/901 2013/11/27
 52 56  0  0  0  0  0  0  0  0999 V2000
   -0.2699  -52.5801    8.9361 C   0  0  2  0  0  0  0  0  0  0  0  0
   -0.0735  -51.1713    9.1198 O   0  0  0  0  0  0  0  0  0  0  0  0
    2.7519  -50.0231    6.0228 C   0  0  2  0  0  0  0  0  0  0  0  0
    3.4737  -49.2295    5.0148 N   0  0  0  0  0  0  0  0  0  0  0  0
    3.4328  -49.1226   10.3809 C   0  0  1  0  0  0  0  0  0  0  0  0
    5.2076  -45.6185   12.6719 C   0  0  1  0  0  0  0  0  0  0  0  0
    8.8883  -42.1950   12.0033 C   0  0  1  0  0  0  0  0  0  0  0  0
   -0.6317  -53.2198   10.3258 C   0  0  2  0  0  0  0  0  0  0  0  0
   -1.8063  -52.5971   10.9203 N   0  0  0  0  0  0  0  0  0  0  0  0
    1.2005  -50.0815    5.6724 C   0  0  0  0  0  0  0  0  0  0  0  0
    3.2044  -47.6771   10.7834 C   0  0  2  0  0  0  0  0  0  0  0  0
    3.6035  -46.7444    9.7399 O   0  0  0  0  0  0  0  0  0  0  0  0
    4.8686  -44.4396   11.6449 C   0  0  2  0  0  0  0  0  0  0  0  0
    5.7377  -44.5313   10.4400 N   0  0  0  0  0  0  0  0  0  0  0  0
    9.0411  -42.2174   10.4658 C   0  0  1  0  0  0  0  0  0  0  0  0
    8.2966  -41.1098    9.9012 O   0  0  0  0  0  0  0  0  0  0  0  0
    0.6048  -53.1554   11.2971 C   0  0  0  0  0  0  0  0  0  0  0  0
    0.4185  -50.9553    6.7652 C   0  0  2  0  0  0  0  0  0  0  0  0
   -1.0194  -51.0229    6.4657 N   0  0  0  0  0  0  0  0  0  0  0  0
    3.9558  -47.5680   12.0994 C   0  0  2  0  0  0  0  0  0  0  0  0
    5.1315  -46.8179   11.9582 O   0  0  0  0  0  0  0  0  0  0  0  0
    4.9567  -43.0485   12.4623 C   0  0  1  0  0  0  0  0  0  0  0  0
    4.0500  -43.1302   13.5768 O   0  0  0  0  0  0  0  0  0  0  0  0
   10.4822  -42.1732    9.8895 C   0  0  1  0  0  0  0  0  0  0  0  0
   10.8129  -40.8026    9.6320 O   0  0  0  0  0  0  0  0  0  0  0  0
    1.8207  -53.8481   10.5997 C   0  0  2  0  0  0  0  0  0  0  0  0
    2.9584  -53.8269   11.4561 O   0  0  0  0  0  0  0  0  0  0  0  0
    0.6430  -50.3323    8.1713 C   0  0  2  0  0  0  0  0  0  0  0  0
    4.4226  -48.9814   12.5221 C   0  0  2  0  0  0  0  0  0  0  0  0
    3.7830  -49.8152   11.5664 O   0  0  0  0  0  0  0  0  0  0  0  0
    6.4293  -42.8079   13.0849 C   0  0  2  0  0  0  0  0  0  0  0  0
    7.2955  -42.7158   11.9382 O   0  0  0  0  0  0  0  0  0  0  0  0
   11.5877  -42.7940   10.7744 C   0  0  2  0  0  0  0  0  0  0  0  0
   12.4504  -43.5202    9.8717 O   0  0  0  0  0  0  0  0  0  0  0  0
    2.1445  -53.1088    9.2699 C   0  0  2  0  0  0  0  0  0  0  0  0
    0.9456  -53.1681    8.4048 O   0  0  0  0  0  0  0  0  0  0  0  0
    2.1524  -50.1998    8.5388 C   0  0  2  0  0  0  0  0  0  0  0  0
    2.2302  -49.5707    9.8405 O   0  0  0  0  0  0  0  0  0  0  0  0
    3.9793  -49.4199   13.9134 C   0  0  0  0  0  0  0  0  0  0  0  0
    4.8992  -50.4327   14.3484 O   0  0  0  0  0  0  0  0  0  0  0  0
    6.7654  -44.0781   13.8433 C   0  0  1  0  0  0  0  0  0  0  0  0
    6.5856  -45.4137   13.3276 O   0  0  0  0  0  0  0  0  0  0  0  0
   10.9853  -43.6634   11.8748 C   0  0  2  0  0  0  0  0  0  0  0  0
    9.9457  -43.0176   12.6608 O   0  0  0  0  0  0  0  0  0  0  0  0
    3.2797  -53.7465    8.5339 C   0  0  0  0  0  0  0  0  0  0  0  0
    3.5387  -52.9809    7.3882 O   0  0  0  0  0  0  0  0  0  0  0  0
    2.9021  -49.3521    7.4470 C   0  0  1  0  0  0  0  0  0  0  0  0
    4.3276  -49.2927    7.7988 O   0  0  0  0  0  0  0  0  0  0  0  0
    8.1960  -44.0532   14.4893 C   0  0  0  0  0  0  0  0  0  0  0  0
    8.5247  -45.2808   15.2537 N   0  0  0  0  0  0  0  0  0  0  0  0
   11.8548  -44.3890   12.8992 C   0  0  0  0  0  0  0  0  0  0  0  0
   12.4882  -43.4286   13.7996 O   0  0  0  0  0  0  0  0  0  0  0  0
  1  2  1  1  0  0  0
  1  8  1  0  0  0  0
  1 36  1  0  0  0  0
  3  4  1  6  0  0  0
  3 10  1  0  0  0  0
  3 47  1  0  0  0  0
  5 11  1  0  0  0  0
  5 30  1  0  0  0  0
  5 38  1  1  0  0  0
  6 21  1  6  0  0  0
  6 42  1  0  0  0  0
  7 15  1  0  0  0  0
  7 44  1  0  0  0  0
  7 32  1  6  0  0  0
  8  9  1  1  0  0  0
  8 17  1  0  0  0  0
 11 12  1  6  0  0  0
 11 20  1  0  0  0  0
 13  6  1  0  0  0  0
 13 14  1  6  0  0  0
 15 16  1  6  0  0  0
 15 24  1  0  0  0  0
 17 26  1  0  0  0  0
 18 10  1  0  0  0  0
 18 19  1  6  0  0  0
 20 21  1  6  0  0  0
 20 29  1  0  0  0  0
 22 13  1  0  0  0  0
 22 23  1  1  0  0  0
 24 25  1  1  0  0  0
 24 33  1  0  0  0  0
 26 27  1  1  0  0  0
 26 35  1  0  0  0  0
 28  2  1  1  0  0  0
 28 18  1  0  0  0  0
 29 30  1  0  0  0  0
 29 39  1  1  0  0  0
 31 22  1  0  0  0  0
 31 32  1  6  0  0  0
 31 41  1  0  0  0  0
 33 34  1  6  0  0  0
 33 43  1  0  0  0  0
 35 36  1  0  0  0  0
 35 45  1  6  0  0  0
 37 28  1  0  0  0  0
 37 38  1  1  0  0  0
 39 40  1  0  0  0  0
 41 42  1  0  0  0  0
 41 49  1  6  0  0  0
 43 44  1  0  0  0  0
 43 51  1  1  0  0  0
 45 46  1  0  0  0  0
 47 37  1  0  0  0  0
 47 48  1  1  0  0  0
 49 50  1  0  0  0  0
 51 52  1  0  0  0  0
M  END
>  <CHROM.1>
161.17689490,127.57641988,-100.02938414,-173.79430413,116.09735453,30.70401430
-156.85201827,168.48959255,-177.29485459,-170.20650268,178.95892151,68.96763894
4.92377800,-47.56641538,10.63068413,2.98134363,-0.84460950,-1.44664971

>  <Name>
2fd0_lig

>  <RI>
0

>  <Rbt.Current_Directory>
/home/itssahil/PROJECTS/Mol_Feturizer/New_Systems/rnas/2fd0

>  <Rbt.Executable>
rbdock ($Id: //depot/dev/client3/rdock/2013.1/src/exe/rbdock.cxx#4 $)

>  <Rbt.Library>
libRbt.so (2013.1, Build901 2013/11/27)

>  <Rbt.Parameter_File>
/export/apps/rDock/src/rDock_2013.1_src/data/scripts/dock_solv.prm

>  <Rbt.Receptor>
prm/pocket_docking_6.prm

>  <SCORE>
-7.64074

>  <SCORE.INTER>
-11.4781

>  <SCORE.INTER.CONST>
1

>  <SCORE.INTER.POLAR>
-2.1533

>  <SCORE.INTER.ROT>
12

>  <SCORE.INTER.SOLV>
24.29

>  <SCORE.INTER.VDW>
-20.1711

>  <SCORE.INTER.norm>
-0.220733

>  <SCORE.INTRA>
3.83737

>  <SCORE.INTRA.DIHEDRAL>
5.24907

>  <SCORE.INTRA.DIHEDRAL.0>
23.9727

>  <SCORE.INTRA.POLAR>
0

>  <SCORE.INTRA.POLAR.0>
0

>  <SCORE.INTRA.REPUL>
0

>  <SCORE.INTRA.REPUL.0>
0

>  <SCORE.INTRA.SOLV>
-1.01905

>  <SCORE.INTRA.SOLV.lig_0>
-115.028

>  <SCORE.INTRA.VDW>
1.72236

>  <SCORE.INTRA.VDW.0>
-6.82393

>  <SCORE.INTRA.norm>
0.0737956

>  <SCORE.RESTR>
0

>  <SCORE.RESTR.CAVITY>
0

>  <SCORE.RESTR.norm>
0

>  <SCORE.SYSTEM>
0

>  <SCORE.SYSTEM.CONST>
0

>  <SCORE.SYSTEM.DIHEDRAL>
0

>  <SCORE.SYSTEM.SOLV>
0

>  <SCORE.SYSTEM.norm>
0

>  <SCORE.heavy>
52

>  <SCORE.norm>
-0.146937

>  <RMSD>
11.465

$$$$
2fd0_lig
 OpenBabel11021811433D
libRbt.so/2013.1/901 2013/11/27
 52 56  0  0  0  0  0  0  0  0999 V2000
   -2.3402  -50.7105    9.1151 C   0  0  2  0  0  0  0  0  0  0  0  0
   -2.5606  -51.6881    8.0892 O   0  0  0  0  0  0  0  0  0  0  0  0
   -0.3762  -55.3038    7.0655 C   0  0  2  0  0  0  0  0  0  0  0  0
    0.6359  -56.2124    6.5023 N   0  0  0  0  0  0  0  0  0  0  0  0
    0.7748  -51.4016    9.0872 C   0  0  1  0  0  0  0  0  0  0  0  0
    3.4050  -48.3445   10.7732 C   0  0  1  0  0  0  0  0  0  0  0  0
    7.1258  -44.8438   10.7746 C   0  0  1  0  0  0  0  0  0  0  0  0
   -3.7168  -50.0395    9.4704 C   0  0  2  0  0  0  0  0  0  0  0  0
   -4.7088  -51.0225    9.8834 N   0  0  0  0  0  0  0  0  0  0  0  0
   -1.0715  -54.4647    5.9055 C   0  0  0  0  0  0  0  0  0  0  0  0
    1.3043  -50.6802   10.3131 C   0  0  2  0  0  0  0  0  0  0  0  0
    0.5682  -49.4564   10.5936 O   0  0  0  0  0  0  0  0  0  0  0  0
    3.6441  -46.8801   10.1751 C   0  0  2  0  0  0  0  0  0  0  0  0
    4.6491  -46.9223    9.0780 N   0  0  0  0  0  0  0  0  0  0  0  0
    7.8229  -44.6966   12.1457 C   0  0  1  0  0  0  0  0  0  0  0  0
    8.8956  -45.6666   12.2365 O   0  0  0  0  0  0  0  0  0  0  0  0
   -4.2341  -49.1766    8.2604 C   0  0  0  0  0  0  0  0  0  0  0  0
   -2.1808  -53.4842    6.5199 C   0  0  2  0  0  0  0  0  0  0  0  0
   -2.8374  -52.6944    5.4678 N   0  0  0  0  0  0  0  0  0  0  0  0
    2.7812  -50.5135    9.9978 C   0  0  2  0  0  0  0  0  0  0  0  0
    3.0945  -49.1808    9.6971 O   0  0  0  0  0  0  0  0  0  0  0  0
    4.0060  -45.9071   11.4134 C   0  0  1  0  0  0  0  0  0  0  0  0
    2.9289  -45.9801   12.3649 O   0  0  0  0  0  0  0  0  0  0  0  0
    8.4021  -43.3021   12.5077 C   0  0  1  0  0  0  0  0  0  0  0  0
    9.7784  -43.2785   12.1085 O   0  0  0  0  0  0  0  0  0  0  0  0
   -3.1261  -48.1414    7.8791 C   0  0  2  0  0  0  0  0  0  0  0  0
   -3.5639  -47.3263    6.7965 O   0  0  0  0  0  0  0  0  0  0  0  0
   -1.5088  -52.5406    7.5561 C   0  0  2  0  0  0  0  0  0  0  0  0
    3.1059  -51.3087    8.7107 C   0  0  2  0  0  0  0  0  0  0  0  0
    1.8950  -52.0108    8.4692 O   0  0  0  0  0  0  0  0  0  0  0  0
    5.3388  -46.3913   12.1902 C   0  0  2  0  0  0  0  0  0  0  0  0
    6.3873  -46.2855   11.2088 O   0  0  0  0  0  0  0  0  0  0  0  0
    7.6821  -42.0842   11.8840 C   0  0  2  0  0  0  0  0  0  0  0  0
    7.6210  -41.0882   12.9285 O   0  0  0  0  0  0  0  0  0  0  0  0
   -1.8262  -48.8975    7.4814 C   0  0  2  0  0  0  0  0  0  0  0  0
   -1.3971  -49.7173    8.6361 O   0  0  0  0  0  0  0  0  0  0  0  0
   -0.7630  -53.3162    8.6844 C   0  0  2  0  0  0  0  0  0  0  0  0
   -0.1469  -52.3356    9.5532 O   0  0  0  0  0  0  0  0  0  0  0  0
    4.2317  -52.3278    8.8466 C   0  0  0  0  0  0  0  0  0  0  0  0
    4.4573  -52.8821    7.5416 O   0  0  0  0  0  0  0  0  0  0  0  0
    5.1184  -47.8588   12.5053 C   0  0  1  0  0  0  0  0  0  0  0  0
    4.6322  -48.8366   11.5621 O   0  0  0  0  0  0  0  0  0  0  0  0
    6.3134  -42.4783   11.3354 C   0  0  2  0  0  0  0  0  0  0  0  0
    6.3218  -43.6299   10.4471 O   0  0  0  0  0  0  0  0  0  0  0  0
   -0.7125  -47.9598    7.1388 C   0  0  0  0  0  0  0  0  0  0  0  0
   -0.3834  -47.2367    8.2940 O   0  0  0  0  0  0  0  0  0  0  0  0
    0.3090  -54.2816    8.0589 C   0  0  1  0  0  0  0  0  0  0  0  0
    0.9535  -55.0315    9.1459 O   0  0  0  0  0  0  0  0  0  0  0  0
    6.3407  -48.5269   13.2291 C   0  0  0  0  0  0  0  0  0  0  0  0
    6.4911  -48.1146   14.6457 N   0  0  0  0  0  0  0  0  0  0  0  0
    5.3934  -41.4672   10.6548 C   0  0  0  0  0  0  0  0  0  0  0  0
    4.0588  -42.0343   10.4761 O   0  0  0  0  0  0  0  0  0  0  0  0
  1  2  1  6  0  0  0
  1  8  1  0  0  0  0
  1 36  1  0  0  0  0
  3  4  1  6  0  0  0
  3 10  1  0  0  0  0
  3 47  1  0  0  0  0
  5 11  1  0  0  0  0
  5 30  1  0  0  0  0
  5 38  1  1  0  0  0
  6 21  1  6  0  0  0
  6 42  1  0  0  0  0
  7 15  1  0  0  0  0
  7 44  1  0  0  0  0
  7 32  1  1  0  0  0
  8  9  1  6  0  0  0
  8 17  1  0  0  0  0
 11 12  1  6  0  0  0
 11 20  1  0  0  0  0
 13  6  1  0  0  0  0
 13 14  1  6  0  0  0
 15 16  1  6  0  0  0
 15 24  1  0  0  0  0
 17 26  1  0  0  0  0
 18 10  1  0  0  0  0
 18 19  1  6  0  0  0
 20 21  1  6  0  0  0
 20 29  1  0  0  0  0
 22 13  1  0  0  0  0
 22 23  1  1  0  0  0
 24 25  1  6  0  0  0
 24 33  1  0  0  0  0
 26 27  1  6  0  0  0
 26 35  1  0  0  0  0
 28  2  1  1  0  0  0
 28 18  1  0  0  0  0
 29 30  1  0  0  0  0
 29 39  1  1  0  0  0
 31 22  1  0  0  0  0
 31 32  1  6  0  0  0
 31 41  1  0  0  0  0
 33 34  1  1  0  0  0
 33 43  1  0  0  0  0
 35 36  1  0  0  0  0
 35 45  1  1  0  0  0
 37 28  1  0  0  0  0
 37 38  1  1  0  0  0
 39 40  1  0  0  0  0
 41 42  1  0  0  0  0
 41 49  1  6  0  0  0
 43 44  1  0  0  0  0
 43 51  1  6  0  0  0
 45 46  1  0  0  0  0
 47 37  1  0  0  0  0
 47 48  1  1  0  0  0
 49 50  1  0  0  0  0
 51 52  1  0  0  0  0
M  END
>  <CHROM.1>
-177.44402454,-173.30834514,-177.07359890,68.90762008,86.95333382,177.64415867
-175.51774795,78.54143223,64.33944489,-58.54757831,73.19615096,-168.41064439
2.32359056,-48.72812822,9.73039683,2.36141499,0.32555907,-2.99009050

>  <Name>
2fd0_lig

>  <RI>
0

>  <Rbt.Current_Directory>
/home/itssahil/PROJECTS/Mol_Feturizer/New_Systems/rnas/2fd0

>  <Rbt.Executable>
rbdock ($Id: //depot/dev/client3/rdock/2013.1/src/exe/rbdock.cxx#4 $)

>  <Rbt.Library>
libRbt.so (2013.1, Build901 2013/11/27)

>  <Rbt.Parameter_File>
/export/apps/rDock/src/rDock_2013.1_src/data/scripts/dock_solv.prm

>  <Rbt.Receptor>
prm/pocket_docking_5.prm

>  <SCORE>
-17.712

>  <SCORE.INTER>
-8.27214

>  <SCORE.INTER.CONST>
1

>  <SCORE.INTER.POLAR>
-1.3961

>  <SCORE.INTER.ROT>
12

>  <SCORE.INTER.SOLV>
15.139

>  <SCORE.INTER.VDW>
-17.5074

>  <SCORE.INTER.norm>
-0.15908

>  <SCORE.INTRA>
-9.46626

>  <SCORE.INTRA.DIHEDRAL>
-16.1291

>  <SCORE.INTRA.DIHEDRAL.0>
23.9727

>  <SCORE.INTRA.POLAR>
0

>  <SCORE.INTRA.POLAR.0>
0

>  <SCORE.INTRA.REPUL>
0

>  <SCORE.INTRA.REPUL.0>
0

>  <SCORE.INTRA.SOLV>
-3.79858

>  <SCORE.INTRA.SOLV.lig_0>
-115.028

>  <SCORE.INTRA.VDW>
0.497608

>  <SCORE.INTRA.VDW.0>
-6.82393

>  <SCORE.INTRA.norm>
-0.182043

>  <SCORE.RESTR>
0.0264267

>  <SCORE.RESTR.CAVITY>
0.0264267

>  <SCORE.RESTR.norm>
0.000508206

>  <SCORE.SYSTEM>
0

>  <SCORE.SYSTEM.CONST>
0

>  <SCORE.SYSTEM.DIHEDRAL>
0

>  <SCORE.SYSTEM.SOLV>
0

>  <SCORE.SYSTEM.norm>
0

>  <SCORE.heavy>
52

>  <SCORE.norm>
-0.340615

>  <RMSD>
11.500

$$$$
2fd0_lig
 OpenBabel11021811433D
libRbt.so/2013.1/901 2013/11/27
 52 56  0  0  0  0  0  0  0  0999 V2000
   -0.5183  -49.1088    6.4849 C   0  0  2  0  0  0  0  0  0  0  0  0
   -0.8863  -50.1106    7.4430 O   0  0  0  0  0  0  0  0  0  0  0  0
    0.6760  -54.0676    8.3340 C   0  0  2  0  0  0  0  0  0  0  0  0
    1.5814  -55.1508    8.7509 N   0  0  0  0  0  0  0  0  0  0  0  0
    0.1318  -49.9640   10.4755 C   0  0  1  0  0  0  0  0  0  0  0  0
    2.3503  -47.4211   13.5334 C   0  0  1  0  0  0  0  0  0  0  0  0
    5.1270  -43.4246   12.9409 C   0  0  1  0  0  0  0  0  0  0  0  0
    0.4595  -48.0905    7.1768 C   0  0  2  0  0  0  0  0  0  0  0  0
    1.6350  -48.7535    7.7239 N   0  0  0  0  0  0  0  0  0  0  0  0
    1.3305  -53.2246    7.1533 C   0  0  0  0  0  0  0  0  0  0  0  0
   -0.2235  -49.4461   11.8572 C   0  0  2  0  0  0  0  0  0  0  0  0
   -1.1298  -48.3086   11.8035 O   0  0  0  0  0  0  0  0  0  0  0  0
    2.2800  -45.8259   13.6331 C   0  0  2  0  0  0  0  0  0  0  0  0
    2.4199  -45.2122   12.2844 N   0  0  0  0  0  0  0  0  0  0  0  0
    5.8676  -43.4556   11.5851 C   0  0  1  0  0  0  0  0  0  0  0  0
    4.9569  -43.9247   10.5602 O   0  0  0  0  0  0  0  0  0  0  0  0
   -0.2999  -47.2662    8.2814 C   0  0  0  0  0  0  0  0  0  0  0  0
    0.3383  -52.0526    6.6936 C   0  0  2  0  0  0  0  0  0  0  0  0
    0.9211  -51.2559    5.6039 N   0  0  0  0  0  0  0  0  0  0  0  0
    1.1365  -49.1871   12.4831 C   0  0  2  0  0  0  0  0  0  0  0  0
    1.4010  -47.8144   12.5857 O   0  0  0  0  0  0  0  0  0  0  0  0
    3.3767  -45.3628   14.7257 C   0  0  1  0  0  0  0  0  0  0  0  0
    3.0842  -46.0383   15.9623 O   0  0  0  0  0  0  0  0  0  0  0  0
    6.5094  -42.1311   11.0902 C   0  0  1  0  0  0  0  0  0  0  0  0
    5.5580  -41.4670   10.2487 O   0  0  0  0  0  0  0  0  0  0  0  0
   -1.5394  -46.5773    7.6227 C   0  0  2  0  0  0  0  0  0  0  0  0
   -2.2453  -45.8042    8.5883 O   0  0  0  0  0  0  0  0  0  0  0  0
    0.0258  -51.1419    7.9137 C   0  0  2  0  0  0  0  0  0  0  0  0
    2.2300  -49.7434   11.5400 C   0  0  2  0  0  0  0  0  0  0  0  0
    1.4682  -50.4281   10.5559 O   0  0  0  0  0  0  0  0  0  0  0  0
    4.8729  -45.8064   14.3028 C   0  0  2  0  0  0  0  0  0  0  0  0
    5.1268  -45.0962   13.0760 O   0  0  0  0  0  0  0  0  0  0  0  0
    6.9730  -41.1479   12.1897 C   0  0  2  0  0  0  0  0  0  0  0  0
    8.2408  -40.6239   11.7374 O   0  0  0  0  0  0  0  0  0  0  0  0
   -2.4781  -47.6638    7.0245 C   0  0  2  0  0  0  0  0  0  0  0  0
   -1.7130  -48.4313    6.0170 O   0  0  0  0  0  0  0  0  0  0  0  0
   -0.5652  -51.9319    9.1210 C   0  0  2  0  0  0  0  0  0  0  0  0
   -0.7698  -50.9890   10.2004 O   0  0  0  0  0  0  0  0  0  0  0  0
    3.1911  -50.7388   12.1802 C   0  0  0  0  0  0  0  0  0  0  0  0
    4.1224  -51.1381   11.1631 O   0  0  0  0  0  0  0  0  0  0  0  0
    4.7880  -47.2892   13.9938 C   0  0  1  0  0  0  0  0  0  0  0  0
    3.7690  -47.8997   13.1746 O   0  0  0  0  0  0  0  0  0  0  0  0
    7.0481  -41.8401   13.5479 C   0  0  2  0  0  0  0  0  0  0  0  0
    5.8476  -42.5681   13.9278 O   0  0  0  0  0  0  0  0  0  0  0  0
   -3.6694  -47.0660    6.3458 C   0  0  0  0  0  0  0  0  0  0  0  0
   -3.2151  -46.3213    5.2482 O   0  0  0  0  0  0  0  0  0  0  0  0
    0.4168  -53.0844    9.5454 C   0  0  1  0  0  0  0  0  0  0  0  0
   -0.1955  -53.8375   10.6488 O   0  0  0  0  0  0  0  0  0  0  0  0
    6.1519  -47.9006   13.5140 C   0  0  0  0  0  0  0  0  0  0  0  0
    7.1088  -48.1588   14.6173 N   0  0  0  0  0  0  0  0  0  0  0  0
    7.4696  -41.0956   14.8128 C   0  0  0  0  0  0  0  0  0  0  0  0
    6.5412  -40.0027   15.0925 O   0  0  0  0  0  0  0  0  0  0  0  0
  1  2  1  1  0  0  0
  1  8  1  0  0  0  0
  1 36  1  0  0  0  0
  3  4  1  1  0  0  0
  3 10  1  0  0  0  0
  3 47  1  0  0  0  0
  5 11  1  0  0  0  0
  5 30  1  0  0  0  0
  5 38  1  1  0  0  0
  6 21  1  6  0  0  0
  6 42  1  0  0  0  0
  7 15  1  0  0  0  0
  7 44  1  0  0  0  0
  7 32  1  1  0  0  0
  8  9  1  1  0  0  0
  8 17  1  0  0  0  0
 11 12  1  6  0  0  0
 11 20  1  0  0  0  0
 13  6  1  0  0  0  0
 13 14  1  6  0  0  0
 15 16  1  6  0  0  0
 15 24  1  0  0  0  0
 17 26  1  0  0  0  0
 18 10  1  0  0  0  0
 18 19  1  6  0  0  0
 20 21  1  6  0  0  0
 20 29  1  0  0  0  0
 22 13  1  0  0  0  0
 22 23  1  1  0  0  0
 24 25  1  6  0  0  0
 24 33  1  0  0  0  0
 26 27  1  1  0  0  0
 26 35  1  0  0  0  0
 28  2  1  6  0  0  0
 28 18  1  0  0  0  0
 29 30  1  0  0  0  0
 29 39  1  1  0  0  0
 31 22  1  0  0  0  0
 31 32  1  6  0  0  0
 31 41  1  0  0  0  0
 33 34  1  6  0  0  0
 33 43  1  0  0  0  0
 35 36  1  0  0  0  0
 35 45  1  6  0  0  0
 37 28  1  0  0  0  0
 37 38  1  1  0  0  0
 39 40  1  0  0  0  0
 41 42  1  0  0  0  0
 41 49  1  6  0  0  0
 43 44  1  0  0  0  0
 43 51  1  1  0  0  0
 45 46  1  0  0  0  0
 47 37  1  0  0  0  0
 47 48  1  1  0  0  0
 49 50  1  0  0  0  0
 51 52  1  0  0  0  0
M  END
>  <CHROM.1>
-71.72775680,-165.28796508,-170.24507774,163.60712479,158.02543744,-66.02949486
-179.97490725,60.67395290,64.31927635,-38.96160243,77.95819755,61.09572108
2.25344590,-47.50271317,10.72579674,2.56019533,0.82300236,2.90029909

>  <Name>
2fd0_lig

>  <RI>
0

>  <Rbt.Current_Directory>
/home/itssahil/PROJECTS/Mol_Feturizer/New_Systems/rnas/2fd0

>  <Rbt.Executable>
rbdock ($Id: //depot/dev/client3/rdock/2013.1/src/exe/rbdock.cxx#4 $)

>  <Rbt.Library>
libRbt.so (2013.1, Build901 2013/11/27)

>  <Rbt.Parameter_File>
/export/apps/rDock/src/rDock_2013.1_src/data/scripts/dock_solv.prm

>  <Rbt.Receptor>
prm/pocket_docking_6.prm

>  <SCORE>
-11.9694

>  <SCORE.INTER>
-7.13878

>  <SCORE.INTER.CONST>
1

>  <SCORE.INTER.POLAR>
-1.59136

>  <SCORE.INTER.ROT>
12

>  <SCORE.INTER.SOLV>
10.6322

>  <SCORE.INTER.VDW>
-14.5987

>  <SCORE.INTER.norm>
-0.137284

>  <SCORE.INTRA>
-4.83065

>  <SCORE.INTRA.DIHEDRAL>
-13.9194

>  <SCORE.INTRA.DIHEDRAL.0>
23.9727

>  <SCORE.INTRA.POLAR>
0

>  <SCORE.INTRA.POLAR.0>
0

>  <SCORE.INTRA.REPUL>
0

>  <SCORE.INTRA.REPUL.0>
0

>  <SCORE.INTRA.SOLV>
1.91681

>  <SCORE.INTRA.SOLV.lig_0>
-115.028

>  <SCORE.INTRA.VDW>
1.17065

>  <SCORE.INTRA.VDW.0>
-6.82393

>  <SCORE.INTRA.norm>
-0.0928972

>  <SCORE.RESTR>
0

>  <SCORE.RESTR.CAVITY>
0

>  <SCORE.RESTR.norm>
0

>  <SCORE.SYSTEM>
0

>  <SCORE.SYSTEM.CONST>
0

>  <SCORE.SYSTEM.DIHEDRAL>
0

>  <SCORE.SYSTEM.SOLV>
0

>  <SCORE.SYSTEM.norm>
0

>  <SCORE.heavy>
52

>  <SCORE.norm>
-0.230181

>  <RMSD>
11.521

$$$$
2fd0_lig
 OpenBabel11021811433D
libRbt.so/2013.1/901 2013/11/27
 52 56  0  0  0  0  0  0  0  0999 V2000
   -0.6526  -54.8174    8.1793 C   0  0  2  0  0  0  0  0  0  0  0  0
   -0.0962  -53.9348    9.1634 O   0  0  0  0  0  0  0  0  0  0  0  0
   -2.5674  -50.3737    8.8397 C   0  0  2  0  0  0  0  0  0  0  0  0
   -3.2146  -49.0892    9.1528 N   0  0  0  0  0  0  0  0  0  0  0  0
    1.8780  -51.3160    9.6401 C   0  0  1  0  0  0  0  0  0  0  0  0
    4.3556  -48.8863   12.5515 C   0  0  1  0  0  0  0  0  0  0  0  0
    8.0797  -45.7628   12.4196 C   0  0  1  0  0  0  0  0  0  0  0  0
    0.2641  -56.0902    8.0739 C   0  0  2  0  0  0  0  0  0  0  0  0
    0.4126  -56.7597    9.3585 N   0  0  0  0  0  0  0  0  0  0  0  0
   -2.9031  -51.4496    9.9635 C   0  0  0  0  0  0  0  0  0  0  0  0
    2.8799  -50.1961    9.4267 C   0  0  2  0  0  0  0  0  0  0  0  0
    4.1668  -50.6891    8.9587 O   0  0  0  0  0  0  0  0  0  0  0  0
    4.7948  -47.4767   11.9353 C   0  0  2  0  0  0  0  0  0  0  0  0
    5.8927  -47.6587   10.9469 N   0  0  0  0  0  0  0  0  0  0  0  0
    8.7583  -45.2115   13.6937 C   0  0  1  0  0  0  0  0  0  0  0  0
    9.9116  -46.0311   14.0067 O   0  0  0  0  0  0  0  0  0  0  0  0
    1.6625  -55.7087    7.4612 C   0  0  0  0  0  0  0  0  0  0  0  0
   -2.2064  -52.8504    9.6148 C   0  0  2  0  0  0  0  0  0  0  0  0
   -2.4991  -53.8626   10.6403 N   0  0  0  0  0  0  0  0  0  0  0  0
    2.8856  -49.4847   10.7693 C   0  0  2  0  0  0  0  0  0  0  0  0
    4.0705  -49.7325   11.4760 O   0  0  0  0  0  0  0  0  0  0  0  0
    5.1284  -46.4929   13.1729 C   0  0  1  0  0  0  0  0  0  0  0  0
    3.9618  -46.4246   14.0128 O   0  0  0  0  0  0  0  0  0  0  0  0
    9.2122  -43.7267   13.6771 C   0  0  1  0  0  0  0  0  0  0  0  0
   10.5821  -43.6886   13.2574 O   0  0  0  0  0  0  0  0  0  0  0  0
    1.4266  -55.0056    6.0848 C   0  0  2  0  0  0  0  0  0  0  0  0
    2.6723  -54.6598    5.4873 O   0  0  0  0  0  0  0  0  0  0  0  0
   -0.6713  -52.6398    9.4943 C   0  0  2  0  0  0  0  0  0  0  0  0
    1.7564  -50.0748   11.6474 C   0  0  2  0  0  0  0  0  0  0  0  0
    1.0724  -50.9252   10.7383 O   0  0  0  0  0  0  0  0  0  0  0  0
    6.3251  -47.0693   14.0948 C   0  0  2  0  0  0  0  0  0  0  0  0
    7.4694  -47.1034   13.2213 O   0  0  0  0  0  0  0  0  0  0  0  0
    8.3897  -42.7744   12.7786 C   0  0  2  0  0  0  0  0  0  0  0  0
    8.2393  -41.5537   13.5362 O   0  0  0  0  0  0  0  0  0  0  0  0
    0.5677  -53.7262    6.2978 C   0  0  2  0  0  0  0  0  0  0  0  0
   -0.7205  -54.1304    6.9031 O   0  0  0  0  0  0  0  0  0  0  0  0
   -0.2918  -51.5513    8.4445 C   0  0  2  0  0  0  0  0  0  0  0  0
    1.1497  -51.4172    8.4576 O   0  0  0  0  0  0  0  0  0  0  0  0
    0.7613  -49.0562   12.1920 C   0  0  0  0  0  0  0  0  0  0  0  0
    0.1561  -48.4125   11.0604 O   0  0  0  0  0  0  0  0  0  0  0  0
    5.9317  -48.4952   14.4315 C   0  0  1  0  0  0  0  0  0  0  0  0
    5.4458  -49.4601   13.4749 O   0  0  0  0  0  0  0  0  0  0  0  0
    7.0621  -43.4107   12.3761 C   0  0  2  0  0  0  0  0  0  0  0  0
    7.1733  -44.7459   11.8102 O   0  0  0  0  0  0  0  0  0  0  0  0
    0.2752  -53.0243    5.0098 C   0  0  0  0  0  0  0  0  0  0  0  0
   -0.5425  -53.8602    4.2362 O   0  0  0  0  0  0  0  0  0  0  0  0
   -0.9970  -50.1909    8.7977 C   0  0  1  0  0  0  0  0  0  0  0  0
   -0.6587  -49.2061    7.7608 O   0  0  0  0  0  0  0  0  0  0  0  0
    7.0061  -49.2463   15.2952 C   0  0  0  0  0  0  0  0  0  0  0  0
    6.9379  -50.7230   15.1769 N   0  0  0  0  0  0  0  0  0  0  0  0
    6.0585  -42.6892   11.4794 C   0  0  0  0  0  0  0  0  0  0  0  0
    6.6713  -42.3570   10.1954 O   0  0  0  0  0  0  0  0  0  0  0  0
  1  2  1  1  0  0  0
  1  8  1  0  0  0  0
  1 36  1  0  0  0  0
  3  4  1  1  0  0  0
  3 10  1  0  0  0  0
  3 47  1  0  0  0  0
  5 11  1  0  0  0  0
  5 30  1  0  0  0  0
  5 38  1  6  0  0  0
  6 21  1  6  0  0  0
  6 42  1  0  0  0  0
  7 15  1  0  0  0  0
  7 44  1  0  0  0  0
  7 32  1  1  0  0  0
  8  9  1  1  0  0  0
  8 17  1  0  0  0  0
 11 12  1  1  0  0  0
 11 20  1  0  0  0  0
 13  6  1  0  0  0  0
 13 14  1  6  0  0  0
 15 16  1  6  0  0  0
 15 24  1  0  0  0  0
 17 26  1  0  0  0  0
 18 10  1  0  0  0  0
 18 19  1  1  0  0  0
 20 21  1  1  0  0  0
 20 29  1  0  0  0  0
 22 13  1  0  0  0  0
 22 23  1  1  0  0  0
 24 25  1  6  0  0  0
 24 33  1  0  0  0  0
 26 27  1  1  0  0  0
 26 35  1  0  0  0  0
 28  2  1  6  0  0  0
 28 18  1  0  0  0  0
 29 30  1  0  0  0  0
 29 39  1  6  0  0  0
 31 22  1  0  0  0  0
 31 32  1  6  0  0  0
 31 41  1  0  0  0  0
 33 34  1  1  0  0  0
 33 43  1  0  0  0  0
 35 36  1  0  0  0  0
 35 45  1  6  0  0  0
 37 28  1  0  0  0  0
 37 38  1  1  0  0  0
 39 40  1  0  0  0  0
 41 42  1  0  0  0  0
 41 49  1  6  0  0  0
 43 44  1  0  0  0  0
 43 51  1  6  0  0  0
 45 46  1  0  0  0  0
 47 37  1  0  0  0  0
 47 48  1  6  0  0  0
 49 50  1  0  0  0  0
 51 52  1  0  0  0  0
M  END
>  <CHROM.1>
178.33781239,-135.12356872,-72.88802094,76.85132349,164.18844563,44.37400389
59.83746851,57.68812544,65.86965610,-46.47775268,-156.50200639,58.79160520
3.18061466,-49.49033812,10.58209991,-2.34047673,-0.43910617,0.16589057

>  <Name>
2fd0_lig

>  <RI>
0

>  <Rbt.Current_Directory>
/home/itssahil/PROJECTS/Mol_Feturizer/New_Systems/rnas/2fd0

>  <Rbt.Executable>
rbdock ($Id: //depot/dev/client3/rdock/2013.1/src/exe/rbdock.cxx#4 $)

>  <Rbt.Library>
libRbt.so (2013.1, Build901 2013/11/27)

>  <Rbt.Parameter_File>
/export/apps/rDock/src/rDock_2013.1_src/data/scripts/dock_solv.prm

>  <Rbt.Receptor>
prm/pocket_docking_5.prm

>  <SCORE>
-14.5122

>  <SCORE.INTER>
-10.6544

>  <SCORE.INTER.CONST>
1

>  <SCORE.INTER.POLAR>
-2.87079

>  <SCORE.INTER.ROT>
12

>  <SCORE.INTER.SOLV>
21.0305

>  <SCORE.INTER.VDW>
-16.1438

>  <SCORE.INTER.norm>
-0.204892

>  <SCORE.INTRA>
-3.85777

>  <SCORE.INTRA.DIHEDRAL>
-9.75518

>  <SCORE.INTRA.DIHEDRAL.0>
23.9727

>  <SCORE.INTRA.POLAR>
0

>  <SCORE.INTRA.POLAR.0>
0

>  <SCORE.INTRA.REPUL>
0

>  <SCORE.INTRA.REPUL.0>
0

>  <SCORE.INTRA.SOLV>
-0.929169

>  <SCORE.INTRA.SOLV.lig_0>
-115.028

>  <SCORE.INTRA.VDW>
1.4844

>  <SCORE.INTRA.VDW.0>
-6.82393

>  <SCORE.INTRA.norm>
-0.074188

>  <SCORE.RESTR>
0

>  <SCORE.RESTR.CAVITY>
0

>  <SCORE.RESTR.norm>
0

>  <SCORE.SYSTEM>
0

>  <SCORE.SYSTEM.CONST>
0

>  <SCORE.SYSTEM.DIHEDRAL>
0

>  <SCORE.SYSTEM.SOLV>
0

>  <SCORE.SYSTEM.norm>
0

>  <SCORE.heavy>
52

>  <SCORE.norm>
-0.27908

>  <RMSD>
11.552

$$$$
2fd0_lig
 OpenBabel11021811433D
libRbt.so/2013.1/901 2013/11/27
 52 56  0  0  0  0  0  0  0  0999 V2000
   -0.9714  -49.0834    6.4044 C   0  0  2  0  0  0  0  0  0  0  0  0
   -1.5000  -49.7346    7.5677 O   0  0  0  0  0  0  0  0  0  0  0  0
   -0.5020  -52.8426   10.4378 C   0  0  2  0  0  0  0  0  0  0  0  0
   -0.0264  -54.1103   11.0153 N   0  0  0  0  0  0  0  0  0  0  0  0
    1.9447  -48.9751    8.8886 C   0  0  1  0  0  0  0  0  0  0  0  0
    4.1077  -46.6419   10.1804 C   0  0  1  0  0  0  0  0  0  0  0  0
    5.6466  -48.1089   15.0623 C   0  0  1  0  0  0  0  0  0  0  0  0
   -1.7790  -47.7561    6.1641 C   0  0  2  0  0  0  0  0  0  0  0  0
   -1.7367  -46.8776    7.3248 N   0  0  0  0  0  0  0  0  0  0  0  0
   -1.6422  -53.1191    9.3623 C   0  0  0  0  0  0  0  0  0  0  0  0
    3.3578  -49.0581    8.3410 C   0  0  2  0  0  0  0  0  0  0  0  0
    4.2624  -49.7450    9.2508 O   0  0  0  0  0  0  0  0  0  0  0  0
    5.3461  -46.0798   11.0228 C   0  0  2  0  0  0  0  0  0  0  0  0
    6.4272  -47.0996   11.1047 N   0  0  0  0  0  0  0  0  0  0  0  0
    6.9403  -47.2762   14.9186 C   0  0  1  0  0  0  0  0  0  0  0  0
    6.6062  -45.8681   14.9933 O   0  0  0  0  0  0  0  0  0  0  0  0
   -3.2606  -48.0842    5.7472 C   0  0  0  0  0  0  0  0  0  0  0  0
   -2.1661  -51.7366    8.7429 C   0  0  2  0  0  0  0  0  0  0  0  0
   -3.2198  -51.9645    7.7431 N   0  0  0  0  0  0  0  0  0  0  0  0
    3.6906  -47.6069    8.0379 C   0  0  2  0  0  0  0  0  0  0  0  0
    4.6141  -47.0896    8.9569 O   0  0  0  0  0  0  0  0  0  0  0  0
    4.7690  -45.5619   12.4404 C   0  0  1  0  0  0  0  0  0  0  0  0
    3.7512  -44.5801   12.1735 O   0  0  0  0  0  0  0  0  0  0  0  0
    8.0859  -47.5542   15.9293 C   0  0  1  0  0  0  0  0  0  0  0  0
    7.9405  -46.6402   17.0237 O   0  0  0  0  0  0  0  0  0  0  0  0
   -3.2285  -49.0194    4.4946 C   0  0  2  0  0  0  0  0  0  0  0  0
   -4.5540  -49.3259    4.0735 O   0  0  0  0  0  0  0  0  0  0  0  0
   -0.9705  -50.9822    8.0972 C   0  0  2  0  0  0  0  0  0  0  0  0
    2.4114  -46.7561    8.2231 C   0  0  2  0  0  0  0  0  0  0  0  0
    1.4123  -47.7441    8.4312 O   0  0  0  0  0  0  0  0  0  0  0  0
    4.0539  -46.7510   13.2703 C   0  0  2  0  0  0  0  0  0  0  0  0
    5.1090  -47.6965   13.5282 O   0  0  0  0  0  0  0  0  0  0  0  0
    8.1639  -48.9931   16.4896 C   0  0  2  0  0  0  0  0  0  0  0  0
    9.5691  -49.3266   16.5184 O   0  0  0  0  0  0  0  0  0  0  0  0
   -2.4679  -50.3299    4.8466 C   0  0  2  0  0  0  0  0  0  0  0  0
   -1.0942  -49.9693    5.2618 O   0  0  0  0  0  0  0  0  0  0  0  0
    0.2001  -50.7373    9.0976 C   0  0  2  0  0  0  0  0  0  0  0  0
    1.2619  -50.0730    8.3714 O   0  0  0  0  0  0  0  0  0  0  0  0
    2.0116  -45.9176    7.0142 C   0  0  0  0  0  0  0  0  0  0  0  0
    2.3325  -46.6859    5.8446 O   0  0  0  0  0  0  0  0  0  0  0  0
    3.0638  -47.3823   12.3097 C   0  0  1  0  0  0  0  0  0  0  0  0
    3.3634  -47.7504   10.9470 O   0  0  0  0  0  0  0  0  0  0  0  0
    7.3255  -49.9541   15.6511 C   0  0  2  0  0  0  0  0  0  0  0  0
    5.9553  -49.5245   15.4200 O   0  0  0  0  0  0  0  0  0  0  0  0
   -2.3707  -51.2555    3.6757 C   0  0  0  0  0  0  0  0  0  0  0  0
   -1.5365  -50.6593    2.7195 O   0  0  0  0  0  0  0  0  0  0  0  0
    0.6880  -52.1040    9.7032 C   0  0  1  0  0  0  0  0  0  0  0  0
    1.7534  -51.8296   10.6774 O   0  0  0  0  0  0  0  0  0  0  0  0
    2.2937  -48.6027   12.9277 C   0  0  0  0  0  0  0  0  0  0  0  0
    0.9307  -48.2657   13.4052 N   0  0  0  0  0  0  0  0  0  0  0  0
    7.2169  -51.4392   15.9898 C   0  0  0  0  0  0  0  0  0  0  0  0
    6.4664  -52.1435   14.9528 O   0  0  0  0  0  0  0  0  0  0  0  0
  1  2  1  1  0  0  0
  1  8  1  0  0  0  0
  1 36  1  0  0  0  0
  3  4  1  6  0  0  0
  3 10  1  0  0  0  0
  3 47  1  0  0  0  0
  5 11  1  0  0  0  0
  5 30  1  0  0  0  0
  5 38  1  6  0  0  0
  6 21  1  6  0  0  0
  6 42  1  0  0  0  0
  7 15  1  0  0  0  0
  7 44  1  0  0  0  0
  7 32  1  6  0  0  0
  8  9  1  1  0  0  0
  8 17  1  0  0  0  0
 11 12  1  1  0  0  0
 11 20  1  0  0  0  0
 13  6  1  0  0  0  0
 13 14  1  1  0  0  0
 15 16  1  1  0  0  0
 15 24  1  0  0  0  0
 17 26  1  0  0  0  0
 18 10  1  0  0  0  0
 18 19  1  6  0  0  0
 20 21  1  1  0  0  0
 20 29  1  0  0  0  0
 22 13  1  0  0  0  0
 22 23  1  6  0  0  0
 24 25  1  1  0  0  0
 24 33  1  0  0  0  0
 26 27  1  1  0  0  0
 26 35  1  0  0  0  0
 28  2  1  1  0  0  0
 28 18  1  0  0  0  0
 29 30  1  0  0  0  0
 29 39  1  6  0  0  0
 31 22  1  0  0  0  0
 31 32  1  6  0  0  0
 31 41  1  0  0  0  0
 33 34  1  6  0  0  0
 33 43  1  0  0  0  0
 35 36  1  0  0  0  0
 35 45  1  6  0  0  0
 37 28  1  0  0  0  0
 37 38  1  6  0  0  0
 39 40  1  0  0  0  0
 41 42  1  0  0  0  0
 41 49  1  1  0  0  0
 43 44  1  0  0  0  0
 43 51  1  1  0  0  0
 45 46  1  0  0  0  0
 47 37  1  0  0  0  0
 47 48  1  1  0  0  0
 49 50  1  0  0  0  0
 51 52  1  0  0  0  0
M  END
>  <CHROM.1>
-178.80506920,148.17551108,-178.85281400,-105.02914770,-82.10827670,-148.62568988
35.95291500,117.32762366,67.44483342,134.95671256,99.79506787,-174.31212649
2.34023317,-48.92490040,10.20973759,-2.84206048,0.77255479,2.53453461

>  <Name>
2fd0_lig

>  <RI>
1.29864e+07

>  <Rbt.Current_Directory>
/home/itssahil/PROJECTS/Mol_Feturizer/New_Systems/rnas/2fd0

>  <Rbt.Executable>
rbdock ($Id: //depot/dev/client3/rdock/2013.1/src/exe/rbdock.cxx#4 $)

>  <Rbt.Library>
libRbt.so (2013.1, Build901 2013/11/27)

>  <Rbt.Parameter_File>
/export/apps/rDock/src/rDock_2013.1_src/data/scripts/dock_solv.prm

>  <Rbt.Receptor>
prm/pocket_docking_3.prm

>  <SCORE>
-4.95608

>  <SCORE.INTER>
-14.2267

>  <SCORE.INTER.CONST>
1

>  <SCORE.INTER.POLAR>
-2.35211

>  <SCORE.INTER.ROT>
12

>  <SCORE.INTER.SOLV>
22.0175

>  <SCORE.INTER.VDW>
-20.5832

>  <SCORE.INTER.norm>
-0.27359

>  <SCORE.INTRA>
8.344

>  <SCORE.INTRA.DIHEDRAL>
11.2609

>  <SCORE.INTRA.DIHEDRAL.0>
23.9727

>  <SCORE.INTRA.POLAR>
0

>  <SCORE.INTRA.POLAR.0>
0

>  <SCORE.INTRA.REPUL>
0

>  <SCORE.INTRA.REPUL.0>
0

>  <SCORE.INTRA.SOLV>
-0.671981

>  <SCORE.INTRA.SOLV.lig_0>
-115.028

>  <SCORE.INTRA.VDW>
3.04955

>  <SCORE.INTRA.VDW.0>
-6.82393

>  <SCORE.INTRA.norm>
0.160462

>  <SCORE.RESTR>
0.92659

>  <SCORE.RESTR.CAVITY>
0.92659

>  <SCORE.RESTR.norm>
0.017819

>  <SCORE.SYSTEM>
0

>  <SCORE.SYSTEM.CONST>
0

>  <SCORE.SYSTEM.DIHEDRAL>
0

>  <SCORE.SYSTEM.SOLV>
0

>  <SCORE.SYSTEM.norm>
0

>  <SCORE.heavy>
52

>  <SCORE.norm>
-0.0953093

>  <RMSD>
11.576

$$$$
2fd0_lig
 OpenBabel11021811433D
libRbt.so/2013.1/901 2013/11/27
 52 56  0  0  0  0  0  0  0  0999 V2000
   -4.1144  -51.6852    7.7385 C   0  0  2  0  0  0  0  0  0  0  0  0
   -2.7309  -51.5502    7.3853 O   0  0  0  0  0  0  0  0  0  0  0  0
   -1.0670  -55.4759    8.2293 C   0  0  2  0  0  0  0  0  0  0  0  0
   -0.1050  -56.5725    8.4271 N   0  0  0  0  0  0  0  0  0  0  0  0
   -0.4156  -51.2223    9.8221 C   0  0  1  0  0  0  0  0  0  0  0  0
    3.0796  -48.9753   11.6764 C   0  0  1  0  0  0  0  0  0  0  0  0
    4.4529  -44.6908   14.3136 C   0  0  1  0  0  0  0  0  0  0  0  0
   -4.9733  -50.8425    6.7268 C   0  0  2  0  0  0  0  0  0  0  0  0
   -4.7394  -51.2478    5.3477 N   0  0  0  0  0  0  0  0  0  0  0  0
   -0.9231  -54.8729    6.7635 C   0  0  0  0  0  0  0  0  0  0  0  0
   -0.2238  -50.5152   11.1513 C   0  0  2  0  0  0  0  0  0  0  0  0
   -0.8764  -49.2147   11.1834 O   0  0  0  0  0  0  0  0  0  0  0  0
    2.9062  -48.9583   13.2667 C   0  0  2  0  0  0  0  0  0  0  0  0
    1.8298  -48.0103   13.6641 N   0  0  0  0  0  0  0  0  0  0  0  0
    3.0012  -44.3137   14.6855 C   0  0  1  0  0  0  0  0  0  0  0  0
    2.6602  -44.9375   15.9482 O   0  0  0  0  0  0  0  0  0  0  0  0
   -4.7024  -49.3052    6.9262 C   0  0  0  0  0  0  0  0  0  0  0  0
   -1.9790  -53.6865    6.5467 C   0  0  2  0  0  0  0  0  0  0  0  0
   -1.8650  -53.1095    5.1991 N   0  0  0  0  0  0  0  0  0  0  0  0
    1.2864  -50.5086   11.3180 C   0  0  2  0  0  0  0  0  0  0  0  0
    1.8177  -49.2253   11.1295 O   0  0  0  0  0  0  0  0  0  0  0  0
    4.3611  -48.6675   13.9068 C   0  0  1  0  0  0  0  0  0  0  0  0
    5.2665  -49.6789   13.4292 O   0  0  0  0  0  0  0  0  0  0  0  0
    2.6581  -42.8027   14.7859 C   0  0  1  0  0  0  0  0  0  0  0  0
    2.8258  -42.4018   16.1517 O   0  0  0  0  0  0  0  0  0  0  0  0
   -4.9816  -48.9415    8.4210 C   0  0  2  0  0  0  0  0  0  0  0  0
   -4.7650  -47.5510    8.6394 O   0  0  0  0  0  0  0  0  0  0  0  0
   -1.7393  -52.5887    7.6204 C   0  0  2  0  0  0  0  0  0  0  0  0
    1.9120  -51.3769   10.2003 C   0  0  2  0  0  0  0  0  0  0  0  0
    0.7705  -51.9619    9.5901 O   0  0  0  0  0  0  0  0  0  0  0  0
    4.9606  -47.2471   13.4194 C   0  0  2  0  0  0  0  0  0  0  0  0
    4.0357  -46.2698   13.9324 O   0  0  0  0  0  0  0  0  0  0  0  0
    3.4843  -41.8565   13.8845 C   0  0  2  0  0  0  0  0  0  0  0  0
    2.5446  -40.8896   13.3663 O   0  0  0  0  0  0  0  0  0  0  0  0
   -4.0434  -49.7748    9.3403 C   0  0  2  0  0  0  0  0  0  0  0  0
   -4.3114  -51.2092    9.0950 O   0  0  0  0  0  0  0  0  0  0  0  0
   -1.8127  -53.1419    9.0763 C   0  0  2  0  0  0  0  0  0  0  0  0
   -1.5306  -52.0423    9.9749 O   0  0  0  0  0  0  0  0  0  0  0  0
    2.8234  -52.4984   10.6860 C   0  0  0  0  0  0  0  0  0  0  0  0
    4.0982  -51.9070   10.9800 O   0  0  0  0  0  0  0  0  0  0  0  0
    4.8608  -47.2588   11.9057 C   0  0  1  0  0  0  0  0  0  0  0  0
    3.6894  -47.6578   11.1635 O   0  0  0  0  0  0  0  0  0  0  0  0
    4.2186  -42.6372   12.7978 C   0  0  2  0  0  0  0  0  0  0  0  0
    5.0014  -43.7639   13.2806 O   0  0  0  0  0  0  0  0  0  0  0  0
   -4.2862  -49.4988   10.7901 C   0  0  0  0  0  0  0  0  0  0  0  0
   -5.6248  -49.8059   11.0719 O   0  0  0  0  0  0  0  0  0  0  0  0
   -0.7799  -54.3130    9.2620 C   0  0  1  0  0  0  0  0  0  0  0  0
   -0.9138  -54.8423   10.6263 O   0  0  0  0  0  0  0  0  0  0  0  0
    5.3596  -45.9263   11.2422 C   0  0  0  0  0  0  0  0  0  0  0  0
    5.0752  -45.8427    9.7891 N   0  0  0  0  0  0  0  0  0  0  0  0
    5.1176  -41.9476   11.7741 C   0  0  0  0  0  0  0  0  0  0  0  0
    5.2154  -42.7531   10.5591 O   0  0  0  0  0  0  0  0  0  0  0  0
  1  2  1  6  0  0  0
  1  8  1  0  0  0  0
  1 36  1  0  0  0  0
  3  4  1  6  0  0  0
  3 10  1  0  0  0  0
  3 47  1  0  0  0  0
  5 11  1  0  0  0  0
  5 30  1  0  0  0  0
  5 38  1  1  0  0  0
  6 21  1  6  0  0  0
  6 42  1  0  0  0  0
  7 15  1  0  0  0  0
  7 44  1  0  0  0  0
  7 32  1  6  0  0  0
  8  9  1  6  0  0  0
  8 17  1  0  0  0  0
 11 12  1  6  0  0  0
 11 20  1  0  0  0  0
 13  6  1  0  0  0  0
 13 14  1  6  0  0  0
 15 16  1  1  0  0  0
 15 24  1  0  0  0  0
 17 26  1  0  0  0  0
 18 10  1  0  0  0  0
 18 19  1  6  0  0  0
 20 21  1  6  0  0  0
 20 29  1  0  0  0  0
 22 13  1  0  0  0  0
 22 23  1  6  0  0  0
 24 25  1  1  0  0  0
 24 33  1  0  0  0  0
 26 27  1  6  0  0  0
 26 35  1  0  0  0  0
 28  2  1  1  0  0  0
 28 18  1  0  0  0  0
 29 30  1  0  0  0  0
 29 39  1  1  0  0  0
 31 22  1  0  0  0  0
 31 32  1  1  0  0  0
 31 41  1  0  0  0  0
 33 34  1  6  0  0  0
 33 43  1  0  0  0  0
 35 36  1  0  0  0  0
 35 45  1  1  0  0  0
 37 28  1  0  0  0  0
 37 38  1  1  0  0  0
 39 40  1  0  0  0  0
 41 42  1  0  0  0  0
 41 49  1  1  0  0  0
 43 44  1  0  0  0  0
 43 51  1  1  0  0  0
 45 46  1  0  0  0  0
 47 37  1  0  0  0  0
 47 48  1  1  0  0  0
 49 50  1  0  0  0  0
 51 52  1  0  0  0  0
M  END
>  <CHROM.1>
-149.76300926,-162.24461674,-69.53840820,177.14494403,159.12477387,75.26724759
-80.40081388,152.35219049,58.82199065,-50.71337963,-171.10590707,-155.21680960
0.70248811,-48.95503826,10.76878025,2.22596908,0.37734196,-2.83866642

>  <Name>
2fd0_lig

>  <RI>
3.4301e+07

>  <Rbt.Current_Directory>
/home/itssahil/PROJECTS/Mol_Feturizer/New_Systems/rnas/2fd0

>  <Rbt.Executable>
rbdock ($Id: //depot/dev/client3/rdock/2013.1/src/exe/rbdock.cxx#4 $)

>  <Rbt.Library>
libRbt.so (2013.1, Build901 2013/11/27)

>  <Rbt.Parameter_File>
/export/apps/rDock/src/rDock_2013.1_src/data/scripts/dock_solv.prm

>  <Rbt.Receptor>
prm/pocket_docking_7.prm

>  <SCORE>
-25.3567

>  <SCORE.INTER>
-22.413

>  <SCORE.INTER.CONST>
1

>  <SCORE.INTER.POLAR>
-3.96028

>  <SCORE.INTER.ROT>
12

>  <SCORE.INTER.SOLV>
17.4547

>  <SCORE.INTER.VDW>
-19.1593

>  <SCORE.INTER.norm>
-0.431019

>  <SCORE.INTRA>
-2.94693

>  <SCORE.INTRA.DIHEDRAL>
-7.0516

>  <SCORE.INTRA.DIHEDRAL.0>
23.9727

>  <SCORE.INTRA.POLAR>
0

>  <SCORE.INTRA.POLAR.0>
0

>  <SCORE.INTRA.REPUL>
0

>  <SCORE.INTRA.REPUL.0>
0

>  <SCORE.INTRA.SOLV>
0.536819

>  <SCORE.INTRA.SOLV.lig_0>
-115.028

>  <SCORE.INTRA.VDW>
0.310464

>  <SCORE.INTRA.VDW.0>
-6.82393

>  <SCORE.INTRA.norm>
-0.0566716

>  <SCORE.RESTR>
0.00320137

>  <SCORE.RESTR.CAVITY>
0.00320137

>  <SCORE.RESTR.norm>
6.15648e-05

>  <SCORE.SYSTEM>
0

>  <SCORE.SYSTEM.CONST>
0

>  <SCORE.SYSTEM.DIHEDRAL>
0

>  <SCORE.SYSTEM.SOLV>
0

>  <SCORE.SYSTEM.norm>
0

>  <SCORE.heavy>
52

>  <SCORE.norm>
-0.487629

>  <RMSD>
11.576

$$$$
2fd0_lig
 OpenBabel11021811433D
libRbt.so/2013.1/901 2013/11/27
 52 56  0  0  0  0  0  0  0  0999 V2000
    3.6734  -52.5431    8.6023 C   0  0  2  0  0  0  0  0  0  0  0  0
    3.0514  -52.2637    7.3406 O   0  0  0  0  0  0  0  0  0  0  0  0
   -0.1617  -49.7557    5.8311 C   0  0  2  0  0  0  0  0  0  0  0  0
   -1.4936  -49.1622    5.6296 N   0  0  0  0  0  0  0  0  0  0  0  0
    3.0731  -49.0490    9.3382 C   0  0  1  0  0  0  0  0  0  0  0  0
    4.4693  -45.8409   12.1661 C   0  0  1  0  0  0  0  0  0  0  0  0
    8.7384  -42.6602   12.0123 C   0  0  1  0  0  0  0  0  0  0  0  0
    4.8845  -53.5153    8.3583 C   0  0  2  0  0  0  0  0  0  0  0  0
    5.8414  -52.9624    7.4099 N   0  0  0  0  0  0  0  0  0  0  0  0
   -0.2081  -51.3226    5.5558 C   0  0  0  0  0  0  0  0  0  0  0  0
    2.2790  -48.0058   10.1028 C   0  0  2  0  0  0  0  0  0  0  0  0
    1.8574  -46.9018    9.2533 O   0  0  0  0  0  0  0  0  0  0  0  0
    4.4868  -44.2520   11.9800 C   0  0  2  0  0  0  0  0  0  0  0  0
    5.0028  -43.8903   10.6315 N   0  0  0  0  0  0  0  0  0  0  0  0
    8.3890  -42.1688   10.5895 C   0  0  1  0  0  0  0  0  0  0  0  0
    7.2211  -41.3138   10.6589 O   0  0  0  0  0  0  0  0  0  0  0  0
    4.3683  -54.9276    7.8942 C   0  0  0  0  0  0  0  0  0  0  0  0
    1.2456  -51.9648    5.7650 C   0  0  2  0  0  0  0  0  0  0  0  0
    1.2297  -53.4144    5.5191 N   0  0  0  0  0  0  0  0  0  0  0  0
    3.2063  -47.6476   11.2518 C   0  0  2  0  0  0  0  0  0  0  0  0
    3.7634  -46.3724   11.0831 O   0  0  0  0  0  0  0  0  0  0  0  0
    5.3035  -43.6298   13.2276 C   0  0  1  0  0  0  0  0  0  0  0  0
    4.6641  -44.0684   14.4400 O   0  0  0  0  0  0  0  0  0  0  0  0
    9.4936  -41.4132    9.8023 C   0  0  1  0  0  0  0  0  0  0  0  0
    9.3215  -40.0098   10.0371 O   0  0  0  0  0  0  0  0  0  0  0  0
    3.3568  -55.4616    8.9603 C   0  0  2  0  0  0  0  0  0  0  0  0
    2.8788  -56.7497    8.5853 O   0  0  0  0  0  0  0  0  0  0  0  0
    1.7275  -51.6736    7.2137 C   0  0  2  0  0  0  0  0  0  0  0  0
    4.4082  -48.6221   11.2408 C   0  0  2  0  0  0  0  0  0  0  0  0
    4.0317  -49.5635   10.2461 O   0  0  0  0  0  0  0  0  0  0  0  0
    6.8236  -44.1778   13.2860 C   0  0  2  0  0  0  0  0  0  0  0  0
    7.4257  -43.7024   12.0673 O   0  0  0  0  0  0  0  0  0  0  0  0
   10.9527  -41.7987   10.1386 C   0  0  2  0  0  0  0  0  0  0  0  0
   11.6480  -41.8420    8.8733 O   0  0  0  0  0  0  0  0  0  0  0  0
    2.1650  -54.4697    9.0852 C   0  0  2  0  0  0  0  0  0  0  0  0
    2.7016  -53.1519    9.4913 O   0  0  0  0  0  0  0  0  0  0  0  0
    1.7357  -50.1518    7.5527 C   0  0  2  0  0  0  0  0  0  0  0  0
    2.1563  -50.0148    8.9313 O   0  0  0  0  0  0  0  0  0  0  0  0
    4.6441  -49.3730   12.5465 C   0  0  0  0  0  0  0  0  0  0  0  0
    4.8159  -48.3857   13.5746 O   0  0  0  0  0  0  0  0  0  0  0  0
    6.7166  -45.6893   13.2142 C   0  0  1  0  0  0  0  0  0  0  0  0
    5.8961  -46.4101   12.2712 O   0  0  0  0  0  0  0  0  0  0  0  0
   11.0080  -43.1140   10.9110 C   0  0  2  0  0  0  0  0  0  0  0  0
   10.1382  -43.1739   12.0751 O   0  0  0  0  0  0  0  0  0  0  0  0
    1.1759  -54.9063   10.1186 C   0  0  0  0  0  0  0  0  0  0  0  0
    0.0436  -54.0867   10.0091 O   0  0  0  0  0  0  0  0  0  0  0  0
    0.3048  -49.5401    7.3268 C   0  0  1  0  0  0  0  0  0  0  0  0
    0.3635  -48.0985    7.6054 O   0  0  0  0  0  0  0  0  0  0  0  0
    8.1116  -46.4092   13.2119 C   0  0  0  0  0  0  0  0  0  0  0  0
    8.8003  -46.3759   14.5249 N   0  0  0  0  0  0  0  0  0  0  0  0
   12.3284  -43.7221   11.3788 C   0  0  0  0  0  0  0  0  0  0  0  0
   13.2461  -43.8728   10.2521 O   0  0  0  0  0  0  0  0  0  0  0  0
  1  2  1  6  0  0  0
  1  8  1  0  0  0  0
  1 36  1  0  0  0  0
  3  4  1  1  0  0  0
  3 10  1  0  0  0  0
  3 47  1  0  0  0  0
  5 11  1  0  0  0  0
  5 30  1  0  0  0  0
  5 38  1  1  0  0  0
  6 21  1  6  0  0  0
  6 42  1  0  0  0  0
  7 15  1  0  0  0  0
  7 44  1  0  0  0  0
  7 32  1  6  0  0  0
  8  9  1  6  0  0  0
  8 17  1  0  0  0  0
 11 12  1  6  0  0  0
 11 20  1  0  0  0  0
 13  6  1  0  0  0  0
 13 14  1  6  0  0  0
 15 16  1  1  0  0  0
 15 24  1  0  0  0  0
 17 26  1  0  0  0  0
 18 10  1  0  0  0  0
 18 19  1  1  0  0  0
 20 21  1  6  0  0  0
 20 29  1  0  0  0  0
 22 13  1  0  0  0  0
 22 23  1  1  0  0  0
 24 25  1  1  0  0  0
 24 33  1  0  0  0  0
 26 27  1  6  0  0  0
 26 35  1  0  0  0  0
 28  2  1  6  0  0  0
 28 18  1  0  0  0  0
 29 30  1  0  0  0  0
 29 39  1  1  0  0  0
 31 22  1  0  0  0  0
 31 32  1  6  0  0  0
 31 41  1  0  0  0  0
 33 34  1  6  0  0  0
 33 43  1  0  0  0  0
 35 36  1  0  0  0  0
 35 45  1  1  0  0  0
 37 28  1  0  0  0  0
 37 38  1  1  0  0  0
 39 40  1  0  0  0  0
 41 42  1  0  0  0  0
 41 49  1  6  0  0  0
 43 44  1  0  0  0  0
 43 51  1  1  0  0  0
 45 46  1  0  0  0  0
 47 37  1  0  0  0  0
 47 48  1  6  0  0  0
 49 50  1  0  0  0  0
 51 52  1  0  0  0  0
M  END
>  <CHROM.1>
164.60683668,107.44019561,-157.78556432,-156.93481508,170.42378672,-161.81418227
-57.15233902,118.58258285,-170.41431882,136.35692360,72.35894445,-54.41224113
4.89654817,-47.92634200,10.00537449,-2.22965096,-0.34627850,0.08820168

>  <Name>
2fd0_lig

>  <RI>
0

>  <Rbt.Current_Directory>
/home/itssahil/PROJECTS/Mol_Feturizer/New_Systems/rnas/2fd0

>  <Rbt.Executable>
rbdock ($Id: //depot/dev/client3/rdock/2013.1/src/exe/rbdock.cxx#4 $)

>  <Rbt.Library>
libRbt.so (2013.1, Build901 2013/11/27)

>  <Rbt.Parameter_File>
/export/apps/rDock/src/rDock_2013.1_src/data/scripts/dock_solv.prm

>  <Rbt.Receptor>
prm/pocket_docking_8.prm

>  <SCORE>
-13.8469

>  <SCORE.INTER>
-15.5617

>  <SCORE.INTER.CONST>
1

>  <SCORE.INTER.POLAR>
-2.58516

>  <SCORE.INTER.ROT>
12

>  <SCORE.INTER.SOLV>
21.232

>  <SCORE.INTER.VDW>
-20.4346

>  <SCORE.INTER.norm>
-0.299264

>  <SCORE.INTRA>
1.71478

>  <SCORE.INTRA.DIHEDRAL>
5.12954

>  <SCORE.INTRA.DIHEDRAL.0>
23.9727

>  <SCORE.INTRA.POLAR>
0

>  <SCORE.INTRA.POLAR.0>
0

>  <SCORE.INTRA.REPUL>
0

>  <SCORE.INTRA.REPUL.0>
0

>  <SCORE.INTRA.SOLV>
-2.67829

>  <SCORE.INTRA.SOLV.lig_0>
-115.028

>  <SCORE.INTRA.VDW>
0.489155

>  <SCORE.INTRA.VDW.0>
-6.82393

>  <SCORE.INTRA.norm>
0.0329766

>  <SCORE.RESTR>
0

>  <SCORE.RESTR.CAVITY>
0

>  <SCORE.RESTR.norm>
0

>  <SCORE.SYSTEM>
0

>  <SCORE.SYSTEM.CONST>
0

>  <SCORE.SYSTEM.DIHEDRAL>
0

>  <SCORE.SYSTEM.SOLV>
0

>  <SCORE.SYSTEM.norm>
0

>  <SCORE.heavy>
52

>  <SCORE.norm>
-0.266287

>  <RMSD>
11.576

$$$$
2fd0_lig
 OpenBabel11021811433D
libRbt.so/2013.1/901 2013/11/27
 52 56  0  0  0  0  0  0  0  0999 V2000
   -1.4247  -51.1777    6.0028 C   0  0  2  0  0  0  0  0  0  0  0  0
   -0.9695  -50.7144    7.2815 O   0  0  0  0  0  0  0  0  0  0  0  0
    0.6020  -53.9557    9.7138 C   0  0  2  0  0  0  0  0  0  0  0  0
    1.5129  -54.7753   10.5296 N   0  0  0  0  0  0  0  0  0  0  0  0
    0.2628  -49.5969   10.6043 C   0  0  1  0  0  0  0  0  0  0  0  0
    2.8327  -49.4487   14.0999 C   0  0  1  0  0  0  0  0  0  0  0  0
    6.3589  -48.2736   15.1351 C   0  0  1  0  0  0  0  0  0  0  0  0
   -1.0372  -50.1091    4.9168 C   0  0  2  0  0  0  0  0  0  0  0  0
    0.3949  -49.8450    4.9024 N   0  0  0  0  0  0  0  0  0  0  0  0
    1.2369  -53.6861    8.2795 C   0  0  0  0  0  0  0  0  0  0  0  0
    0.6745  -50.1858   11.9411 C   0  0  2  0  0  0  0  0  0  0  0  0
    0.0302  -49.5157   13.0609 O   0  0  0  0  0  0  0  0  0  0  0  0
    2.7380  -48.0926   14.9434 C   0  0  2  0  0  0  0  0  0  0  0  0
    3.6967  -47.0829   14.4174 N   0  0  0  0  0  0  0  0  0  0  0  0
    6.9868  -46.8931   15.4312 C   0  0  1  0  0  0  0  0  0  0  0  0
    7.8354  -47.0015   16.6008 O   0  0  0  0  0  0  0  0  0  0  0  0
   -1.8619  -48.7861    5.1314 C   0  0  0  0  0  0  0  0  0  0  0  0
    0.2385  -52.8029    7.3892 C   0  0  2  0  0  0  0  0  0  0  0  0
    0.8032  -52.5368    6.0580 N   0  0  0  0  0  0  0  0  0  0  0  0
    2.1910  -50.1029   11.8964 C   0  0  2  0  0  0  0  0  0  0  0  0
    2.6758  -49.1057   12.7540 O   0  0  0  0  0  0  0  0  0  0  0  0
    2.9208  -48.4805   16.5013 C   0  0  1  0  0  0  0  0  0  0  0  0
    1.9117  -49.4494   16.8389 O   0  0  0  0  0  0  0  0  0  0  0  0
    7.8109  -46.2243   14.2979 C   0  0  1  0  0  0  0  0  0  0  0  0
    9.1857  -46.5872   14.4785 O   0  0  0  0  0  0  0  0  0  0  0  0
   -3.3841  -49.1434    5.1262 C   0  0  2  0  0  0  0  0  0  0  0  0
   -4.1677  -47.9670    5.2998 O   0  0  0  0  0  0  0  0  0  0  0  0
   -0.0509  -51.4645    8.1245 C   0  0  2  0  0  0  0  0  0  0  0  0
    2.6215  -49.6638   10.4765 C   0  0  2  0  0  0  0  0  0  0  0  0
    1.3959  -49.6971    9.7594 O   0  0  0  0  0  0  0  0  0  0  0  0
    4.3479  -49.1863   16.7828 C   0  0  2  0  0  0  0  0  0  0  0  0
    5.3211  -48.1788   16.4491 O   0  0  0  0  0  0  0  0  0  0  0  0
    7.3893  -46.5756   12.8524 C   0  0  2  0  0  0  0  0  0  0  0  0
    7.4660  -45.3387   12.1104 O   0  0  0  0  0  0  0  0  0  0  0  0
   -3.6825  -50.1528    6.2714 C   0  0  2  0  0  0  0  0  0  0  0  0
   -2.8631  -51.3639    6.0448 O   0  0  0  0  0  0  0  0  0  0  0  0
   -0.6216  -51.6754    9.5600 C   0  0  2  0  0  0  0  0  0  0  0  0
   -0.8056  -50.3671   10.1522 O   0  0  0  0  0  0  0  0  0  0  0  0
    3.6083  -50.5960    9.7824 C   0  0  0  0  0  0  0  0  0  0  0  0
    4.1336  -49.8856    8.6508 O   0  0  0  0  0  0  0  0  0  0  0  0
    4.4534  -50.3132   15.7726 C   0  0  1  0  0  0  0  0  0  0  0  0
    4.1588  -50.1844   14.3659 O   0  0  0  0  0  0  0  0  0  0  0  0
    6.0053  -47.2186   12.8260 C   0  0  2  0  0  0  0  0  0  0  0  0
    5.8363  -48.3383   13.7387 O   0  0  0  0  0  0  0  0  0  0  0  0
   -5.1204  -50.5639    6.2983 C   0  0  0  0  0  0  0  0  0  0  0  0
   -5.9029  -49.4018    6.3505 O   0  0  0  0  0  0  0  0  0  0  0  0
    0.3659  -52.5555   10.4102 C   0  0  1  0  0  0  0  0  0  0  0  0
   -0.2279  -52.7759   11.7361 O   0  0  0  0  0  0  0  0  0  0  0  0
    5.8102  -51.0979   15.8600 C   0  0  0  0  0  0  0  0  0  0  0  0
    6.7274  -50.8280   14.7262 N   0  0  0  0  0  0  0  0  0  0  0  0
    5.3499  -47.6741   11.5241 C   0  0  0  0  0  0  0  0  0  0  0  0
    5.6489  -46.7323   10.4480 O   0  0  0  0  0  0  0  0  0  0  0  0
  1  2  1  1  0  0  0
  1  8  1  0  0  0  0
  1 36  1  0  0  0  0
  3  4  1  1  0  0  0
  3 10  1  0  0  0  0
  3 47  1  0  0  0  0
  5 11  1  0  0  0  0
  5 30  1  0  0  0  0
  5 38  1  6  0  0  0
  6 21  1  6  0  0  0
  6 42  1  0  0  0  0
  7 15  1  0  0  0  0
  7 44  1  0  0  0  0
  7 32  1  1  0  0  0
  8  9  1  1  0  0  0
  8 17  1  0  0  0  0
 11 12  1  1  0  0  0
 11 20  1  0  0  0  0
 13  6  1  0  0  0  0
 13 14  1  6  0  0  0
 15 16  1  1  0  0  0
 15 24  1  0  0  0  0
 17 26  1  0  0  0  0
 18 10  1  0  0  0  0
 18 19  1  6  0  0  0
 20 21  1  1  0  0  0
 20 29  1  0  0  0  0
 22 13  1  0  0  0  0
 22 23  1  6  0  0  0
 24 25  1  1  0  0  0
 24 33  1  0  0  0  0
 26 27  1  1  0  0  0
 26 35  1  0  0  0  0
 28  2  1  6  0  0  0
 28 18  1  0  0  0  0
 29 30  1  0  0  0  0
 29 39  1  6  0  0  0
 31 22  1  0  0  0  0
 31 32  1  6  0  0  0
 31 41  1  0  0  0  0
 33 34  1  6  0  0  0
 33 43  1  0  0  0  0
 35 36  1  0  0  0  0
 35 45  1  6  0  0  0
 37 28  1  0  0  0  0
 37 38  1  1  0  0  0
 39 40  1  0  0  0  0
 41 42  1  0  0  0  0
 41 49  1  6  0  0  0
 43 44  1  0  0  0  0
 43 51  1  6  0  0  0
 45 46  1  0  0  0  0
 47 37  1  0  0  0  0
 47 48  1  1  0  0  0
 49 50  1  0  0  0  0
 51 52  1  0  0  0  0
M  END
>  <CHROM.1>
-122.04052374,-77.58816172,-154.98405059,178.16258863,83.38274957,-2.29613679
-166.30578960,-111.51003705,-53.85703686,-74.31359645,-107.90016535,-37.77455738
2.14912517,-49.64815450,11.06191388,-2.59662946,0.64154811,2.03578941

>  <Name>
2fd0_lig

>  <RI>
2.89522e+07

>  <Rbt.Current_Directory>
/home/itssahil/PROJECTS/Mol_Feturizer/New_Systems/rnas/2fd0

>  <Rbt.Executable>
rbdock ($Id: //depot/dev/client3/rdock/2013.1/src/exe/rbdock.cxx#4 $)

>  <Rbt.Library>
libRbt.so (2013.1, Build901 2013/11/27)

>  <Rbt.Parameter_File>
/export/apps/rDock/src/rDock_2013.1_src/data/scripts/dock_solv.prm

>  <Rbt.Receptor>
prm/pocket_docking_2.prm

>  <SCORE>
17.5042

>  <SCORE.INTER>
-6.68051

>  <SCORE.INTER.CONST>
1

>  <SCORE.INTER.POLAR>
-1.15469

>  <SCORE.INTER.ROT>
12

>  <SCORE.INTER.SOLV>
19.1018

>  <SCORE.INTER.VDW>
-18.572

>  <SCORE.INTER.norm>
-0.128471

>  <SCORE.INTRA>
16.8249

>  <SCORE.INTRA.DIHEDRAL>
11.2799

>  <SCORE.INTRA.DIHEDRAL.0>
23.9727

>  <SCORE.INTRA.POLAR>
0

>  <SCORE.INTRA.POLAR.0>
0

>  <SCORE.INTRA.REPUL>
0

>  <SCORE.INTRA.REPUL.0>
0

>  <SCORE.INTRA.SOLV>
8.9567

>  <SCORE.INTRA.SOLV.lig_0>
-115.028

>  <SCORE.INTRA.VDW>
6.70663

>  <SCORE.INTRA.VDW.0>
-6.82393

>  <SCORE.INTRA.norm>
0.323556

>  <SCORE.RESTR>
7.35981

>  <SCORE.RESTR.CAVITY>
7.35981

>  <SCORE.RESTR.norm>
0.141535

>  <SCORE.SYSTEM>
0

>  <SCORE.SYSTEM.CONST>
0

>  <SCORE.SYSTEM.DIHEDRAL>
0

>  <SCORE.SYSTEM.SOLV>
0

>  <SCORE.SYSTEM.norm>
0

>  <SCORE.heavy>
52

>  <SCORE.norm>
0.336619

>  <RMSD>
11.598

$$$$
2fd0_lig
 OpenBabel11021811433D
libRbt.so/2013.1/901 2013/11/27
 52 56  0  0  0  0  0  0  0  0999 V2000
    0.0592  -48.9898    7.0576 C   0  0  2  0  0  0  0  0  0  0  0  0
   -0.5592  -49.1667    8.3395 O   0  0  0  0  0  0  0  0  0  0  0  0
   -1.4850  -45.1115    9.6008 C   0  0  2  0  0  0  0  0  0  0  0  0
   -2.0967  -43.9728   10.3052 N   0  0  0  0  0  0  0  0  0  0  0  0
    1.8401  -48.0157   11.2884 C   0  0  1  0  0  0  0  0  0  0  0  0
    4.5890  -46.8826   12.7495 C   0  0  1  0  0  0  0  0  0  0  0  0
    9.5658  -45.0894   12.8391 C   0  0  1  0  0  0  0  0  0  0  0  0
    0.9503  -50.2490    6.7544 C   0  0  2  0  0  0  0  0  0  0  0  0
    0.1792  -51.4834    6.8018 N   0  0  0  0  0  0  0  0  0  0  0  0
   -2.6028  -45.9647    8.8555 C   0  0  0  0  0  0  0  0  0  0  0  0
    1.7369  -47.6863   12.7664 C   0  0  2  0  0  0  0  0  0  0  0  0
    1.7210  -46.2518   13.0119 O   0  0  0  0  0  0  0  0  0  0  0  0
    5.8235  -47.7801   12.2701 C   0  0  2  0  0  0  0  0  0  0  0  0
    6.6661  -48.1723   13.4327 N   0  0  0  0  0  0  0  0  0  0  0  0
    8.9889  -44.0885   13.8654 C   0  0  1  0  0  0  0  0  0  0  0  0
    8.7501  -44.7800   15.1163 O   0  0  0  0  0  0  0  0  0  0  0  0
    2.1773  -50.3014    7.7384 C   0  0  0  0  0  0  0  0  0  0  0  0
   -1.9332  -47.1975    8.0802 C   0  0  2  0  0  0  0  0  0  0  0  0
   -2.9462  -48.0047    7.3842 N   0  0  0  0  0  0  0  0  0  0  0  0
    2.9023  -48.4536   13.3678 C   0  0  2  0  0  0  0  0  0  0  0  0
    3.9355  -47.5919   13.7613 O   0  0  0  0  0  0  0  0  0  0  0  0
    6.5860  -46.9656   11.1012 C   0  0  1  0  0  0  0  0  0  0  0  0
    5.6316  -46.6829   10.0619 O   0  0  0  0  0  0  0  0  0  0  0  0
    9.8239  -42.8153   14.1700 C   0  0  1  0  0  0  0  0  0  0  0  0
   10.6499  -43.0910   15.3084 O   0  0  0  0  0  0  0  0  0  0  0  0
    2.9609  -48.9529    7.6275 C   0  0  2  0  0  0  0  0  0  0  0  0
    4.0928  -48.9674    8.4916 O   0  0  0  0  0  0  0  0  0  0  0  0
   -1.1554  -48.0775    9.0981 C   0  0  2  0  0  0  0  0  0  0  0  0
    3.5192  -49.3560   12.2726 C   0  0  2  0  0  0  0  0  0  0  0  0
    2.6017  -49.2072   11.1986 O   0  0  0  0  0  0  0  0  0  0  0  0
    7.1346  -45.5367   11.6221 C   0  0  2  0  0  0  0  0  0  0  0  0
    8.0938  -45.8688   12.6435 O   0  0  0  0  0  0  0  0  0  0  0  0
   10.7181  -42.2974   13.0200 C   0  0  2  0  0  0  0  0  0  0  0  0
   10.5901  -40.8587   13.0418 O   0  0  0  0  0  0  0  0  0  0  0  0
    2.0191  -47.7745    8.0073 C   0  0  2  0  0  0  0  0  0  0  0  0
    0.8679  -47.7853    7.0777 O   0  0  0  0  0  0  0  0  0  0  0  0
   -0.0851  -47.2733    9.8973 C   0  0  2  0  0  0  0  0  0  0  0  0
    0.5343  -48.1855   10.8355 O   0  0  0  0  0  0  0  0  0  0  0  0
    3.6058  -50.8363   12.6272 C   0  0  0  0  0  0  0  0  0  0  0  0
    2.2598  -51.3293   12.7069 O   0  0  0  0  0  0  0  0  0  0  0  0
    5.9472  -44.8568   12.2774 C   0  0  1  0  0  0  0  0  0  0  0  0
    5.0538  -45.4910   13.2163 O   0  0  0  0  0  0  0  0  0  0  0  0
   10.3171  -42.9258   11.6881 C   0  0  2  0  0  0  0  0  0  0  0  0
   10.2218  -44.3771   11.7036 O   0  0  0  0  0  0  0  0  0  0  0  0
    2.7006  -46.4486    7.8864 C   0  0  0  0  0  0  0  0  0  0  0  0
    2.8523  -46.1614    6.5226 O   0  0  0  0  0  0  0  0  0  0  0  0
   -0.7610  -46.0617   10.6373 C   0  0  1  0  0  0  0  0  0  0  0  0
    0.2832  -45.2990   11.3354 O   0  0  0  0  0  0  0  0  0  0  0  0
    6.2982  -43.4561   12.8933 C   0  0  0  0  0  0  0  0  0  0  0  0
    5.1281  -42.5548   13.0263 N   0  0  0  0  0  0  0  0  0  0  0  0
   11.0450  -42.5964   10.3868 C   0  0  0  0  0  0  0  0  0  0  0  0
   11.9529  -43.6819   10.0234 O   0  0  0  0  0  0  0  0  0  0  0  0
  1  2  1  1  0  0  0
  1  8  1  0  0  0  0
  1 36  1  0  0  0  0
  3  4  1  1  0  0  0
  3 10  1  0  0  0  0
  3 47  1  0  0  0  0
  5 11  1  0  0  0  0
  5 30  1  0  0  0  0
  5 38  1  1  0  0  0
  6 21  1  1  0  0  0
  6 42  1  0  0  0  0
  7 15  1  0  0  0  0
  7 44  1  0  0  0  0
  7 32  1  6  0  0  0
  8  9  1  1  0  0  0
  8 17  1  0  0  0  0
 11 12  1  6  0  0  0
 11 20  1  0  0  0  0
 13  6  1  0  0  0  0
 13 14  1  1  0  0  0
 15 16  1  1  0  0  0
 15 24  1  0  0  0  0
 17 26  1  0  0  0  0
 18 10  1  0  0  0  0
 18 19  1  1  0  0  0
 20 21  1  6  0  0  0
 20 29  1  0  0  0  0
 22 13  1  0  0  0  0
 22 23  1  6  0  0  0
 24 25  1  1  0  0  0
 24 33  1  0  0  0  0
 26 27  1  1  0  0  0
 26 35  1  0  0  0  0
 28  2  1  6  0  0  0
 28 18  1  0  0  0  0
 29 30  1  0  0  0  0
 29 39  1  1  0  0  0
 31 22  1  0  0  0  0
 31 32  1  1  0  0  0
 31 41  1  0  0  0  0
 33 34  1  6  0  0  0
 33 43  1  0  0  0  0
 35 36  1  0  0  0  0
 35 45  1  6  0  0  0
 37 28  1  0  0  0  0
 37 38  1  1  0  0  0
 39 40  1  0  0  0  0
 41 42  1  0  0  0  0
 41 49  1  1  0  0  0
 43 44  1  0  0  0  0
 43 51  1  6  0  0  0
 45 46  1  0  0  0  0
 47 37  1  0  0  0  0
 47 48  1  6  0  0  0
 49 50  1  0  0  0  0
 51 52  1  0  0  0  0
M  END
>  <CHROM.1>
163.07927534,112.90641013,-90.46832262,93.08507844,-65.03289096,41.64128974
67.08167458,139.05403355,72.55011315,152.14847008,156.25123707,102.74439218
4.08273746,-46.54690544,10.93882400,-2.73517412,-0.39948958,0.00410242

>  <Name>
2fd0_lig

>  <RI>
0

>  <Rbt.Current_Directory>
/home/itssahil/PROJECTS/Mol_Feturizer/New_Systems/rnas/2fd0

>  <Rbt.Executable>
rbdock ($Id: //depot/dev/client3/rdock/2013.1/src/exe/rbdock.cxx#4 $)

>  <Rbt.Library>
libRbt.so (2013.1, Build901 2013/11/27)

>  <Rbt.Parameter_File>
/export/apps/rDock/src/rDock_2013.1_src/data/scripts/dock_solv.prm

>  <Rbt.Receptor>
prm/pocket_docking_6.prm

>  <SCORE>
-0.235313

>  <SCORE.INTER>
-9.09944

>  <SCORE.INTER.CONST>
1

>  <SCORE.INTER.POLAR>
-1.30125

>  <SCORE.INTER.ROT>
12

>  <SCORE.INTER.SOLV>
11.8692

>  <SCORE.INTER.VDW>
-17.2852

>  <SCORE.INTER.norm>
-0.174989

>  <SCORE.INTRA>
8.8433

>  <SCORE.INTRA.DIHEDRAL>
9.54558

>  <SCORE.INTRA.DIHEDRAL.0>
23.9727

>  <SCORE.INTRA.POLAR>
0

>  <SCORE.INTRA.POLAR.0>
0

>  <SCORE.INTRA.REPUL>
0.0361519

>  <SCORE.INTRA.REPUL.0>
0

>  <SCORE.INTRA.SOLV>
-0.59091

>  <SCORE.INTRA.SOLV.lig_0>
-115.028

>  <SCORE.INTRA.VDW>
4.18521

>  <SCORE.INTRA.VDW.0>
-6.82393

>  <SCORE.INTRA.norm>
0.170064

>  <SCORE.RESTR>
0.0208248

>  <SCORE.RESTR.CAVITY>
0.0208248

>  <SCORE.RESTR.norm>
0.000400477

>  <SCORE.SYSTEM>
0

>  <SCORE.SYSTEM.CONST>
0

>  <SCORE.SYSTEM.DIHEDRAL>
0

>  <SCORE.SYSTEM.SOLV>
0

>  <SCORE.SYSTEM.norm>
0

>  <SCORE.heavy>
52

>  <SCORE.norm>
-0.00452525

>  <RMSD>
11.601

$$$$
2fd0_lig
 OpenBabel11021811433D
libRbt.so/2013.1/901 2013/11/27
 52 56  0  0  0  0  0  0  0  0999 V2000
    1.7207  -52.0643    6.7826 C   0  0  2  0  0  0  0  0  0  0  0  0
    2.6149  -52.0965    7.9034 O   0  0  0  0  0  0  0  0  0  0  0  0
    2.9874  -56.3476    8.7291 C   0  0  2  0  0  0  0  0  0  0  0  0
    3.4255  -57.6230    9.3194 N   0  0  0  0  0  0  0  0  0  0  0  0
    1.9951  -52.8887   11.4081 C   0  0  1  0  0  0  0  0  0  0  0  0
    4.2394  -50.1134   14.0990 C   0  0  1  0  0  0  0  0  0  0  0  0
    6.8730  -45.7553   14.0190 C   0  0  1  0  0  0  0  0  0  0  0  0
    1.6146  -50.5819    6.2700 C   0  0  2  0  0  0  0  0  0  0  0  0
    2.9179  -50.0342    5.9204 N   0  0  0  0  0  0  0  0  0  0  0  0
    4.2317  -55.5657    8.1181 C   0  0  0  0  0  0  0  0  0  0  0  0
    2.9884  -51.8020   11.0392 C   0  0  2  0  0  0  0  0  0  0  0  0
    4.2945  -52.3430   10.6935 O   0  0  0  0  0  0  0  0  0  0  0  0
    4.0568  -48.6293   13.5301 C   0  0  2  0  0  0  0  0  0  0  0  0
    4.9875  -48.3880   12.3939 N   0  0  0  0  0  0  0  0  0  0  0  0
    7.9238  -46.1608   12.9612 C   0  0  1  0  0  0  0  0  0  0  0  0
    7.2474  -46.7672   11.8321 O   0  0  0  0  0  0  0  0  0  0  0  0
    0.8832  -49.6847    7.3361 C   0  0  0  0  0  0  0  0  0  0  0  0
    3.7506  -54.1826    7.4662 C   0  0  2  0  0  0  0  0  0  0  0  0
    4.8832  -53.4383    6.8960 N   0  0  0  0  0  0  0  0  0  0  0  0
    2.9460  -50.8790   12.2454 C   0  0  2  0  0  0  0  0  0  0  0  0
    4.1129  -50.9862   13.0146 O   0  0  0  0  0  0  0  0  0  0  0  0
    4.2040  -47.6135   14.7781 C   0  0  1  0  0  0  0  0  0  0  0  0
    3.2277  -47.9829   15.7688 O   0  0  0  0  0  0  0  0  0  0  0  0
    8.8610  -45.0471   12.4204 C   0  0  1  0  0  0  0  0  0  0  0  0
    8.2675  -44.5094   11.2317 O   0  0  0  0  0  0  0  0  0  0  0  0
   -0.5069  -50.3257    7.6548 C   0  0  2  0  0  0  0  0  0  0  0  0
   -1.2103  -49.5315    8.6049 O   0  0  0  0  0  0  0  0  0  0  0  0
    3.0413  -53.3269    8.5526 C   0  0  2  0  0  0  0  0  0  0  0  0
    1.7993  -51.3358   13.1787 C   0  0  2  0  0  0  0  0  0  0  0  0
    1.1529  -52.3362   12.4048 O   0  0  0  0  0  0  0  0  0  0  0  0
    5.6505  -47.7390   15.4895 C   0  0  2  0  0  0  0  0  0  0  0  0
    6.5892  -47.3451   14.4710 O   0  0  0  0  0  0  0  0  0  0  0  0
    9.1678  -43.8850   13.3930 C   0  0  2  0  0  0  0  0  0  0  0  0
   10.5726  -43.5941   13.2250 O   0  0  0  0  0  0  0  0  0  0  0  0
   -0.2983  -51.7617    8.2152 C   0  0  2  0  0  0  0  0  0  0  0  0
    0.4191  -52.5563    7.1937 O   0  0  0  0  0  0  0  0  0  0  0  0
    1.8477  -54.0723    9.2240 C   0  0  2  0  0  0  0  0  0  0  0  0
    1.3028  -53.1961   10.2397 O   0  0  0  0  0  0  0  0  0  0  0  0
    0.7759  -50.2588   13.5208 C   0  0  0  0  0  0  0  0  0  0  0  0
   -0.2171  -50.8723   14.3568 O   0  0  0  0  0  0  0  0  0  0  0  0
    5.8393  -49.2170   15.7749 C   0  0  1  0  0  0  0  0  0  0  0  0
    5.5868  -50.2746   14.8264 O   0  0  0  0  0  0  0  0  0  0  0  0
    8.7876  -44.2535   14.8246 C   0  0  2  0  0  0  0  0  0  0  0  0
    7.4353  -44.7647   14.9833 O   0  0  0  0  0  0  0  0  0  0  0  0
   -1.5961  -52.4453    8.5076 C   0  0  0  0  0  0  0  0  0  0  0  0
   -2.3010  -52.5720    7.3022 O   0  0  0  0  0  0  0  0  0  0  0  0
    2.3391  -55.4315    9.8435 C   0  0  1  0  0  0  0  0  0  0  0  0
    1.1808  -56.1282   10.4199 O   0  0  0  0  0  0  0  0  0  0  0  0
    7.2255  -49.5483   16.4328 C   0  0  0  0  0  0  0  0  0  0  0  0
    7.3060  -50.9196   16.9918 N   0  0  0  0  0  0  0  0  0  0  0  0
    8.9762  -43.2814   15.9870 C   0  0  0  0  0  0  0  0  0  0  0  0
   10.3835  -42.9109   16.1166 O   0  0  0  0  0  0  0  0  0  0  0  0
  1  2  1  1  0  0  0
  1  8  1  0  0  0  0
  1 36  1  0  0  0  0
  3  4  1  1  0  0  0
  3 10  1  0  0  0  0
  3 47  1  0  0  0  0
  5 11  1  0  0  0  0
  5 30  1  0  0  0  0
  5 38  1  6  0  0  0
  6 21  1  6  0  0  0
  6 42  1  0  0  0  0
  7 15  1  0  0  0  0
  7 44  1  0  0  0  0
  7 32  1  1  0  0  0
  8  9  1  1  0  0  0
  8 17  1  0  0  0  0
 11 12  1  1  0  0  0
 11 20  1  0  0  0  0
 13  6  1  0  0  0  0
 13 14  1  6  0  0  0
 15 16  1  6  0  0  0
 15 24  1  0  0  0  0
 17 26  1  0  0  0  0
 18 10  1  0  0  0  0
 18 19  1  1  0  0  0
 20 21  1  1  0  0  0
 20 29  1  0  0  0  0
 22 13  1  0  0  0  0
 22 23  1  1  0  0  0
 24 25  1  6  0  0  0
 24 33  1  0  0  0  0
 26 27  1  1  0  0  0
 26 35  1  0  0  0  0
 28  2  1  6  0  0  0
 28 18  1  0  0  0  0
 29 30  1  0  0  0  0
 29 39  1  6  0  0  0
 31 22  1  0  0  0  0
 31 32  1  6  0  0  0
 31 41  1  0  0  0  0
 33 34  1  1  0  0  0
 33 43  1  0  0  0  0
 35 36  1  0  0  0  0
 35 45  1  6  0  0  0
 37 28  1  0  0  0  0
 37 38  1  1  0  0  0
 39 40  1  0  0  0  0
 41 42  1  0  0  0  0
 41 49  1  6  0  0  0
 43 44  1  0  0  0  0
 43 51  1  1  0  0  0
 45 46  1  0  0  0  0
 47 37  1  0  0  0  0
 47 48  1  6  0  0  0
 49 50  1  0  0  0  0
 51 52  1  0  0  0  0
M  END
>  <CHROM.1>
-174.23543150,80.55401098,-54.58068186,-179.98802446,175.35361571,59.35993084
178.52708930,76.94236420,62.26322159,-69.22079228,167.02433591,-59.62285785
3.96827511,-50.07205801,11.52220986,-2.92718994,0.95295600,1.96967795

>  <Name>
2fd0_lig

>  <RI>
3.4301e+07

>  <Rbt.Current_Directory>
/home/itssahil/PROJECTS/Mol_Feturizer/New_Systems/rnas/2fd0

>  <Rbt.Executable>
rbdock ($Id: //depot/dev/client3/rdock/2013.1/src/exe/rbdock.cxx#4 $)

>  <Rbt.Library>
libRbt.so (2013.1, Build901 2013/11/27)

>  <Rbt.Parameter_File>
/export/apps/rDock/src/rDock_2013.1_src/data/scripts/dock_solv.prm

>  <Rbt.Receptor>
prm/pocket_docking_7.prm

>  <SCORE>
-22.4558

>  <SCORE.INTER>
-15.8865

>  <SCORE.INTER.CONST>
1

>  <SCORE.INTER.POLAR>
-1.85961

>  <SCORE.INTER.ROT>
12

>  <SCORE.INTER.SOLV>
16.9124

>  <SCORE.INTER.VDW>
-21.6298

>  <SCORE.INTER.norm>
-0.305511

>  <SCORE.INTRA>
-6.57392

>  <SCORE.INTRA.DIHEDRAL>
-17.8178

>  <SCORE.INTRA.DIHEDRAL.0>
23.9727

>  <SCORE.INTRA.POLAR>
0

>  <SCORE.INTRA.POLAR.0>
0

>  <SCORE.INTRA.REPUL>
0

>  <SCORE.INTRA.REPUL.0>
0

>  <SCORE.INTRA.SOLV>
-1.37281

>  <SCORE.INTRA.SOLV.lig_0>
-115.028

>  <SCORE.INTRA.VDW>
3.02138

>  <SCORE.INTRA.VDW.0>
-6.82393

>  <SCORE.INTRA.norm>
-0.126422

>  <SCORE.RESTR>
0.00469231

>  <SCORE.RESTR.CAVITY>
0.00469231

>  <SCORE.RESTR.norm>
9.02368e-05

>  <SCORE.SYSTEM>
0

>  <SCORE.SYSTEM.CONST>
0

>  <SCORE.SYSTEM.DIHEDRAL>
0

>  <SCORE.SYSTEM.SOLV>
0

>  <SCORE.SYSTEM.norm>
0

>  <SCORE.heavy>
52

>  <SCORE.norm>
-0.431842

>  <RMSD>
11.618

$$$$
2fd0_lig
 OpenBabel11021811433D
libRbt.so/2013.1/901 2013/11/27
 52 56  0  0  0  0  0  0  0  0999 V2000
   -5.1273  -51.4055    7.2667 C   0  0  2  0  0  0  0  0  0  0  0  0
   -3.8697  -50.7211    7.3512 O   0  0  0  0  0  0  0  0  0  0  0  0
   -1.1633  -53.6974    8.9974 C   0  0  2  0  0  0  0  0  0  0  0  0
    0.0264  -54.3252    9.5953 N   0  0  0  0  0  0  0  0  0  0  0  0
   -2.7995  -49.7806   10.5787 C   0  0  1  0  0  0  0  0  0  0  0  0
    1.0356  -48.0113   12.2671 C   0  0  1  0  0  0  0  0  0  0  0  0
    2.3358  -43.1806   11.7263 C   0  0  1  0  0  0  0  0  0  0  0  0
   -6.0366  -50.6538    6.2277 C   0  0  2  0  0  0  0  0  0  0  0  0
   -5.4009  -50.5562    4.9211 N   0  0  0  0  0  0  0  0  0  0  0  0
   -0.7781  -52.9699    7.6353 C   0  0  0  0  0  0  0  0  0  0  0  0
   -1.8261  -50.2460   11.6461 C   0  0  2  0  0  0  0  0  0  0  0  0
   -2.3375  -50.0289   12.9913 O   0  0  0  0  0  0  0  0  0  0  0  0
    1.0135  -46.6520   13.1105 C   0  0  2  0  0  0  0  0  0  0  0  0
    0.0195  -45.7012   12.5417 N   0  0  0  0  0  0  0  0  0  0  0  0
    3.8009  -42.9689   11.2833 C   0  0  1  0  0  0  0  0  0  0  0  0
    3.8493  -42.8826    9.8376 O   0  0  0  0  0  0  0  0  0  0  0  0
   -6.4385  -49.2350    6.7770 C   0  0  0  0  0  0  0  0  0  0  0  0
   -2.0771  -52.2966    6.9806 C   0  0  2  0  0  0  0  0  0  0  0  0
   -1.7476  -51.6145    5.7204 N   0  0  0  0  0  0  0  0  0  0  0  0
   -0.5496  -49.5033   11.2892 C   0  0  2  0  0  0  0  0  0  0  0  0
   -0.2814  -48.4753   12.2037 O   0  0  0  0  0  0  0  0  0  0  0  0
    2.5329  -46.1075   13.1866 C   0  0  1  0  0  0  0  0  0  0  0  0
    3.3467  -47.1421   13.7684 O   0  0  0  0  0  0  0  0  0  0  0  0
    4.5539  -41.7418   11.8650 C   0  0  1  0  0  0  0  0  0  0  0  0
    4.4021  -40.6537   10.9445 O   0  0  0  0  0  0  0  0  0  0  0  0
   -7.1209  -49.4176    8.1720 C   0  0  2  0  0  0  0  0  0  0  0  0
   -7.5172  -48.1543    8.6966 O   0  0  0  0  0  0  0  0  0  0  0  0
   -2.6913  -51.2871    7.9902 C   0  0  2  0  0  0  0  0  0  0  0  0
   -0.7524  -48.7953    9.9283 C   0  0  2  0  0  0  0  0  0  0  0  0
   -2.0113  -49.2983    9.5045 O   0  0  0  0  0  0  0  0  0  0  0  0
    3.1423  -45.8153   11.7177 C   0  0  2  0  0  0  0  0  0  0  0  0
    2.3112  -44.7674   11.1840 O   0  0  0  0  0  0  0  0  0  0  0  0
    4.1065  -41.2724   13.2686 C   0  0  2  0  0  0  0  0  0  0  0  0
    5.3214  -40.9426   13.9770 O   0  0  0  0  0  0  0  0  0  0  0  0
   -6.1261  -50.1083    9.1482 C   0  0  2  0  0  0  0  0  0  0  0  0
   -5.7534  -51.4208    8.5755 O   0  0  0  0  0  0  0  0  0  0  0  0
   -3.0336  -51.9400    9.3641 C   0  0  2  0  0  0  0  0  0  0  0  0
   -3.5520  -50.8975   10.2246 O   0  0  0  0  0  0  0  0  0  0  0  0
    0.2830  -49.1348    8.8619 C   0  0  0  0  0  0  0  0  0  0  0  0
    0.3256  -50.5660    8.7574 O   0  0  0  0  0  0  0  0  0  0  0  0
    2.9002  -47.0798   10.9154 C   0  0  1  0  0  0  0  0  0  0  0  0
    1.6487  -47.7966   10.8712 O   0  0  0  0  0  0  0  0  0  0  0  0
    3.2664  -42.3414   13.9622 C   0  0  2  0  0  0  0  0  0  0  0  0
    2.1583  -42.8534   13.1714 O   0  0  0  0  0  0  0  0  0  0  0  0
   -6.7324  -50.3450   10.4948 C   0  0  0  0  0  0  0  0  0  0  0  0
   -6.9581  -49.0978   11.0942 O   0  0  0  0  0  0  0  0  0  0  0  0
   -1.7496  -52.6061    9.9806 C   0  0  1  0  0  0  0  0  0  0  0  0
   -2.1211  -53.2541   11.2462 O   0  0  0  0  0  0  0  0  0  0  0  0
    3.3892  -46.9720    9.4275 C   0  0  0  0  0  0  0  0  0  0  0  0
    4.8534  -46.7770    9.2954 N   0  0  0  0  0  0  0  0  0  0  0  0
    2.6855  -42.1331   15.3590 C   0  0  0  0  0  0  0  0  0  0  0  0
    2.1406  -43.3866   15.8750 O   0  0  0  0  0  0  0  0  0  0  0  0
  1  2  1  1  0  0  0
  1  8  1  0  0  0  0
  1 36  1  0  0  0  0
  3  4  1  1  0  0  0
  3 10  1  0  0  0  0
  3 47  1  0  0  0  0
  5 11  1  0  0  0  0
  5 30  1  0  0  0  0
  5 38  1  6  0  0  0
  6 21  1  6  0  0  0
  6 42  1  0  0  0  0
  7 15  1  0  0  0  0
  7 44  1  0  0  0  0
  7 32  1  1  0  0  0
  8  9  1  6  0  0  0
  8 17  1  0  0  0  0
 11 12  1  1  0  0  0
 11 20  1  0  0  0  0
 13  6  1  0  0  0  0
 13 14  1  6  0  0  0
 15 16  1  6  0  0  0
 15 24  1  0  0  0  0
 17 26  1  0  0  0  0
 18 10  1  0  0  0  0
 18 19  1  6  0  0  0
 20 21  1  1  0  0  0
 20 29  1  0  0  0  0
 22 13  1  0  0  0  0
 22 23  1  6  0  0  0
 24 25  1  6  0  0  0
 24 33  1  0  0  0  0
 26 27  1  1  0  0  0
 26 35  1  0  0  0  0
 28  2  1  6  0  0  0
 28 18  1  0  0  0  0
 29 30  1  0  0  0  0
 29 39  1  6  0  0  0
 31 22  1  0  0  0  0
 31 32  1  6  0  0  0
 31 41  1  0  0  0  0
 33 34  1  1  0  0  0
 33 43  1  0  0  0  0
 35 36  1  0  0  0  0
 35 45  1  1  0  0  0
 37 28  1  0  0  0  0
 37 38  1  1  0  0  0
 39 40  1  0  0  0  0
 41 42  1  0  0  0  0
 41 49  1  6  0  0  0
 43 44  1  0  0  0  0
 43 51  1  1  0  0  0
 45 46  1  0  0  0  0
 47 37  1  0  0  0  0
 47 48  1  1  0  0  0
 49 50  1  0  0  0  0
 51 52  1  0  0  0  0
M  END
>  <CHROM.1>
-166.47889575,-77.03602387,167.34651934,63.45169832,159.56551652,78.46747676
53.05970735,71.25618607,-66.87860308,-60.92916371,63.30492659,-169.69887005
-0.59508834,-48.02174715,10.45123849,2.28952349,0.09226849,-2.72619434

>  <Name>
2fd0_lig

>  <RI>
0

>  <Rbt.Current_Directory>
/home/itssahil/PROJECTS/Mol_Feturizer/New_Systems/rnas/2fd0

>  <Rbt.Executable>
rbdock ($Id: //depot/dev/client3/rdock/2013.1/src/exe/rbdock.cxx#4 $)

>  <Rbt.Library>
libRbt.so (2013.1, Build901 2013/11/27)

>  <Rbt.Parameter_File>
/export/apps/rDock/src/rDock_2013.1_src/data/scripts/dock_solv.prm

>  <Rbt.Receptor>
prm/pocket_docking_8.prm

>  <SCORE>
-15.1559

>  <SCORE.INTER>
-10.3285

>  <SCORE.INTER.CONST>
1

>  <SCORE.INTER.POLAR>
-1.80975

>  <SCORE.INTER.ROT>
12

>  <SCORE.INTER.SOLV>
13.2396

>  <SCORE.INTER.VDW>
-16.8664

>  <SCORE.INTER.norm>
-0.198625

>  <SCORE.INTRA>
-4.82742

>  <SCORE.INTRA.DIHEDRAL>
-14.5471

>  <SCORE.INTRA.DIHEDRAL.0>
23.9727

>  <SCORE.INTRA.POLAR>
0

>  <SCORE.INTRA.POLAR.0>
0

>  <SCORE.INTRA.REPUL>
0

>  <SCORE.INTRA.REPUL.0>
0

>  <SCORE.INTRA.SOLV>
0.703798

>  <SCORE.INTRA.SOLV.lig_0>
-115.028

>  <SCORE.INTRA.VDW>
2.09421

>  <SCORE.INTRA.VDW.0>
-6.82393

>  <SCORE.INTRA.norm>
-0.092835

>  <SCORE.RESTR>
0

>  <SCORE.RESTR.CAVITY>
0

>  <SCORE.RESTR.norm>
0

>  <SCORE.SYSTEM>
0

>  <SCORE.SYSTEM.CONST>
0

>  <SCORE.SYSTEM.DIHEDRAL>
0

>  <SCORE.SYSTEM.SOLV>
0

>  <SCORE.SYSTEM.norm>
0

>  <SCORE.heavy>
52

>  <SCORE.norm>
-0.29146

>  <RMSD>
11.662

$$$$
2fd0_lig
 OpenBabel11021811433D
libRbt.so/2013.1/901 2013/11/27
 52 56  0  0  0  0  0  0  0  0999 V2000
   -3.4478  -52.3375    6.8007 C   0  0  2  0  0  0  0  0  0  0  0  0
   -2.0247  -52.3919    6.6309 O   0  0  0  0  0  0  0  0  0  0  0  0
   -0.9346  -56.0774    8.6609 C   0  0  2  0  0  0  0  0  0  0  0  0
   -0.1390  -57.1902    9.2047 N   0  0  0  0  0  0  0  0  0  0  0  0
    0.3570  -51.6793    8.9096 C   0  0  1  0  0  0  0  0  0  0  0  0
    2.4185  -48.1784    9.7909 C   0  0  1  0  0  0  0  0  0  0  0  0
    5.7478  -44.4066   11.5091 C   0  0  1  0  0  0  0  0  0  0  0  0
   -4.0317  -51.2820    5.7924 C   0  0  2  0  0  0  0  0  0  0  0  0
   -3.6768  -51.5936    4.4148 N   0  0  0  0  0  0  0  0  0  0  0  0
   -0.7325  -55.9722    7.0858 C   0  0  0  0  0  0  0  0  0  0  0  0
    0.5468  -50.4671    9.8030 C   0  0  2  0  0  0  0  0  0  0  0  0
    0.0611  -49.2434    9.1826 O   0  0  0  0  0  0  0  0  0  0  0  0
    3.3899  -47.2329    8.9414 C   0  0  2  0  0  0  0  0  0  0  0  0
    4.8101  -47.6328    9.1377 N   0  0  0  0  0  0  0  0  0  0  0  0
    6.8514  -45.4077   11.9185 C   0  0  1  0  0  0  0  0  0  0  0  0
    7.3888  -46.0317   10.7261 O   0  0  0  0  0  0  0  0  0  0  0  0
   -3.5692  -49.8312    6.1894 C   0  0  0  0  0  0  0  0  0  0  0  0
   -1.6083  -54.7669    6.4944 C   0  0  2  0  0  0  0  0  0  0  0  0
   -1.4373  -54.6462    5.0391 N   0  0  0  0  0  0  0  0  0  0  0  0
    2.0315  -50.5097   10.1228 C   0  0  2  0  0  0  0  0  0  0  0  0
    2.7304  -49.4977    9.4504 O   0  0  0  0  0  0  0  0  0  0  0  0
    3.0369  -45.7050    9.3311 C   0  0  1  0  0  0  0  0  0  0  0  0
    1.6383  -45.4915    9.0682 O   0  0  0  0  0  0  0  0  0  0  0  0
    8.0403  -44.8597   12.7535 C   0  0  1  0  0  0  0  0  0  0  0  0
    9.0863  -44.4936   11.8447 O   0  0  0  0  0  0  0  0  0  0  0  0
   -3.9901  -49.5638    7.6713 C   0  0  2  0  0  0  0  0  0  0  0  0
   -3.6046  -48.2504    8.0644 O   0  0  0  0  0  0  0  0  0  0  0  0
   -1.1907  -53.4431    7.1934 C   0  0  2  0  0  0  0  0  0  0  0  0
    2.6166  -51.8367    9.5832 C   0  0  2  0  0  0  0  0  0  0  0  0
    1.4542  -52.5385    9.1663 O   0  0  0  0  0  0  0  0  0  0  0  0
    3.2569  -45.4192   10.9073 C   0  0  2  0  0  0  0  0  0  0  0  0
    4.6660  -45.6272   11.1187 O   0  0  0  0  0  0  0  0  0  0  0  0
    7.7297  -43.6519   13.6674 C   0  0  2  0  0  0  0  0  0  0  0  0
    8.4346  -43.9039   14.9027 O   0  0  0  0  0  0  0  0  0  0  0  0
   -3.3146  -50.6143    8.5986 C   0  0  2  0  0  0  0  0  0  0  0  0
   -3.7532  -51.9603    8.1680 O   0  0  0  0  0  0  0  0  0  0  0  0
   -1.3159  -53.5145    8.7459 C   0  0  2  0  0  0  0  0  0  0  0  0
   -0.8594  -52.2480    9.2785 O   0  0  0  0  0  0  0  0  0  0  0  0
    3.3464  -52.6890   10.6154 C   0  0  0  0  0  0  0  0  0  0  0  0
    3.9263  -53.7978    9.9114 O   0  0  0  0  0  0  0  0  0  0  0  0
    2.4933  -46.5117   11.6316 C   0  0  1  0  0  0  0  0  0  0  0  0
    2.5575  -47.9149   11.3014 O   0  0  0  0  0  0  0  0  0  0  0  0
    6.2246  -43.4744   13.8486 C   0  0  2  0  0  0  0  0  0  0  0  0
    5.4617  -43.4415   12.6107 O   0  0  0  0  0  0  0  0  0  0  0  0
   -3.7065  -50.4347   10.0309 C   0  0  0  0  0  0  0  0  0  0  0  0
   -3.1730  -49.2175   10.4774 O   0  0  0  0  0  0  0  0  0  0  0  0
   -0.4613  -54.7114    9.3024 C   0  0  1  0  0  0  0  0  0  0  0  0
   -0.6447  -54.7792   10.7588 O   0  0  0  0  0  0  0  0  0  0  0  0
    2.6265  -46.4288   13.1936 C   0  0  0  0  0  0  0  0  0  0  0  0
    1.9610  -47.5454   13.9074 N   0  0  0  0  0  0  0  0  0  0  0  0
    5.6396  -42.3478   14.6975 C   0  0  0  0  0  0  0  0  0  0  0  0
    4.1801  -42.4130   14.6926 O   0  0  0  0  0  0  0  0  0  0  0  0
  1  2  1  1  0  0  0
  1  8  1  0  0  0  0
  1 36  1  0  0  0  0
  3  4  1  1  0  0  0
  3 10  1  0  0  0  0
  3 47  1  0  0  0  0
  5 11  1  0  0  0  0
  5 30  1  0  0  0  0
  5 38  1  1  0  0  0
  6 21  1  1  0  0  0
  6 42  1  0  0  0  0
  7 15  1  0  0  0  0
  7 44  1  0  0  0  0
  7 32  1  1  0  0  0
  8  9  1  6  0  0  0
  8 17  1  0  0  0  0
 11 12  1  6  0  0  0
 11 20  1  0  0  0  0
 13  6  1  0  0  0  0
 13 14  1  1  0  0  0
 15 16  1  6  0  0  0
 15 24  1  0  0  0  0
 17 26  1  0  0  0  0
 18 10  1  0  0  0  0
 18 19  1  6  0  0  0
 20 21  1  6  0  0  0
 20 29  1  0  0  0  0
 22 13  1  0  0  0  0
 22 23  1  1  0  0  0
 24 25  1  6  0  0  0
 24 33  1  0  0  0  0
 26 27  1  1  0  0  0
 26 35  1  0  0  0  0
 28  2  1  6  0  0  0
 28 18  1  0  0  0  0
 29 30  1  0  0  0  0
 29 39  1  1  0  0  0
 31 22  1  0  0  0  0
 31 32  1  6  0  0  0
 31 41  1  0  0  0  0
 33 34  1  1  0  0  0
 33 43  1  0  0  0  0
 35 36  1  0  0  0  0
 35 45  1  1  0  0  0
 37 28  1  0  0  0  0
 37 38  1  1  0  0  0
 39 40  1  0  0  0  0
 41 42  1  0  0  0  0
 41 49  1  1  0  0  0
 43 44  1  0  0  0  0
 43 51  1  6  0  0  0
 45 46  1  0  0  0  0
 47 37  1  0  0  0  0
 47 48  1  1  0  0  0
 49 50  1  0  0  0  0
 51 52  1  0  0  0  0
M  END
>  <CHROM.1>
-166.86582674,-173.03084777,177.46078691,166.05878624,64.33825782,64.89304669
-174.41849053,112.19105780,-66.76917196,-50.38648497,-176.04316745,179.80406427
1.51110271,-49.28998510,9.89542135,2.31379371,0.38097542,-2.94242510

>  <Name>
2fd0_lig

>  <RI>
0

>  <Rbt.Current_Directory>
/home/itssahil/PROJECTS/Mol_Feturizer/New_Systems/rnas/2fd0

>  <Rbt.Executable>
rbdock ($Id: //depot/dev/client3/rdock/2013.1/src/exe/rbdock.cxx#4 $)

>  <Rbt.Library>
libRbt.so (2013.1, Build901 2013/11/27)

>  <Rbt.Parameter_File>
/export/apps/rDock/src/rDock_2013.1_src/data/scripts/dock_solv.prm

>  <Rbt.Receptor>
prm/pocket_docking_6.prm

>  <SCORE>
-18.8484

>  <SCORE.INTER>
-12.8233

>  <SCORE.INTER.CONST>
1

>  <SCORE.INTER.POLAR>
-2.66716

>  <SCORE.INTER.ROT>
12

>  <SCORE.INTER.SOLV>
18.8117

>  <SCORE.INTER.VDW>
-17.5289

>  <SCORE.INTER.norm>
-0.246602

>  <SCORE.INTRA>
-6.02506

>  <SCORE.INTRA.DIHEDRAL>
-12.7743

>  <SCORE.INTRA.DIHEDRAL.0>
23.9727

>  <SCORE.INTRA.POLAR>
0

>  <SCORE.INTRA.POLAR.0>
0

>  <SCORE.INTRA.REPUL>
0

>  <SCORE.INTRA.REPUL.0>
0

>  <SCORE.INTRA.SOLV>
-2.5647

>  <SCORE.INTRA.SOLV.lig_0>
-115.028

>  <SCORE.INTRA.VDW>
1.64445

>  <SCORE.INTRA.VDW.0>
-6.82393

>  <SCORE.INTRA.norm>
-0.115866

>  <SCORE.RESTR>
0

>  <SCORE.RESTR.CAVITY>
0

>  <SCORE.RESTR.norm>
0

>  <SCORE.SYSTEM>
0

>  <SCORE.SYSTEM.CONST>
0

>  <SCORE.SYSTEM.DIHEDRAL>
0

>  <SCORE.SYSTEM.SOLV>
0

>  <SCORE.SYSTEM.norm>
0

>  <SCORE.heavy>
52

>  <SCORE.norm>
-0.362469

>  <RMSD>
11.664

$$$$
2fd0_lig
 OpenBabel11021811433D
libRbt.so/2013.1/901 2013/11/27
 52 56  0  0  0  0  0  0  0  0999 V2000
   -1.9816  -51.1120    8.4974 C   0  0  2  0  0  0  0  0  0  0  0  0
   -1.6369  -52.4943    8.6629 O   0  0  0  0  0  0  0  0  0  0  0  0
    1.9599  -54.6359    9.8328 C   0  0  2  0  0  0  0  0  0  0  0  0
    3.3184  -55.2024    9.8097 N   0  0  0  0  0  0  0  0  0  0  0  0
    1.3306  -50.1865   10.5562 C   0  0  1  0  0  0  0  0  0  0  0  0
    1.9596  -46.2026   12.6136 C   0  0  1  0  0  0  0  0  0  0  0  0
    3.7752  -41.3710   12.1795 C   0  0  1  0  0  0  0  0  0  0  0  0
   -3.5463  -50.9752    8.5650 C   0  0  2  0  0  0  0  0  0  0  0  0
   -4.0840  -51.5072    9.8095 N   0  0  0  0  0  0  0  0  0  0  0  0
    1.1255  -55.1508    8.5792 C   0  0  0  0  0  0  0  0  0  0  0  0
    1.1407  -48.7602   10.0734 C   0  0  2  0  0  0  0  0  0  0  0  0
    2.2216  -48.3244    9.2017 O   0  0  0  0  0  0  0  0  0  0  0  0
    0.9883  -45.0926   11.9939 C   0  0  2  0  0  0  0  0  0  0  0  0
    1.4881  -44.6450   10.6653 N   0  0  0  0  0  0  0  0  0  0  0  0
    4.7855  -42.1829   11.3380 C   0  0  1  0  0  0  0  0  0  0  0  0
    4.2694  -42.3284    9.9918 O   0  0  0  0  0  0  0  0  0  0  0  0
   -4.2106  -51.6609    7.3140 C   0  0  0  0  0  0  0  0  0  0  0  0
   -0.3567  -54.5416    8.6125 C   0  0  2  0  0  0  0  0  0  0  0  0
   -1.1489  -55.0003    7.4619 N   0  0  0  0  0  0  0  0  0  0  0  0
    0.9724  -47.9828   11.3680 C   0  0  2  0  0  0  0  0  0  0  0  0
    2.1038  -47.2048   11.6500 O   0  0  0  0  0  0  0  0  0  0  0  0
    0.8181  -43.9287   13.1017 C   0  0  1  0  0  0  0  0  0  0  0  0
    0.3184  -44.5336   14.3081 O   0  0  0  0  0  0  0  0  0  0  0  0
    6.2366  -41.6390   11.2419 C   0  0  1  0  0  0  0  0  0  0  0  0
    6.3253  -40.8230   10.0669 O   0  0  0  0  0  0  0  0  0  0  0  0
   -3.5944  -51.0363    6.0198 C   0  0  2  0  0  0  0  0  0  0  0  0
   -4.1842  -51.6189    4.8618 O   0  0  0  0  0  0  0  0  0  0  0  0
   -0.2697  -52.9898    8.6170 C   0  0  2  0  0  0  0  0  0  0  0  0
    0.8671  -48.9882   12.5395 C   0  0  2  0  0  0  0  0  0  0  0  0
    0.7956  -50.2374   11.8673 O   0  0  0  0  0  0  0  0  0  0  0  0
    2.2343  -43.2474   13.4820 C   0  0  2  0  0  0  0  0  0  0  0  0
    2.6853  -42.6434   12.2551 O   0  0  0  0  0  0  0  0  0  0  0  0
    6.7380  -40.8213   12.4546 C   0  0  2  0  0  0  0  0  0  0  0  0
    8.1029  -41.2409   12.6726 O   0  0  0  0  0  0  0  0  0  0  0  0
   -2.0577  -51.2771    6.0101 C   0  0  2  0  0  0  0  0  0  0  0  0
   -1.4833  -50.6437    7.2177 O   0  0  0  0  0  0  0  0  0  0  0  0
    0.5877  -52.4367    9.7960 C   0  0  2  0  0  0  0  0  0  0  0  0
    0.6294  -50.9954    9.6656 O   0  0  0  0  0  0  0  0  0  0  0  0
   -0.3764  -48.8402   13.4092 C   0  0  0  0  0  0  0  0  0  0  0  0
   -0.3122  -47.5414   14.0176 O   0  0  0  0  0  0  0  0  0  0  0  0
    3.1627  -44.3974   13.8241 C   0  0  1  0  0  0  0  0  0  0  0  0
    3.3107  -45.5956   13.0339 O   0  0  0  0  0  0  0  0  0  0  0  0
    5.8344  -41.0290   13.6670 C   0  0  2  0  0  0  0  0  0  0  0  0
    4.4168  -40.8267   13.4120 O   0  0  0  0  0  0  0  0  0  0  0  0
   -1.4009  -50.6704    4.8110 C   0  0  0  0  0  0  0  0  0  0  0  0
   -1.6147  -49.2854    4.8536 O   0  0  0  0  0  0  0  0  0  0  0  0
    2.0315  -53.0581    9.7522 C   0  0  1  0  0  0  0  0  0  0  0  0
    2.7918  -52.5552   10.9048 O   0  0  0  0  0  0  0  0  0  0  0  0
    4.6191  -43.9322   14.1805 C   0  0  0  0  0  0  0  0  0  0  0  0
    5.5902  -45.0478   14.2879 N   0  0  0  0  0  0  0  0  0  0  0  0
    6.0949  -40.3291   14.9990 C   0  0  0  0  0  0  0  0  0  0  0  0
    7.4146  -40.6886   15.5125 O   0  0  0  0  0  0  0  0  0  0  0  0
  1  2  1  6  0  0  0
  1  8  1  0  0  0  0
  1 36  1  0  0  0  0
  3  4  1  6  0  0  0
  3 10  1  0  0  0  0
  3 47  1  0  0  0  0
  5 11  1  0  0  0  0
  5 30  1  0  0  0  0
  5 38  1  6  0  0  0
  6 21  1  6  0  0  0
  6 42  1  0  0  0  0
  7 15  1  0  0  0  0
  7 44  1  0  0  0  0
  7 32  1  1  0  0  0
  8  9  1  1  0  0  0
  8 17  1  0  0  0  0
 11 12  1  1  0  0  0
 11 20  1  0  0  0  0
 13  6  1  0  0  0  0
 13 14  1  6  0  0  0
 15 16  1  6  0  0  0
 15 24  1  0  0  0  0
 17 26  1  0  0  0  0
 18 10  1  0  0  0  0
 18 19  1  6  0  0  0
 20 21  1  1  0  0  0
 20 29  1  0  0  0  0
 22 13  1  0  0  0  0
 22 23  1  1  0  0  0
 24 25  1  6  0  0  0
 24 33  1  0  0  0  0
 26 27  1  6  0  0  0
 26 35  1  0  0  0  0
 28  2  1  1  0  0  0
 28 18  1  0  0  0  0
 29 30  1  0  0  0  0
 29 39  1  6  0  0  0
 31 22  1  0  0  0  0
 31 32  1  6  0  0  0
 31 41  1  0  0  0  0
 33 34  1  1  0  0  0
 33 43  1  0  0  0  0
 35 36  1  0  0  0  0
 35 45  1  6  0  0  0
 37 28  1  0  0  0  0
 37 38  1  6  0  0  0
 39 40  1  0  0  0  0
 41 42  1  0  0  0  0
 41 49  1  6  0  0  0
 43 44  1  0  0  0  0
 43 51  1  1  0  0  0
 45 46  1  0  0  0  0
 47 37  1  0  0  0  0
 47 48  1  1  0  0  0
 49 50  1  0  0  0  0
 51 52  1  0  0  0  0
M  END
>  <CHROM.1>
178.27497245,179.44300731,-68.25788031,120.50237520,164.61051983,-171.21817958
-62.90370208,156.94496505,61.52651770,-179.27993680,-170.06198460,-59.27443207
1.57830170,-47.63020348,10.68936924,2.27681908,0.74881659,3.07116147

>  <Name>
2fd0_lig

>  <RI>
3.4301e+07

>  <Rbt.Current_Directory>
/home/itssahil/PROJECTS/Mol_Feturizer/New_Systems/rnas/2fd0

>  <Rbt.Executable>
rbdock ($Id: //depot/dev/client3/rdock/2013.1/src/exe/rbdock.cxx#4 $)

>  <Rbt.Library>
libRbt.so (2013.1, Build901 2013/11/27)

>  <Rbt.Parameter_File>
/export/apps/rDock/src/rDock_2013.1_src/data/scripts/dock_solv.prm

>  <Rbt.Receptor>
prm/pocket_docking_7.prm

>  <SCORE>
-13.8464

>  <SCORE.INTER>
-8.15039

>  <SCORE.INTER.CONST>
1

>  <SCORE.INTER.POLAR>
-1.51572

>  <SCORE.INTER.ROT>
12

>  <SCORE.INTER.SOLV>
15.2045

>  <SCORE.INTER.VDW>
-17.0494

>  <SCORE.INTER.norm>
-0.156738

>  <SCORE.INTRA>
-5.69603

>  <SCORE.INTRA.DIHEDRAL>
-10.8627

>  <SCORE.INTRA.DIHEDRAL.0>
23.9727

>  <SCORE.INTRA.POLAR>
0

>  <SCORE.INTRA.POLAR.0>
0

>  <SCORE.INTRA.REPUL>
0

>  <SCORE.INTRA.REPUL.0>
0

>  <SCORE.INTRA.SOLV>
-2.23697

>  <SCORE.INTRA.SOLV.lig_0>
-115.028

>  <SCORE.INTRA.VDW>
0.853812

>  <SCORE.INTRA.VDW.0>
-6.82393

>  <SCORE.INTRA.norm>
-0.109539

>  <SCORE.RESTR>
0

>  <SCORE.RESTR.CAVITY>
0

>  <SCORE.RESTR.norm>
0

>  <SCORE.SYSTEM>
0

>  <SCORE.SYSTEM.CONST>
0

>  <SCORE.SYSTEM.DIHEDRAL>
0

>  <SCORE.SYSTEM.SOLV>
0

>  <SCORE.SYSTEM.norm>
0

>  <SCORE.heavy>
52

>  <SCORE.norm>
-0.266277

>  <RMSD>
11.669

$$$$
2fd0_lig
 OpenBabel11021811433D
libRbt.so/2013.1/901 2013/11/27
 52 56  0  0  0  0  0  0  0  0999 V2000
   -0.1485  -51.3902    8.6463 C   0  0  2  0  0  0  0  0  0  0  0  0
    0.3162  -52.7284    8.4223 O   0  0  0  0  0  0  0  0  0  0  0  0
    4.1691  -54.7401    8.4454 C   0  0  2  0  0  0  0  0  0  0  0  0
    5.5404  -55.1364    8.0856 N   0  0  0  0  0  0  0  0  0  0  0  0
    3.4072  -50.7639   10.5102 C   0  0  1  0  0  0  0  0  0  0  0  0
    4.3491  -46.7414   11.8526 C   0  0  1  0  0  0  0  0  0  0  0  0
    6.8875  -43.5179   14.5057 C   0  0  1  0  0  0  0  0  0  0  0  0
   -1.6263  -51.4566    9.1784 C   0  0  2  0  0  0  0  0  0  0  0  0
   -1.7317  -52.2605   10.3881 N   0  0  0  0  0  0  0  0  0  0  0  0
    3.1893  -54.9581    7.2103 C   0  0  0  0  0  0  0  0  0  0  0  0
    3.1867  -49.2674   10.3865 C   0  0  2  0  0  0  0  0  0  0  0  0
    4.1816  -48.6319    9.5353 O   0  0  0  0  0  0  0  0  0  0  0  0
    5.8436  -46.2331   12.1121 C   0  0  2  0  0  0  0  0  0  0  0  0
    6.2814  -46.5822   13.4912 N   0  0  0  0  0  0  0  0  0  0  0  0
    6.7295  -42.0774   13.9693 C   0  0  1  0  0  0  0  0  0  0  0  0
    5.8146  -41.3518   14.8275 O   0  0  0  0  0  0  0  0  0  0  0  0
   -2.5906  -51.9855    8.0528 C   0  0  0  0  0  0  0  0  0  0  0  0
    1.6948  -54.5364    7.6079 C   0  0  2  0  0  0  0  0  0  0  0  0
    0.7687  -54.7260    6.4817 N   0  0  0  0  0  0  0  0  0  0  0  0
    3.1552  -48.8077   11.8343 C   0  0  2  0  0  0  0  0  0  0  0  0
    4.3174  -48.1014   12.1738 O   0  0  0  0  0  0  0  0  0  0  0  0
    5.8880  -44.6601   11.7451 C   0  0  1  0  0  0  0  0  0  0  0  0
    5.4486  -44.5094   10.3830 O   0  0  0  0  0  0  0  0  0  0  0  0
    8.0193  -41.2274   13.8115 C   0  0  1  0  0  0  0  0  0  0  0  0
    8.1994  -40.4708   15.0154 O   0  0  0  0  0  0  0  0  0  0  0  0
   -2.4314  -51.0729    6.7933 C   0  0  2  0  0  0  0  0  0  0  0  0
   -3.3033  -51.5085    5.7549 O   0  0  0  0  0  0  0  0  0  0  0  0
    1.6885  -53.0497    8.0608 C   0  0  2  0  0  0  0  0  0  0  0  0
    3.1542  -50.0549   12.7502 C   0  0  2  0  0  0  0  0  0  0  0  0
    3.0030  -51.1186   11.8212 O   0  0  0  0  0  0  0  0  0  0  0  0
    4.8654  -43.8000   12.6554 C   0  0  2  0  0  0  0  0  0  0  0  0
    5.3524  -43.9659   14.0004 O   0  0  0  0  0  0  0  0  0  0  0  0
    9.3188  -42.0119   13.5176 C   0  0  2  0  0  0  0  0  0  0  0  0
   10.0290  -41.2364   12.5273 O   0  0  0  0  0  0  0  0  0  0  0  0
   -0.9562  -51.1218    6.3020 C   0  0  2  0  0  0  0  0  0  0  0  0
   -0.0873  -50.6470    7.4016 O   0  0  0  0  0  0  0  0  0  0  0  0
    2.6775  -52.7717    9.2337 C   0  0  2  0  0  0  0  0  0  0  0  0
    2.6129  -51.3564    9.5318 O   0  0  0  0  0  0  0  0  0  0  0  0
    2.0039  -50.1235   13.7485 C   0  0  0  0  0  0  0  0  0  0  0  0
    2.1533  -49.0079   14.6398 O   0  0  0  0  0  0  0  0  0  0  0  0
    3.5247  -44.5001   12.5374 C   0  0  1  0  0  0  0  0  0  0  0  0
    3.3284  -45.9239   12.6654 O   0  0  0  0  0  0  0  0  0  0  0  0
    9.0090  -43.4376   13.0695 C   0  0  2  0  0  0  0  0  0  0  0  0
    8.1078  -44.1694   13.9457 O   0  0  0  0  0  0  0  0  0  0  0  0
   -0.7287  -50.2385    5.1166 C   0  0  0  0  0  0  0  0  0  0  0  0
    0.5988  -50.4071    4.6983 O   0  0  0  0  0  0  0  0  0  0  0  0
    4.1332  -53.2058    8.8274 C   0  0  1  0  0  0  0  0  0  0  0  0
    5.0256  -52.9780    9.9725 O   0  0  0  0  0  0  0  0  0  0  0  0
    2.3979  -43.8292   13.4003 C   0  0  0  0  0  0  0  0  0  0  0  0
    2.1901  -42.3931   13.0943 N   0  0  0  0  0  0  0  0  0  0  0  0
   10.1129  -44.4347   12.7245 C   0  0  0  0  0  0  0  0  0  0  0  0
    9.5374  -45.7373   12.3978 O   0  0  0  0  0  0  0  0  0  0  0  0
  1  2  1  6  0  0  0
  1  8  1  0  0  0  0
  1 36  1  0  0  0  0
  3  4  1  6  0  0  0
  3 10  1  0  0  0  0
  3 47  1  0  0  0  0
  5 11  1  0  0  0  0
  5 30  1  0  0  0  0
  5 38  1  6  0  0  0
  6 21  1  1  0  0  0
  6 42  1  0  0  0  0
  7 15  1  0  0  0  0
  7 44  1  0  0  0  0
  7 32  1  6  0  0  0
  8  9  1  1  0  0  0
  8 17  1  0  0  0  0
 11 12  1  6  0  0  0
 11 20  1  0  0  0  0
 13  6  1  0  0  0  0
 13 14  1  1  0  0  0
 15 16  1  1  0  0  0
 15 24  1  0  0  0  0
 17 26  1  0  0  0  0
 18 10  1  0  0  0  0
 18 19  1  6  0  0  0
 20 21  1  1  0  0  0
 20 29  1  0  0  0  0
 22 13  1  0  0  0  0
 22 23  1  6  0  0  0
 24 25  1  1  0  0  0
 24 33  1  0  0  0  0
 26 27  1  6  0  0  0
 26 35  1  0  0  0  0
 28  2  1  1  0  0  0
 28 18  1  0  0  0  0
 29 30  1  0  0  0  0
 29 39  1  1  0  0  0
 31 22  1  0  0  0  0
 31 32  1  1  0  0  0
 31 41  1  0  0  0  0
 33 34  1  6  0  0  0
 33 43  1  0  0  0  0
 35 36  1  0  0  0  0
 35 45  1  6  0  0  0
 37 28  1  0  0  0  0
 37 38  1  6  0  0  0
 39 40  1  0  0  0  0
 41 42  1  0  0  0  0
 41 49  1  1  0  0  0
 43 44  1  0  0  0  0
 43 51  1  1  0  0  0
 45 46  1  0  0  0  0
 47 37  1  0  0  0  0
 47 48  1  1  0  0  0
 49 50  1  0  0  0  0
 51 52  1  0  0  0  0
M  END
>  <CHROM.1>
-173.39461151,172.44213062,-170.75039376,53.28263845,83.70443924,-167.66083180
-63.72779543,59.44123853,-176.55452640,-178.07191871,56.46010656,176.97967370
3.64785717,-48.24695615,10.78136372,2.12964556,0.24990103,-2.74829388

>  <Name>
2fd0_lig

>  <RI>
3.4301e+07

>  <Rbt.Current_Directory>
/home/itssahil/PROJECTS/Mol_Feturizer/New_Systems/rnas/2fd0

>  <Rbt.Executable>
rbdock ($Id: //depot/dev/client3/rdock/2013.1/src/exe/rbdock.cxx#4 $)

>  <Rbt.Library>
libRbt.so (2013.1, Build901 2013/11/27)

>  <Rbt.Parameter_File>
/export/apps/rDock/src/rDock_2013.1_src/data/scripts/dock_solv.prm

>  <Rbt.Receptor>
prm/pocket_docking_7.prm

>  <SCORE>
-19.7506

>  <SCORE.INTER>
-10.6674

>  <SCORE.INTER.CONST>
1

>  <SCORE.INTER.POLAR>
-2.44783

>  <SCORE.INTER.ROT>
12

>  <SCORE.INTER.SOLV>
13.228

>  <SCORE.INTER.VDW>
-14.9615

>  <SCORE.INTER.norm>
-0.205142

>  <SCORE.INTRA>
-9.08327

>  <SCORE.INTRA.DIHEDRAL>
-17.8033

>  <SCORE.INTRA.DIHEDRAL.0>
23.9727

>  <SCORE.INTRA.POLAR>
0

>  <SCORE.INTRA.POLAR.0>
0

>  <SCORE.INTRA.REPUL>
0

>  <SCORE.INTRA.REPUL.0>
0

>  <SCORE.INTRA.SOLV>
-2.81096

>  <SCORE.INTRA.SOLV.lig_0>
-115.028

>  <SCORE.INTRA.VDW>
1.22389

>  <SCORE.INTRA.VDW.0>
-6.82393

>  <SCORE.INTRA.norm>
-0.174678

>  <SCORE.RESTR>
0

>  <SCORE.RESTR.CAVITY>
0

>  <SCORE.RESTR.norm>
0

>  <SCORE.SYSTEM>
0

>  <SCORE.SYSTEM.CONST>
0

>  <SCORE.SYSTEM.DIHEDRAL>
0

>  <SCORE.SYSTEM.SOLV>
0

>  <SCORE.SYSTEM.norm>
0

>  <SCORE.heavy>
52

>  <SCORE.norm>
-0.37982

>  <RMSD>
11.672

$$$$
2fd0_lig
 OpenBabel11021811433D
libRbt.so/2013.1/901 2013/11/27
 52 56  0  0  0  0  0  0  0  0999 V2000
   -1.6297  -52.9065    4.5438 C   0  0  2  0  0  0  0  0  0  0  0  0
   -0.7266  -52.9966    5.6544 O   0  0  0  0  0  0  0  0  0  0  0  0
    0.0242  -56.0248    8.6808 C   0  0  2  0  0  0  0  0  0  0  0  0
    0.3879  -57.2989    9.3222 N   0  0  0  0  0  0  0  0  0  0  0  0
    2.7088  -52.4124    6.8176 C   0  0  1  0  0  0  0  0  0  0  0  0
    2.3583  -48.0964    8.3359 C   0  0  1  0  0  0  0  0  0  0  0  0
    5.1835  -45.5783   12.0396 C   0  0  1  0  0  0  0  0  0  0  0  0
   -1.2137  -51.6749    3.6598 C   0  0  2  0  0  0  0  0  0  0  0  0
    0.1676  -51.7725    3.2091 N   0  0  0  0  0  0  0  0  0  0  0  0
   -1.1563  -56.2492    7.6371 C   0  0  0  0  0  0  0  0  0  0  0  0
    1.7148  -51.2663    6.7723 C   0  0  2  0  0  0  0  0  0  0  0  0
    1.7381  -50.5661    5.4966 O   0  0  0  0  0  0  0  0  0  0  0  0
    3.5677  -47.0582    8.1982 C   0  0  2  0  0  0  0  0  0  0  0  0
    4.8492  -47.6922    8.6119 N   0  0  0  0  0  0  0  0  0  0  0  0
    5.8924  -44.9430   10.8223 C   0  0  1  0  0  0  0  0  0  0  0  0
    4.9954  -43.9923   10.1968 O   0  0  0  0  0  0  0  0  0  0  0  0
   -1.4694  -50.3310    4.4376 C   0  0  0  0  0  0  0  0  0  0  0  0
   -1.5581  -54.8588    6.9481 C   0  0  2  0  0  0  0  0  0  0  0  0
   -2.6464  -55.0391    5.9761 N   0  0  0  0  0  0  0  0  0  0  0  0
    2.0899  -50.4427    7.9928 C   0  0  2  0  0  0  0  0  0  0  0  0
    2.7229  -49.2460    7.6295 O   0  0  0  0  0  0  0  0  0  0  0  0
    3.1547  -45.7263    9.0146 C   0  0  1  0  0  0  0  0  0  0  0  0
    1.9088  -45.2454    8.4785 O   0  0  0  0  0  0  0  0  0  0  0  0
    7.2489  -44.2312   11.0758 C   0  0  1  0  0  0  0  0  0  0  0  0
    6.9824  -42.8416   11.3042 O   0  0  0  0  0  0  0  0  0  0  0  0
   -2.9683  -50.2911    4.8808 C   0  0  2  0  0  0  0  0  0  0  0  0
   -3.2457  -49.0785    5.5743 O   0  0  0  0  0  0  0  0  0  0  0  0
   -0.3082  -54.2584    6.2460 C   0  0  2  0  0  0  0  0  0  0  0  0
    3.1408  -51.2261    8.8152 C   0  0  2  0  0  0  0  0  0  0  0  0
    3.1744  -52.4828    8.1540 O   0  0  0  0  0  0  0  0  0  0  0  0
    2.8921  -46.0363   10.5796 C   0  0  2  0  0  0  0  0  0  0  0  0
    4.1637  -46.4959   11.0749 O   0  0  0  0  0  0  0  0  0  0  0  0
    8.0933  -44.7758   12.2510 C   0  0  2  0  0  0  0  0  0  0  0  0
    9.4597  -44.7804   11.7824 O   0  0  0  0  0  0  0  0  0  0  0  0
   -3.2684  -51.5087    5.8012 C   0  0  2  0  0  0  0  0  0  0  0  0
   -2.9839  -52.7448    5.0393 O   0  0  0  0  0  0  0  0  0  0  0  0
    0.8982  -54.0724    7.2161 C   0  0  2  0  0  0  0  0  0  0  0  0
    2.0049  -53.5531    6.4404 O   0  0  0  0  0  0  0  0  0  0  0  0
    2.7737  -51.4629   10.2759 C   0  0  0  0  0  0  0  0  0  0  0  0
    3.9540  -51.9491   10.9329 O   0  0  0  0  0  0  0  0  0  0  0  0
    1.9147  -47.1962   10.6085 C   0  0  1  0  0  0  0  0  0  0  0  0
    2.0380  -48.3933    9.8124 O   0  0  0  0  0  0  0  0  0  0  0  0
    7.5952  -46.1489   12.6939 C   0  0  2  0  0  0  0  0  0  0  0  0
    6.1670  -46.2224   12.9588 O   0  0  0  0  0  0  0  0  0  0  0  0
   -4.7001  -51.5485    6.2322 C   0  0  0  0  0  0  0  0  0  0  0  0
   -4.9441  -50.4225    7.0311 O   0  0  0  0  0  0  0  0  0  0  0  0
    1.2654  -55.4444    7.8909 C   0  0  1  0  0  0  0  0  0  0  0  0
    2.3694  -55.2204    8.8346 O   0  0  0  0  0  0  0  0  0  0  0  0
    1.5682  -47.6777   12.0620 C   0  0  0  0  0  0  0  0  0  0  0  0
    0.6796  -46.7480   12.8005 N   0  0  0  0  0  0  0  0  0  0  0  0
    8.2455  -46.9121   13.8456 C   0  0  0  0  0  0  0  0  0  0  0  0
    8.1511  -46.1418   15.0834 O   0  0  0  0  0  0  0  0  0  0  0  0
  1  2  1  1  0  0  0
  1  8  1  0  0  0  0
  1 36  1  0  0  0  0
  3  4  1  6  0  0  0
  3 10  1  0  0  0  0
  3 47  1  0  0  0  0
  5 11  1  0  0  0  0
  5 30  1  0  0  0  0
  5 38  1  1  0  0  0
  6 21  1  6  0  0  0
  6 42  1  0  0  0  0
  7 15  1  0  0  0  0
  7 44  1  0  0  0  0
  7 32  1  6  0  0  0
  8  9  1  1  0  0  0
  8 17  1  0  0  0  0
 11 12  1  6  0  0  0
 11 20  1  0  0  0  0
 13  6  1  0  0  0  0
 13 14  1  1  0  0  0
 15 16  1  1  0  0  0
 15 24  1  0  0  0  0
 17 26  1  0  0  0  0
 18 10  1  0  0  0  0
 18 19  1  6  0  0  0
 20 21  1  6  0  0  0
 20 29  1  0  0  0  0
 22 13  1  0  0  0  0
 22 23  1  6  0  0  0
 24 25  1  1  0  0  0
 24 33  1  0  0  0  0
 26 27  1  1  0  0  0
 26 35  1  0  0  0  0
 28  2  1  1  0  0  0
 28 18  1  0  0  0  0
 29 30  1  0  0  0  0
 29 39  1  1  0  0  0
 31 22  1  0  0  0  0
 31 32  1  1  0  0  0
 31 41  1  0  0  0  0
 33 34  1  6  0  0  0
 33 43  1  0  0  0  0
 35 36  1  0  0  0  0
 35 45  1  6  0  0  0
 37 28  1  0  0  0  0
 37 38  1  6  0  0  0
 39 40  1  0  0  0  0
 41 42  1  0  0  0  0
 41 49  1  1  0  0  0
 43 44  1  0  0  0  0
 43 51  1  1  0  0  0
 45 46  1  0  0  0  0
 47 37  1  0  0  0  0
 47 48  1  1  0  0  0
 49 50  1  0  0  0  0
 51 52  1  0  0  0  0
M  END
>  <CHROM.1>
-146.08149182,-63.38738421,157.07265362,-88.23579560,138.52580691,-68.69979754
-168.59118096,105.37762622,-64.86903332,128.03351321,73.30433428,60.49627654
2.05507063,-49.79319945,8.63674212,2.45504109,0.64193112,-3.14046330

>  <Name>
2fd0_lig

>  <RI>
0

>  <Rbt.Current_Directory>
/home/itssahil/PROJECTS/Mol_Feturizer/New_Systems/rnas/2fd0

>  <Rbt.Executable>
rbdock ($Id: //depot/dev/client3/rdock/2013.1/src/exe/rbdock.cxx#4 $)

>  <Rbt.Library>
libRbt.so (2013.1, Build901 2013/11/27)

>  <Rbt.Parameter_File>
/export/apps/rDock/src/rDock_2013.1_src/data/scripts/dock_solv.prm

>  <Rbt.Receptor>
prm/pocket_docking_5.prm

>  <SCORE>
-16.1093

>  <SCORE.INTER>
-21.4706

>  <SCORE.INTER.CONST>
1

>  <SCORE.INTER.POLAR>
-3.6337

>  <SCORE.INTER.ROT>
12

>  <SCORE.INTER.SOLV>
22.2688

>  <SCORE.INTER.VDW>
-21.2243

>  <SCORE.INTER.norm>
-0.412896

>  <SCORE.INTRA>
5.35233

>  <SCORE.INTRA.DIHEDRAL>
7.24004

>  <SCORE.INTRA.DIHEDRAL.0>
23.9727

>  <SCORE.INTRA.POLAR>
0

>  <SCORE.INTRA.POLAR.0>
0

>  <SCORE.INTRA.REPUL>
0

>  <SCORE.INTRA.REPUL.0>
0

>  <SCORE.INTRA.SOLV>
1.17032

>  <SCORE.INTRA.SOLV.lig_0>
-115.028

>  <SCORE.INTRA.VDW>
1.14715

>  <SCORE.INTRA.VDW.0>
-6.82393

>  <SCORE.INTRA.norm>
0.10293

>  <SCORE.RESTR>
0.00894036

>  <SCORE.RESTR.CAVITY>
0.00894036

>  <SCORE.RESTR.norm>
0.00017193

>  <SCORE.SYSTEM>
0

>  <SCORE.SYSTEM.CONST>
0

>  <SCORE.SYSTEM.DIHEDRAL>
0

>  <SCORE.SYSTEM.SOLV>
0

>  <SCORE.SYSTEM.norm>
0

>  <SCORE.heavy>
52

>  <SCORE.norm>
-0.309794

>  <RMSD>
11.676

$$$$
2fd0_lig
 OpenBabel11021811433D
libRbt.so/2013.1/901 2013/11/27
 52 56  0  0  0  0  0  0  0  0999 V2000
   -1.1382  -51.2927    8.3156 C   0  0  2  0  0  0  0  0  0  0  0  0
   -0.9012  -52.6669    8.6509 O   0  0  0  0  0  0  0  0  0  0  0  0
    2.6299  -54.9112    9.8284 C   0  0  2  0  0  0  0  0  0  0  0  0
    3.9251  -55.6086    9.7722 N   0  0  0  0  0  0  0  0  0  0  0  0
    1.9226  -50.2325    9.9811 C   0  0  1  0  0  0  0  0  0  0  0  0
    2.6610  -45.7968   10.7405 C   0  0  1  0  0  0  0  0  0  0  0  0
    6.2615  -41.8838   10.8086 C   0  0  1  0  0  0  0  0  0  0  0  0
   -2.6866  -51.0254    8.3667 C   0  0  2  0  0  0  0  0  0  0  0  0
   -3.2514  -51.3555    9.6678 N   0  0  0  0  0  0  0  0  0  0  0  0
    1.6071  -55.5621    8.7973 C   0  0  0  0  0  0  0  0  0  0  0  0
    2.4758  -49.0970    9.1396 C   0  0  2  0  0  0  0  0  0  0  0  0
    3.9258  -49.1502    9.0264 O   0  0  0  0  0  0  0  0  0  0  0  0
    3.1646  -45.0152    9.4386 C   0  0  2  0  0  0  0  0  0  0  0  0
    4.5692  -45.3880    9.1170 N   0  0  0  0  0  0  0  0  0  0  0  0
    7.4124  -42.9111   10.8975 C   0  0  1  0  0  0  0  0  0  0  0  0
    7.6295  -43.4914    9.5876 O   0  0  0  0  0  0  0  0  0  0  0  0
   -3.4155  -51.8057    7.2107 C   0  0  0  0  0  0  0  0  0  0  0  0
    0.1943  -54.8083    8.8682 C   0  0  2  0  0  0  0  0  0  0  0  0
   -0.7694  -55.3894    7.9220 N   0  0  0  0  0  0  0  0  0  0  0  0
    1.9038  -47.8627    9.8162 C   0  0  2  0  0  0  0  0  0  0  0  0
    2.8921  -47.1571   10.5164 O   0  0  0  0  0  0  0  0  0  0  0  0
    2.9028  -43.4407    9.6907 C   0  0  1  0  0  0  0  0  0  0  0  0
    1.5029  -43.2630    9.9730 O   0  0  0  0  0  0  0  0  0  0  0  0
    8.7798  -42.4086   11.4349 C   0  0  1  0  0  0  0  0  0  0  0  0
    9.5783  -42.0159   10.3113 O   0  0  0  0  0  0  0  0  0  0  0  0
   -2.7659  -51.3964    5.8487 C   0  0  2  0  0  0  0  0  0  0  0  0
   -3.4115  -52.0690    4.7722 O   0  0  0  0  0  0  0  0  0  0  0  0
    0.4055  -53.3001    8.5576 C   0  0  2  0  0  0  0  0  0  0  0  0
    0.8862  -48.3137   10.8912 C   0  0  2  0  0  0  0  0  0  0  0  0
    0.7922  -49.7117   10.6585 O   0  0  0  0  0  0  0  0  0  0  0  0
    3.7050  -42.8963   10.9847 C   0  0  2  0  0  0  0  0  0  0  0  0
    5.0940  -43.0774   10.6509 O   0  0  0  0  0  0  0  0  0  0  0  0
    8.7255  -41.2358   12.4410 C   0  0  2  0  0  0  0  0  0  0  0  0
    9.7064  -41.5443   13.4554 O   0  0  0  0  0  0  0  0  0  0  0  0
   -1.2529  -51.7572    5.8679 C   0  0  2  0  0  0  0  0  0  0  0  0
   -0.6181  -51.0269    6.9874 O   0  0  0  0  0  0  0  0  0  0  0  0
    1.4448  -52.6281    9.5059 C   0  0  2  0  0  0  0  0  0  0  0  0
    1.5855  -51.2484    9.0903 O   0  0  0  0  0  0  0  0  0  0  0  0
   -0.5075  -47.7106   10.7560 C   0  0  0  0  0  0  0  0  0  0  0  0
   -0.3696  -46.2912   10.9213 O   0  0  0  0  0  0  0  0  0  0  0  0
    3.3519  -43.8456   12.1141 C   0  0  1  0  0  0  0  0  0  0  0  0
    3.3645  -45.2848   12.0107 O   0  0  0  0  0  0  0  0  0  0  0  0
    7.3142  -41.0516   12.9924 C   0  0  2  0  0  0  0  0  0  0  0  0
    6.2723  -40.9614   11.9817 O   0  0  0  0  0  0  0  0  0  0  0  0
   -0.5631  -51.3570    4.6025 C   0  0  0  0  0  0  0  0  0  0  0  0
   -0.5490  -49.9565    4.5403 O   0  0  0  0  0  0  0  0  0  0  0  0
    2.8173  -53.3918    9.4313 C   0  0  1  0  0  0  0  0  0  0  0  0
    3.7533  -52.7640   10.3742 O   0  0  0  0  0  0  0  0  0  0  0  0
    4.0808  -43.5028   13.4616 C   0  0  0  0  0  0  0  0  0  0  0  0
    5.4612  -44.0387   13.5440 N   0  0  0  0  0  0  0  0  0  0  0  0
    6.9765  -39.9548   13.9999 C   0  0  0  0  0  0  0  0  0  0  0  0
    5.6297  -40.1500   14.5313 O   0  0  0  0  0  0  0  0  0  0  0  0
  1  2  1  6  0  0  0
  1  8  1  0  0  0  0
  1 36  1  0  0  0  0
  3  4  1  6  0  0  0
  3 10  1  0  0  0  0
  3 47  1  0  0  0  0
  5 11  1  0  0  0  0
  5 30  1  0  0  0  0
  5 38  1  6  0  0  0
  6 21  1  6  0  0  0
  6 42  1  0  0  0  0
  7 15  1  0  0  0  0
  7 44  1  0  0  0  0
  7 32  1  1  0  0  0
  8  9  1  1  0  0  0
  8 17  1  0  0  0  0
 11 12  1  1  0  0  0
 11 20  1  0  0  0  0
 13  6  1  0  0  0  0
 13 14  1  1  0  0  0
 15 16  1  6  0  0  0
 15 24  1  0  0  0  0
 17 26  1  0  0  0  0
 18 10  1  0  0  0  0
 18 19  1  6  0  0  0
 20 21  1  1  0  0  0
 20 29  1  0  0  0  0
 22 13  1  0  0  0  0
 22 23  1  1  0  0  0
 24 25  1  6  0  0  0
 24 33  1  0  0  0  0
 26 27  1  6  0  0  0
 26 35  1  0  0  0  0
 28  2  1  1  0  0  0
 28 18  1  0  0  0  0
 29 30  1  0  0  0  0
 29 39  1  6  0  0  0
 31 22  1  0  0  0  0
 31 32  1  6  0  0  0
 31 41  1  0  0  0  0
 33 34  1  1  0  0  0
 33 43  1  0  0  0  0
 35 36  1  0  0  0  0
 35 45  1  6  0  0  0
 37 28  1  0  0  0  0
 37 38  1  6  0  0  0
 39 40  1  0  0  0  0
 41 42  1  0  0  0  0
 41 49  1  1  0  0  0
 43 44  1  0  0  0  0
 43 51  1  6  0  0  0
 45 46  1  0  0  0  0
 47 37  1  0  0  0  0
 47 48  1  1  0  0  0
 49 50  1  0  0  0  0
 51 52  1  0  0  0  0
M  END
>  <CHROM.1>
172.91908674,159.15504557,-85.19184325,156.77556693,156.07834999,-174.36375616
-62.80597398,130.41359953,67.38384902,150.88614132,-82.68417942,-170.08636273
2.62064823,-47.71860540,9.86508820,2.18096566,0.39914579,-3.02812510

>  <Name>
2fd0_lig

>  <RI>
0

>  <Rbt.Current_Directory>
/home/itssahil/PROJECTS/Mol_Feturizer/New_Systems/rnas/2fd0

>  <Rbt.Executable>
rbdock ($Id: //depot/dev/client3/rdock/2013.1/src/exe/rbdock.cxx#4 $)

>  <Rbt.Library>
libRbt.so (2013.1, Build901 2013/11/27)

>  <Rbt.Parameter_File>
/export/apps/rDock/src/rDock_2013.1_src/data/scripts/dock_solv.prm

>  <Rbt.Receptor>
prm/pocket_docking_8.prm

>  <SCORE>
-17.7153

>  <SCORE.INTER>
-16.7748

>  <SCORE.INTER.CONST>
1

>  <SCORE.INTER.POLAR>
-3.91299

>  <SCORE.INTER.ROT>
12

>  <SCORE.INTER.SOLV>
18.3086

>  <SCORE.INTER.VDW>
-15.8428

>  <SCORE.INTER.norm>
-0.322593

>  <SCORE.INTRA>
-0.940526

>  <SCORE.INTRA.DIHEDRAL>
-0.952777

>  <SCORE.INTRA.DIHEDRAL.0>
23.9727

>  <SCORE.INTRA.POLAR>
0

>  <SCORE.INTRA.POLAR.0>
0

>  <SCORE.INTRA.REPUL>
0

>  <SCORE.INTRA.REPUL.0>
0

>  <SCORE.INTRA.SOLV>
0.614509

>  <SCORE.INTRA.SOLV.lig_0>
-115.028

>  <SCORE.INTRA.VDW>
-0.771392

>  <SCORE.INTRA.VDW.0>
-6.82393

>  <SCORE.INTRA.norm>
-0.018087

>  <SCORE.RESTR>
0

>  <SCORE.RESTR.CAVITY>
0

>  <SCORE.RESTR.norm>
0

>  <SCORE.SYSTEM>
0

>  <SCORE.SYSTEM.CONST>
0

>  <SCORE.SYSTEM.DIHEDRAL>
0

>  <SCORE.SYSTEM.SOLV>
0

>  <SCORE.SYSTEM.norm>
0

>  <SCORE.heavy>
52

>  <SCORE.norm>
-0.34068

>  <RMSD>
11.693

$$$$
2fd0_lig
 OpenBabel11021811433D
libRbt.so/2013.1/901 2013/11/27
 52 56  0  0  0  0  0  0  0  0999 V2000
   -1.5810  -52.1673    4.7294 C   0  0  2  0  0  0  0  0  0  0  0  0
   -1.0661  -51.7988    6.0163 O   0  0  0  0  0  0  0  0  0  0  0  0
   -0.3509  -54.1872    9.5767 C   0  0  2  0  0  0  0  0  0  0  0  0
    0.2348  -55.1640   10.5093 N   0  0  0  0  0  0  0  0  0  0  0  0
    1.7667  -50.2448    8.7004 C   0  0  1  0  0  0  0  0  0  0  0  0
    4.2739  -47.0293   10.0976 C   0  0  1  0  0  0  0  0  0  0  0  0
    4.7683  -46.8260   15.0729 C   0  0  1  0  0  0  0  0  0  0  0  0
   -1.2439  -51.0200    3.7088 C   0  0  2  0  0  0  0  0  0  0  0  0
    0.1861  -50.7517    3.6471 N   0  0  0  0  0  0  0  0  0  0  0  0
   -0.8177  -54.9122    8.2390 C   0  0  0  0  0  0  0  0  0  0  0  0
    3.0756  -49.8539    8.0390 C   0  0  2  0  0  0  0  0  0  0  0  0
    4.1671  -50.7433    8.4079 O   0  0  0  0  0  0  0  0  0  0  0  0
    5.7770  -46.8069   10.5983 C   0  0  2  0  0  0  0  0  0  0  0  0
    6.2598  -48.0000   11.3457 N   0  0  0  0  0  0  0  0  0  0  0  0
    5.9930  -47.7001   15.4249 C   0  0  1  0  0  0  0  0  0  0  0  0
    7.1406  -46.8412   15.6374 O   0  0  0  0  0  0  0  0  0  0  0  0
   -2.0567  -49.7189    4.0593 C   0  0  0  0  0  0  0  0  0  0  0  0
   -1.4651  -53.8485    7.2297 C   0  0  2  0  0  0  0  0  0  0  0  0
   -1.9030  -54.4931    5.9828 N   0  0  0  0  0  0  0  0  0  0  0  0
    3.2371  -48.3972    8.4395 C   0  0  2  0  0  0  0  0  0  0  0  0
    4.2511  -48.2368    9.3939 O   0  0  0  0  0  0  0  0  0  0  0  0
    5.8113  -45.4131   11.4151 C   0  0  1  0  0  0  0  0  0  0  0  0
    5.3271  -44.3755   10.5433 O   0  0  0  0  0  0  0  0  0  0  0  0
    5.8673  -48.6482   16.6481 C   0  0  1  0  0  0  0  0  0  0  0  0
    6.3709  -47.9554   17.7973 O   0  0  0  0  0  0  0  0  0  0  0  0
   -3.5777  -50.0790    4.0987 C   0  0  2  0  0  0  0  0  0  0  0  0
   -4.3515  -48.9208    4.3956 O   0  0  0  0  0  0  0  0  0  0  0  0
   -0.4213  -52.7393    6.9201 C   0  0  2  0  0  0  0  0  0  0  0  0
    1.9395  -47.9296    9.1411 C   0  0  2  0  0  0  0  0  0  0  0  0
    1.0701  -49.0362    8.9492 O   0  0  0  0  0  0  0  0  0  0  0  0
    4.8207  -45.4390   12.6927 C   0  0  2  0  0  0  0  0  0  0  0  0
    5.3519  -46.4747   13.5404 O   0  0  0  0  0  0  0  0  0  0  0  0
    4.4451  -49.1665   16.9633 C   0  0  2  0  0  0  0  0  0  0  0  0
    4.6047  -50.5579   17.3167 O   0  0  0  0  0  0  0  0  0  0  0  0
   -3.8230  -51.1714    5.1787 C   0  0  2  0  0  0  0  0  0  0  0  0
   -3.0160  -52.3600    4.8247 O   0  0  0  0  0  0  0  0  0  0  0  0
    0.1115  -52.0361    8.2056 C   0  0  2  0  0  0  0  0  0  0  0  0
    1.1008  -51.0634    7.7918 O   0  0  0  0  0  0  0  0  0  0  0  0
    1.2845  -46.6944    8.5331 C   0  0  0  0  0  0  0  0  0  0  0  0
    0.8378  -47.0592    7.2184 O   0  0  0  0  0  0  0  0  0  0  0  0
    3.4759  -45.8945   12.1584 C   0  0  1  0  0  0  0  0  0  0  0  0
    3.2819  -47.0189   11.2751 O   0  0  0  0  0  0  0  0  0  0  0  0
    3.5051  -48.9405   15.7822 C   0  0  2  0  0  0  0  0  0  0  0  0
    3.4957  -47.5822   15.2623 O   0  0  0  0  0  0  0  0  0  0  0  0
   -5.2583  -51.5872    5.2421 C   0  0  0  0  0  0  0  0  0  0  0  0
   -5.6275  -52.0664    3.9773 O   0  0  0  0  0  0  0  0  0  0  0  0
    0.7284  -53.0989    9.1867 C   0  0  1  0  0  0  0  0  0  0  0  0
    1.1716  -52.4079   10.4055 O   0  0  0  0  0  0  0  0  0  0  0  0
    2.3793  -46.0272   13.2740 C   0  0  0  0  0  0  0  0  0  0  0  0
    1.0172  -46.2750   12.7425 N   0  0  0  0  0  0  0  0  0  0  0  0
    2.0348  -49.3505   15.8289 C   0  0  0  0  0  0  0  0  0  0  0  0
    1.2562  -48.3663   16.5771 O   0  0  0  0  0  0  0  0  0  0  0  0
  1  2  1  1  0  0  0
  1  8  1  0  0  0  0
  1 36  1  0  0  0  0
  3  4  1  1  0  0  0
  3 10  1  0  0  0  0
  3 47  1  0  0  0  0
  5 11  1  0  0  0  0
  5 30  1  0  0  0  0
  5 38  1  6  0  0  0
  6 21  1  1  0  0  0
  6 42  1  0  0  0  0
  7 15  1  0  0  0  0
  7 44  1  0  0  0  0
  7 32  1  6  0  0  0
  8  9  1  1  0  0  0
  8 17  1  0  0  0  0
 11 12  1  1  0  0  0
 11 20  1  0  0  0  0
 13  6  1  0  0  0  0
 13 14  1  1  0  0  0
 15 16  1  1  0  0  0
 15 24  1  0  0  0  0
 17 26  1  0  0  0  0
 18 10  1  0  0  0  0
 18 19  1  6  0  0  0
 20 21  1  1  0  0  0
 20 29  1  0  0  0  0
 22 13  1  0  0  0  0
 22 23  1  6  0  0  0
 24 25  1  1  0  0  0
 24 33  1  0  0  0  0
 26 27  1  1  0  0  0
 26 35  1  0  0  0  0
 28  2  1  6  0  0  0
 28 18  1  0  0  0  0
 29 30  1  0  0  0  0
 29 39  1  6  0  0  0
 31 22  1  0  0  0  0
 31 32  1  1  0  0  0
 31 41  1  0  0  0  0
 33 34  1  6  0  0  0
 33 43  1  0  0  0  0
 35 36  1  0  0  0  0
 35 45  1  6  0  0  0
 37 28  1  0  0  0  0
 37 38  1  6  0  0  0
 39 40  1  0  0  0  0
 41 42  1  0  0  0  0
 41 49  1  1  0  0  0
 43 44  1  0  0  0  0
 43 51  1  1  0  0  0
 45 46  1  0  0  0  0
 47 37  1  0  0  0  0
 47 48  1  1  0  0  0
 49 50  1  0  0  0  0
 51 52  1  0  0  0  0
M  END
>  <CHROM.1>
-139.83774300,155.37770370,-155.55995441,-166.63578968,-163.85726723,-59.65607833
65.76058904,174.49054720,58.44480342,179.23297737,171.44276062,78.94250977
1.65380327,-49.48698931,10.00117397,2.78933591,-0.91574072,-0.87171890

>  <Name>
2fd0_lig

>  <RI>
1.29864e+07

>  <Rbt.Current_Directory>
/home/itssahil/PROJECTS/Mol_Feturizer/New_Systems/rnas/2fd0

>  <Rbt.Executable>
rbdock ($Id: //depot/dev/client3/rdock/2013.1/src/exe/rbdock.cxx#4 $)

>  <Rbt.Library>
libRbt.so (2013.1, Build901 2013/11/27)

>  <Rbt.Parameter_File>
/export/apps/rDock/src/rDock_2013.1_src/data/scripts/dock_solv.prm

>  <Rbt.Receptor>
prm/pocket_docking_3.prm

>  <SCORE>
-6.44612

>  <SCORE.INTER>
-7.98118

>  <SCORE.INTER.CONST>
1

>  <SCORE.INTER.POLAR>
-1.57878

>  <SCORE.INTER.ROT>
12

>  <SCORE.INTER.SOLV>
21.4383

>  <SCORE.INTER.VDW>
-18.8043

>  <SCORE.INTER.norm>
-0.153484

>  <SCORE.INTRA>
1.41243

>  <SCORE.INTRA.DIHEDRAL>
-8.10143

>  <SCORE.INTRA.DIHEDRAL.0>
23.9727

>  <SCORE.INTRA.POLAR>
0

>  <SCORE.INTRA.POLAR.0>
0

>  <SCORE.INTRA.REPUL>
0

>  <SCORE.INTRA.REPUL.0>
0

>  <SCORE.INTRA.SOLV>
-0.815452

>  <SCORE.INTRA.SOLV.lig_0>
-115.028

>  <SCORE.INTRA.VDW>
5.87087

>  <SCORE.INTRA.VDW.0>
-6.82393

>  <SCORE.INTRA.norm>
0.0271621

>  <SCORE.RESTR>
0.122629

>  <SCORE.RESTR.CAVITY>
0.122629

>  <SCORE.RESTR.norm>
0.00235826

>  <SCORE.SYSTEM>
0

>  <SCORE.SYSTEM.CONST>
0

>  <SCORE.SYSTEM.DIHEDRAL>
0

>  <SCORE.SYSTEM.SOLV>
0

>  <SCORE.SYSTEM.norm>
0

>  <SCORE.heavy>
52

>  <SCORE.norm>
-0.123964

>  <RMSD>
11.699

$$$$
2fd0_lig
 OpenBabel11021811433D
libRbt.so/2013.1/901 2013/11/27
 52 56  0  0  0  0  0  0  0  0999 V2000
   -1.5914  -53.1532    6.7623 C   0  0  2  0  0  0  0  0  0  0  0  0
   -0.8221  -51.9828    7.0712 O   0  0  0  0  0  0  0  0  0  0  0  0
   -3.5648  -48.6825    6.3795 C   0  0  2  0  0  0  0  0  0  0  0  0
   -4.2077  -47.3605    6.4573 N   0  0  0  0  0  0  0  0  0  0  0  0
    1.0244  -49.5316    6.2321 C   0  0  1  0  0  0  0  0  0  0  0  0
    2.1921  -47.8544   10.3323 C   0  0  1  0  0  0  0  0  0  0  0  0
    6.4780  -48.5231   12.8894 C   0  0  1  0  0  0  0  0  0  0  0  0
   -0.6409  -54.2160    6.1002 C   0  0  2  0  0  0  0  0  0  0  0  0
    0.4909  -54.5402    6.9574 N   0  0  0  0  0  0  0  0  0  0  0  0
   -3.5124  -49.3566    7.8203 C   0  0  0  0  0  0  0  0  0  0  0  0
    0.4808  -48.4825    7.1846 C   0  0  2  0  0  0  0  0  0  0  0  0
    0.8063  -47.1294    6.7588 O   0  0  0  0  0  0  0  0  0  0  0  0
    3.5838  -47.1032   10.5734 C   0  0  2  0  0  0  0  0  0  0  0  0
    4.6974  -47.8466    9.9232 N   0  0  0  0  0  0  0  0  0  0  0  0
    6.2696  -48.7891   14.3972 C   0  0  1  0  0  0  0  0  0  0  0  0
    6.2055  -50.2196   14.6198 O   0  0  0  0  0  0  0  0  0  0  0  0
   -0.1643  -53.7185    4.6853 C   0  0  0  0  0  0  0  0  0  0  0  0
   -2.8219  -50.8005    7.7313 C   0  0  2  0  0  0  0  0  0  0  0  0
   -2.7585  -51.4447    9.0515 N   0  0  0  0  0  0  0  0  0  0  0  0
    1.0482  -48.9148    8.5262 C   0  0  2  0  0  0  0  0  0  0  0  0
    2.0669  -48.0525    8.9543 O   0  0  0  0  0  0  0  0  0  0  0  0
    3.7372  -46.8723   12.1653 C   0  0  1  0  0  0  0  0  0  0  0  0
    2.5889  -46.1333   12.6194 O   0  0  0  0  0  0  0  0  0  0  0  0
    7.3149  -48.1947   15.3795 C   0  0  1  0  0  0  0  0  0  0  0  0
    8.3151  -49.1934   15.6173 O   0  0  0  0  0  0  0  0  0  0  0  0
   -1.4268  -53.3994    3.8199 C   0  0  2  0  0  0  0  0  0  0  0  0
   -1.0375  -52.9621    2.5217 O   0  0  0  0  0  0  0  0  0  0  0  0
   -1.3918  -50.6458    7.1426 C   0  0  2  0  0  0  0  0  0  0  0  0
    1.7273  -50.2947    8.3553 C   0  0  2  0  0  0  0  0  0  0  0  0
    1.3681  -50.6522    7.0284 O   0  0  0  0  0  0  0  0  0  0  0  0
    3.7358  -48.2692   12.9795 C   0  0  2  0  0  0  0  0  0  0  0  0
    4.9056  -48.9636   12.5071 O   0  0  0  0  0  0  0  0  0  0  0  0
    8.0113  -46.8914   14.9245 C   0  0  2  0  0  0  0  0  0  0  0  0
    8.0875  -46.0568   16.1010 O   0  0  0  0  0  0  0  0  0  0  0  0
   -2.2690  -52.2952    4.5207 C   0  0  2  0  0  0  0  0  0  0  0  0
   -2.6661  -52.7948    5.8557 O   0  0  0  0  0  0  0  0  0  0  0  0
   -1.3839  -49.9369    5.7540 C   0  0  2  0  0  0  0  0  0  0  0  0
   -0.0034  -49.8133    5.3358 O   0  0  0  0  0  0  0  0  0  0  0  0
    1.2259  -51.3835    9.2974 C   0  0  0  0  0  0  0  0  0  0  0  0
   -0.1728  -51.1419    9.5131 O   0  0  0  0  0  0  0  0  0  0  0  0
    2.5049  -49.0182   12.5047 C   0  0  1  0  0  0  0  0  0  0  0  0
    2.1215  -49.1740   11.1224 O   0  0  0  0  0  0  0  0  0  0  0  0
    7.2593  -46.2443   13.7646 C   0  0  2  0  0  0  0  0  0  0  0  0
    6.9730  -47.1355   12.6515 O   0  0  0  0  0  0  0  0  0  0  0  0
   -3.5138  -51.9686    3.7585 C   0  0  0  0  0  0  0  0  0  0  0  0
   -4.2634  -51.0612    4.5203 O   0  0  0  0  0  0  0  0  0  0  0  0
   -2.0783  -48.5302    5.8615 C   0  0  1  0  0  0  0  0  0  0  0  0
   -2.0985  -47.9158    4.5267 O   0  0  0  0  0  0  0  0  0  0  0  0
    2.3539  -50.4378   13.1577 C   0  0  0  0  0  0  0  0  0  0  0  0
    2.9666  -50.5413   14.5042 N   0  0  0  0  0  0  0  0  0  0  0  0
    7.7374  -44.9482   13.1137 C   0  0  0  0  0  0  0  0  0  0  0  0
    9.0807  -45.1202   12.5654 O   0  0  0  0  0  0  0  0  0  0  0  0
  1  2  1  6  0  0  0
  1  8  1  0  0  0  0
  1 36  1  0  0  0  0
  3  4  1  1  0  0  0
  3 10  1  0  0  0  0
  3 47  1  0  0  0  0
  5 11  1  0  0  0  0
  5 30  1  0  0  0  0
  5 38  1  6  0  0  0
  6 21  1  6  0  0  0
  6 42  1  0  0  0  0
  7 15  1  0  0  0  0
  7 44  1  0  0  0  0
  7 32  1  6  0  0  0
  8  9  1  1  0  0  0
  8 17  1  0  0  0  0
 11 12  1  6  0  0  0
 11 20  1  0  0  0  0
 13  6  1  0  0  0  0
 13 14  1  1  0  0  0
 15 16  1  6  0  0  0
 15 24  1  0  0  0  0
 17 26  1  0  0  0  0
 18 10  1  0  0  0  0
 18 19  1  1  0  0  0
 20 21  1  6  0  0  0
 20 29  1  0  0  0  0
 22 13  1  0  0  0  0
 22 23  1  1  0  0  0
 24 25  1  6  0  0  0
 24 33  1  0  0  0  0
 26 27  1  6  0  0  0
 26 35  1  0  0  0  0
 28  2  1  6  0  0  0
 28 18  1  0  0  0  0
 29 30  1  0  0  0  0
 29 39  1  1  0  0  0
 31 22  1  0  0  0  0
 31 32  1  6  0  0  0
 31 41  1  0  0  0  0
 33 34  1  1  0  0  0
 33 43  1  0  0  0  0
 35 36  1  0  0  0  0
 35 45  1  6  0  0  0
 37 28  1  0  0  0  0
 37 38  1  1  0  0  0
 39 40  1  0  0  0  0
 41 42  1  0  0  0  0
 41 49  1  6  0  0  0
 43 44  1  0  0  0  0
 43 51  1  6  0  0  0
 45 46  1  0  0  0  0
 47 37  1  0  0  0  0
 47 48  1  6  0  0  0
 49 50  1  0  0  0  0
 51 52  1  0  0  0  0
M  END
>  <CHROM.1>
152.72447289,-40.87674360,168.24482791,63.03842967,147.25008109,35.45507504
33.90270001,71.57837771,174.69141311,-37.55607205,28.03854861,59.64728302
1.66541103,-49.51978444,9.29279716,-2.87578724,-0.78719384,-0.05880759

>  <Name>
2fd0_lig

>  <RI>
2.89522e+07

>  <Rbt.Current_Directory>
/home/itssahil/PROJECTS/Mol_Feturizer/New_Systems/rnas/2fd0

>  <Rbt.Executable>
rbdock ($Id: //depot/dev/client3/rdock/2013.1/src/exe/rbdock.cxx#4 $)

>  <Rbt.Library>
libRbt.so (2013.1, Build901 2013/11/27)

>  <Rbt.Parameter_File>
/export/apps/rDock/src/rDock_2013.1_src/data/scripts/dock_solv.prm

>  <Rbt.Receptor>
prm/pocket_docking_2.prm

>  <SCORE>
12.8388

>  <SCORE.INTER>
-1.93758

>  <SCORE.INTER.CONST>
1

>  <SCORE.INTER.POLAR>
-1.51688

>  <SCORE.INTER.ROT>
12

>  <SCORE.INTER.SOLV>
14.5174

>  <SCORE.INTER.VDW>
-12.6746

>  <SCORE.INTER.norm>
-0.0372611

>  <SCORE.INTRA>
5.76893

>  <SCORE.INTRA.DIHEDRAL>
-3.16262

>  <SCORE.INTRA.DIHEDRAL.0>
23.9727

>  <SCORE.INTRA.POLAR>
0

>  <SCORE.INTRA.POLAR.0>
0

>  <SCORE.INTRA.REPUL>
0

>  <SCORE.INTRA.REPUL.0>
0

>  <SCORE.INTRA.SOLV>
4.95277

>  <SCORE.INTRA.SOLV.lig_0>
-115.028

>  <SCORE.INTRA.VDW>
4.87386

>  <SCORE.INTRA.VDW.0>
-6.82393

>  <SCORE.INTRA.norm>
0.110941

>  <SCORE.RESTR>
9.00742

>  <SCORE.RESTR.CAVITY>
9.00742

>  <SCORE.RESTR.norm>
0.17322

>  <SCORE.SYSTEM>
0

>  <SCORE.SYSTEM.CONST>
0

>  <SCORE.SYSTEM.DIHEDRAL>
0

>  <SCORE.SYSTEM.SOLV>
0

>  <SCORE.SYSTEM.norm>
0

>  <SCORE.heavy>
52

>  <SCORE.norm>
0.2469

>  <RMSD>
11.706

$$$$
2fd0_lig
 OpenBabel11021811433D
libRbt.so/2013.1/901 2013/11/27
 52 56  0  0  0  0  0  0  0  0999 V2000
   -0.0506  -53.0920    3.4462 C   0  0  2  0  0  0  0  0  0  0  0  0
    0.8526  -52.7298    4.4999 O   0  0  0  0  0  0  0  0  0  0  0  0
    0.8465  -56.2053    7.1101 C   0  0  2  0  0  0  0  0  0  0  0  0
    1.2536  -57.1916    8.1243 N   0  0  0  0  0  0  0  0  0  0  0  0
    1.2622  -51.6826    7.7055 C   0  0  1  0  0  0  0  0  0  0  0  0
    3.6403  -49.5937   10.9346 C   0  0  1  0  0  0  0  0  0  0  0  0
    4.3387  -45.2910   13.8062 C   0  0  1  0  0  0  0  0  0  0  0  0
   -0.4669  -51.7874    2.6741 C   0  0  2  0  0  0  0  0  0  0  0  0
    0.6901  -51.0723    2.1539 N   0  0  0  0  0  0  0  0  0  0  0  0
    1.9546  -56.0929    5.9732 C   0  0  0  0  0  0  0  0  0  0  0  0
    0.8207  -50.8607    8.9026 C   0  0  2  0  0  0  0  0  0  0  0  0
    0.4059  -49.5174    8.5265 O   0  0  0  0  0  0  0  0  0  0  0  0
    2.8041  -49.4190   12.2872 C   0  0  2  0  0  0  0  0  0  0  0  0
    1.8093  -48.3208   12.1475 N   0  0  0  0  0  0  0  0  0  0  0  0
    2.9546  -45.0248   14.4395 C   0  0  1  0  0  0  0  0  0  0  0  0
    2.8345  -45.8030   15.6561 O   0  0  0  0  0  0  0  0  0  0  0  0
   -1.3458  -50.8626    3.5954 C   0  0  0  0  0  0  0  0  0  0  0  0
    1.5040  -55.0267    4.8643 C   0  0  2  0  0  0  0  0  0  0  0  0
    2.5131  -54.9016    3.8023 N   0  0  0  0  0  0  0  0  0  0  0  0
    2.0147  -50.9536    9.8376 C   0  0  2  0  0  0  0  0  0  0  0  0
    2.7151  -49.7409    9.8972 O   0  0  0  0  0  0  0  0  0  0  0  0
    3.8672  -49.2460   13.4918 C   0  0  1  0  0  0  0  0  0  0  0  0
    4.7350  -50.3940   13.4864 O   0  0  0  0  0  0  0  0  0  0  0  0
    2.5911  -43.5521   14.7714 C   0  0  1  0  0  0  0  0  0  0  0  0
    2.9619  -43.3020   16.1331 O   0  0  0  0  0  0  0  0  0  0  0  0
   -2.5693  -51.6905    4.1076 C   0  0  2  0  0  0  0  0  0  0  0  0
   -3.4019  -50.8817    4.9327 O   0  0  0  0  0  0  0  0  0  0  0  0
    1.2722  -53.6495    5.5464 C   0  0  2  0  0  0  0  0  0  0  0  0
    3.0201  -51.9767    9.2573 C   0  0  2  0  0  0  0  0  0  0  0  0
    2.2993  -52.5312    8.1661 O   0  0  0  0  0  0  0  0  0  0  0  0
    4.8143  -47.9531   13.2783 C   0  0  2  0  0  0  0  0  0  0  0  0
    3.9091  -46.8336   13.3079 O   0  0  0  0  0  0  0  0  0  0  0  0
    3.2385  -42.4730   13.8731 C   0  0  2  0  0  0  0  0  0  0  0  0
    2.2029  -41.4970   13.6250 O   0  0  0  0  0  0  0  0  0  0  0  0
   -2.0611  -52.9211    4.9121 C   0  0  2  0  0  0  0  0  0  0  0  0
   -1.2161  -53.7415    4.0163 O   0  0  0  0  0  0  0  0  0  0  0  0
    0.2350  -53.7182    6.7085 C   0  0  2  0  0  0  0  0  0  0  0  0
    0.1409  -52.3945    7.2873 O   0  0  0  0  0  0  0  0  0  0  0  0
    3.4074  -53.1097   10.2010 C   0  0  0  0  0  0  0  0  0  0  0  0
    4.4465  -52.6087   11.0557 O   0  0  0  0  0  0  0  0  0  0  0  0
    5.3749  -48.0840   11.8747 C   0  0  1  0  0  0  0  0  0  0  0  0
    4.5930  -48.4061   10.7055 O   0  0  0  0  0  0  0  0  0  0  0  0
    3.8123  -43.0910   12.6009 C   0  0  2  0  0  0  0  0  0  0  0  0
    4.6917  -44.2287   12.8194 O   0  0  0  0  0  0  0  0  0  0  0  0
   -3.1860  -53.7769    5.4011 C   0  0  0  0  0  0  0  0  0  0  0  0
   -2.6339  -54.8842    6.0604 O   0  0  0  0  0  0  0  0  0  0  0  0
    0.6892  -54.7795    7.7761 C   0  0  1  0  0  0  0  0  0  0  0  0
   -0.3357  -54.8538    8.8266 O   0  0  0  0  0  0  0  0  0  0  0  0
    6.2955  -46.8816   11.4612 C   0  0  0  0  0  0  0  0  0  0  0  0
    7.4233  -46.6473   12.3953 N   0  0  0  0  0  0  0  0  0  0  0  0
    4.5193  -42.2493   11.5408 C   0  0  0  0  0  0  0  0  0  0  0  0
    3.6657  -41.1410   11.1194 O   0  0  0  0  0  0  0  0  0  0  0  0
  1  2  1  1  0  0  0
  1  8  1  0  0  0  0
  1 36  1  0  0  0  0
  3  4  1  1  0  0  0
  3 10  1  0  0  0  0
  3 47  1  0  0  0  0
  5 11  1  0  0  0  0
  5 30  1  0  0  0  0
  5 38  1  1  0  0  0
  6 21  1  6  0  0  0
  6 42  1  0  0  0  0
  7 15  1  0  0  0  0
  7 44  1  0  0  0  0
  7 32  1  6  0  0  0
  8  9  1  1  0  0  0
  8 17  1  0  0  0  0
 11 12  1  6  0  0  0
 11 20  1  0  0  0  0
 13  6  1  0  0  0  0
 13 14  1  6  0  0  0
 15 16  1  1  0  0  0
 15 24  1  0  0  0  0
 17 26  1  0  0  0  0
 18 10  1  0  0  0  0
 18 19  1  6  0  0  0
 20 21  1  6  0  0  0
 20 29  1  0  0  0  0
 22 13  1  0  0  0  0
 22 23  1  6  0  0  0
 24 25  1  1  0  0  0
 24 33  1  0  0  0  0
 26 27  1  1  0  0  0
 26 35  1  0  0  0  0
 28  2  1  6  0  0  0
 28 18  1  0  0  0  0
 29 30  1  0  0  0  0
 29 39  1  1  0  0  0
 31 22  1  0  0  0  0
 31 32  1  6  0  0  0
 31 41  1  0  0  0  0
 33 34  1  6  0  0  0
 33 43  1  0  0  0  0
 35 36  1  0  0  0  0
 35 45  1  6  0  0  0
 37 28  1  0  0  0  0
 37 38  1  1  0  0  0
 39 40  1  0  0  0  0
 41 42  1  0  0  0  0
 41 49  1  6  0  0  0
 43 44  1  0  0  0  0
 43 51  1  1  0  0  0
 45 46  1  0  0  0  0
 47 37  1  0  0  0  0
 47 48  1  1  0  0  0
 49 50  1  0  0  0  0
 51 52  1  0  0  0  0
M  END
>  <CHROM.1>
169.82404202,-146.94605396,-71.98176220,-144.91562318,165.90796678,40.23449139
-82.82515210,151.67357105,177.49414966,-52.04511877,55.77166240,-53.71711426
1.95942350,-49.93315868,9.28679842,2.13857466,0.92485361,-2.88063692

>  <Name>
2fd0_lig

>  <RI>
3.4301e+07

>  <Rbt.Current_Directory>
/home/itssahil/PROJECTS/Mol_Feturizer/New_Systems/rnas/2fd0

>  <Rbt.Executable>
rbdock ($Id: //depot/dev/client3/rdock/2013.1/src/exe/rbdock.cxx#4 $)

>  <Rbt.Library>
libRbt.so (2013.1, Build901 2013/11/27)

>  <Rbt.Parameter_File>
/export/apps/rDock/src/rDock_2013.1_src/data/scripts/dock_solv.prm

>  <Rbt.Receptor>
prm/pocket_docking_7.prm

>  <SCORE>
-15.5901

>  <SCORE.INTER>
-13.7068

>  <SCORE.INTER.CONST>
1

>  <SCORE.INTER.POLAR>
-2.18686

>  <SCORE.INTER.ROT>
12

>  <SCORE.INTER.SOLV>
21.0797

>  <SCORE.INTER.VDW>
-20.4749

>  <SCORE.INTER.norm>
-0.263591

>  <SCORE.INTRA>
-1.88337

>  <SCORE.INTRA.DIHEDRAL>
-4.46979

>  <SCORE.INTRA.DIHEDRAL.0>
23.9727

>  <SCORE.INTRA.POLAR>
0

>  <SCORE.INTRA.POLAR.0>
0

>  <SCORE.INTRA.REPUL>
0

>  <SCORE.INTRA.REPUL.0>
0

>  <SCORE.INTRA.SOLV>
-1.20024

>  <SCORE.INTRA.SOLV.lig_0>
-115.028

>  <SCORE.INTRA.VDW>
0.951639

>  <SCORE.INTRA.VDW.0>
-6.82393

>  <SCORE.INTRA.norm>
-0.0362187

>  <SCORE.RESTR>
0

>  <SCORE.RESTR.CAVITY>
0

>  <SCORE.RESTR.norm>
0

>  <SCORE.SYSTEM>
0

>  <SCORE.SYSTEM.CONST>
0

>  <SCORE.SYSTEM.DIHEDRAL>
0

>  <SCORE.SYSTEM.SOLV>
0

>  <SCORE.SYSTEM.norm>
0

>  <SCORE.heavy>
52

>  <SCORE.norm>
-0.29981

>  <RMSD>
11.707

$$$$
2fd0_lig
 OpenBabel11021811433D
libRbt.so/2013.1/901 2013/11/27
 52 56  0  0  0  0  0  0  0  0999 V2000
   -5.3604  -50.2356   10.3423 C   0  0  2  0  0  0  0  0  0  0  0  0
   -5.3003  -50.9225    9.0847 O   0  0  0  0  0  0  0  0  0  0  0  0
   -2.1726  -53.0726    6.9663 C   0  0  2  0  0  0  0  0  0  0  0  0
   -0.9550  -53.3621    6.1914 N   0  0  0  0  0  0  0  0  0  0  0  0
   -1.9019  -50.2598   10.4212 C   0  0  1  0  0  0  0  0  0  0  0  0
    0.7851  -47.4096   12.7094 C   0  0  1  0  0  0  0  0  0  0  0  0
    4.0000  -43.9754   10.6135 C   0  0  1  0  0  0  0  0  0  0  0  0
   -6.8643  -50.1455   10.7913 C   0  0  2  0  0  0  0  0  0  0  0  0
   -7.4840  -51.4604   10.8789 N   0  0  0  0  0  0  0  0  0  0  0  0
   -3.1246  -52.0906    6.1525 C   0  0  0  0  0  0  0  0  0  0  0  0
   -1.9784  -49.6930   11.8271 C   0  0  2  0  0  0  0  0  0  0  0  0
   -2.9628  -48.6269   11.9391 O   0  0  0  0  0  0  0  0  0  0  0  0
    0.7910  -45.8285   12.4650 C   0  0  2  0  0  0  0  0  0  0  0  0
    0.6351  -45.5240   11.0164 N   0  0  0  0  0  0  0  0  0  0  0  0
    5.4611  -44.2768   11.0160 C   0  0  1  0  0  0  0  0  0  0  0  0
    6.0151  -45.2459   10.0918 O   0  0  0  0  0  0  0  0  0  0  0  0
   -7.6678  -49.1961    9.8273 C   0  0  0  0  0  0  0  0  0  0  0  0
   -4.4547  -51.7856    6.9935 C   0  0  2  0  0  0  0  0  0  0  0  0
   -5.3515  -50.8771    6.2640 N   0  0  0  0  0  0  0  0  0  0  0  0
   -0.5381  -49.3048   12.1159 C   0  0  2  0  0  0  0  0  0  0  0  0
   -0.3695  -47.9133   12.1038 O   0  0  0  0  0  0  0  0  0  0  0  0
    2.1248  -45.2385   13.1606 C   0  0  1  0  0  0  0  0  0  0  0  0
    2.1045  -45.6142   14.5497 O   0  0  0  0  0  0  0  0  0  0  0  0
    6.4419  -43.0761   11.1008 C   0  0  1  0  0  0  0  0  0  0  0  0
    7.1007  -42.9538    9.8337 O   0  0  0  0  0  0  0  0  0  0  0  0
   -6.9532  -47.8059    9.7901 C   0  0  2  0  0  0  0  0  0  0  0  0
   -7.6619  -46.9094    8.9402 O   0  0  0  0  0  0  0  0  0  0  0  0
   -4.0605  -51.1629    8.3619 C   0  0  2  0  0  0  0  0  0  0  0  0
    0.3569  -49.8336   10.9697 C   0  0  2  0  0  0  0  0  0  0  0  0
   -0.5484  -50.6234   10.2119 O   0  0  0  0  0  0  0  0  0  0  0  0
    3.4677  -45.8818   12.5305 C   0  0  2  0  0  0  0  0  0  0  0  0
    3.4540  -45.4671   11.1515 O   0  0  0  0  0  0  0  0  0  0  0  0
    5.8157  -41.7114   11.4698 C   0  0  2  0  0  0  0  0  0  0  0  0
    6.7420  -41.0910   12.3882 O   0  0  0  0  0  0  0  0  0  0  0  0
   -5.4970  -47.9863    9.2737 C   0  0  2  0  0  0  0  0  0  0  0  0
   -4.7926  -48.9089   10.1913 O   0  0  0  0  0  0  0  0  0  0  0  0
   -3.0804  -52.0627    9.1748 C   0  0  2  0  0  0  0  0  0  0  0  0
   -2.7560  -51.3593   10.3979 O   0  0  0  0  0  0  0  0  0  0  0  0
    1.5148  -50.7221   11.4105 C   0  0  0  0  0  0  0  0  0  0  0  0
    0.9414  -51.8949   12.0081 O   0  0  0  0  0  0  0  0  0  0  0  0
    3.2662  -47.3844   12.5850 C   0  0  1  0  0  0  0  0  0  0  0  0
    2.0664  -48.0672   12.1649 O   0  0  0  0  0  0  0  0  0  0  0  0
    4.4130  -41.8895   12.0446 C   0  0  2  0  0  0  0  0  0  0  0  0
    3.5220  -42.7057   11.2351 O   0  0  0  0  0  0  0  0  0  0  0  0
   -4.7452  -46.6935    9.2482 C   0  0  0  0  0  0  0  0  0  0  0  0
   -5.2827  -45.8991    8.2256 O   0  0  0  0  0  0  0  0  0  0  0  0
   -1.7906  -52.3608    8.3260 C   0  0  1  0  0  0  0  0  0  0  0  0
   -0.9161  -53.2513    9.1017 O   0  0  0  0  0  0  0  0  0  0  0  0
    4.4620  -48.1922   11.9671 C   0  0  0  0  0  0  0  0  0  0  0  0
    4.3763  -49.6541   12.2013 N   0  0  0  0  0  0  0  0  0  0  0  0
    3.5618  -40.6999   12.4831 C   0  0  0  0  0  0  0  0  0  0  0  0
    3.3241  -39.8019   11.3555 O   0  0  0  0  0  0  0  0  0  0  0  0
  1  2  1  6  0  0  0
  1  8  1  0  0  0  0
  1 36  1  0  0  0  0
  3  4  1  6  0  0  0
  3 10  1  0  0  0  0
  3 47  1  0  0  0  0
  5 11  1  0  0  0  0
  5 30  1  0  0  0  0
  5 38  1  1  0  0  0
  6 21  1  6  0  0  0
  6 42  1  0  0  0  0
  7 15  1  0  0  0  0
  7 44  1  0  0  0  0
  7 32  1  1  0  0  0
  8  9  1  6  0  0  0
  8 17  1  0  0  0  0
 11 12  1  6  0  0  0
 11 20  1  0  0  0  0
 13  6  1  0  0  0  0
 13 14  1  6  0  0  0
 15 16  1  6  0  0  0
 15 24  1  0  0  0  0
 17 26  1  0  0  0  0
 18 10  1  0  0  0  0
 18 19  1  6  0  0  0
 20 21  1  6  0  0  0
 20 29  1  0  0  0  0
 22 13  1  0  0  0  0
 22 23  1  1  0  0  0
 24 25  1  6  0  0  0
 24 33  1  0  0  0  0
 26 27  1  6  0  0  0
 26 35  1  0  0  0  0
 28  2  1  1  0  0  0
 28 18  1  0  0  0  0
 29 30  1  0  0  0  0
 29 39  1  1  0  0  0
 31 22  1  0  0  0  0
 31 32  1  6  0  0  0
 31 41  1  0  0  0  0
 33 34  1  1  0  0  0
 33 43  1  0  0  0  0
 35 36  1  0  0  0  0
 35 45  1  1  0  0  0
 37 28  1  0  0  0  0
 37 38  1  1  0  0  0
 39 40  1  0  0  0  0
 41 42  1  0  0  0  0
 41 49  1  6  0  0  0
 43 44  1  0  0  0  0
 43 51  1  6  0  0  0
 45 46  1  0  0  0  0
 47 37  1  0  0  0  0
 47 48  1  1  0  0  0
 49 50  1  0  0  0  0
 51 52  1  0  0  0  0
M  END
>  <CHROM.1>
178.84148979,171.97984135,175.84532043,65.49918744,162.61173058,-173.84216247
63.63475072,82.91896863,-70.17572822,-73.97662603,171.05485111,60.04578035
-0.31397815,-47.80811003,10.54271886,2.47484060,0.15319021,-2.96966634

>  <Name>
2fd0_lig

>  <RI>
0

>  <Rbt.Current_Directory>
/home/itssahil/PROJECTS/Mol_Feturizer/New_Systems/rnas/2fd0

>  <Rbt.Executable>
rbdock ($Id: //depot/dev/client3/rdock/2013.1/src/exe/rbdock.cxx#4 $)

>  <Rbt.Library>
libRbt.so (2013.1, Build901 2013/11/27)

>  <Rbt.Parameter_File>
/export/apps/rDock/src/rDock_2013.1_src/data/scripts/dock_solv.prm

>  <Rbt.Receptor>
prm/pocket_docking_8.prm

>  <SCORE>
-9.00449

>  <SCORE.INTER>
-1.67792

>  <SCORE.INTER.CONST>
1

>  <SCORE.INTER.POLAR>
-0.34808

>  <SCORE.INTER.ROT>
12

>  <SCORE.INTER.SOLV>
15.6472

>  <SCORE.INTER.VDW>
-16.7741

>  <SCORE.INTER.norm>
-0.0322676

>  <SCORE.INTRA>
-7.32658

>  <SCORE.INTRA.DIHEDRAL>
-16.3895

>  <SCORE.INTRA.DIHEDRAL.0>
23.9727

>  <SCORE.INTRA.POLAR>
0

>  <SCORE.INTRA.POLAR.0>
0

>  <SCORE.INTRA.REPUL>
0

>  <SCORE.INTRA.REPUL.0>
0

>  <SCORE.INTRA.SOLV>
-1.40358

>  <SCORE.INTRA.SOLV.lig_0>
-115.028

>  <SCORE.INTRA.VDW>
1.56996

>  <SCORE.INTRA.VDW.0>
-6.82393

>  <SCORE.INTRA.norm>
-0.140896

>  <SCORE.RESTR>
0

>  <SCORE.RESTR.CAVITY>
0

>  <SCORE.RESTR.norm>
0

>  <SCORE.SYSTEM>
0

>  <SCORE.SYSTEM.CONST>
0

>  <SCORE.SYSTEM.DIHEDRAL>
0

>  <SCORE.SYSTEM.SOLV>
0

>  <SCORE.SYSTEM.norm>
0

>  <SCORE.heavy>
52

>  <SCORE.norm>
-0.173163

>  <RMSD>
11.721

$$$$
2fd0_lig
 OpenBabel11021811433D
libRbt.so/2013.1/901 2013/11/27
 52 56  0  0  0  0  0  0  0  0999 V2000
   -0.6236  -50.1219   10.3527 C   0  0  2  0  0  0  0  0  0  0  0  0
   -0.1292  -50.3674    9.0289 O   0  0  0  0  0  0  0  0  0  0  0  0
    3.2411  -53.0448    9.6332 C   0  0  2  0  0  0  0  0  0  0  0  0
    4.4587  -53.8352    9.3890 N   0  0  0  0  0  0  0  0  0  0  0  0
    3.1374  -48.4245   10.3991 C   0  0  1  0  0  0  0  0  0  0  0  0
    3.8386  -44.0859   11.7170 C   0  0  1  0  0  0  0  0  0  0  0  0
    7.0490  -41.8801   14.3834 C   0  0  1  0  0  0  0  0  0  0  0  0
   -2.0849  -50.6925   10.4545 C   0  0  2  0  0  0  0  0  0  0  0  0
   -2.1377  -52.1105   10.1267 N   0  0  0  0  0  0  0  0  0  0  0  0
    2.0992  -53.4575    8.6042 C   0  0  0  0  0  0  0  0  0  0  0  0
    3.1443  -47.0272    9.8067 C   0  0  2  0  0  0  0  0  0  0  0  0
    4.3728  -46.7422    9.0802 O   0  0  0  0  0  0  0  0  0  0  0  0
    5.2920  -43.4179   11.6932 C   0  0  2  0  0  0  0  0  0  0  0  0
    6.2266  -44.1706   12.5738 N   0  0  0  0  0  0  0  0  0  0  0  0
    6.8247  -40.3718   14.1331 C   0  0  1  0  0  0  0  0  0  0  0  0
    6.3417  -39.7575   15.3534 O   0  0  0  0  0  0  0  0  0  0  0  0
   -3.0633  -49.8577    9.5476 C   0  0  0  0  0  0  0  0  0  0  0  0
    0.7709  -52.6035    8.8792 C   0  0  2  0  0  0  0  0  0  0  0  0
   -0.3003  -52.9641    7.9389 N   0  0  0  0  0  0  0  0  0  0  0  0
    2.8615  -46.1458   11.0115 C   0  0  2  0  0  0  0  0  0  0  0  0
    4.0048  -45.4394   11.4101 O   0  0  0  0  0  0  0  0  0  0  0  0
    5.1087  -41.8525   12.0495 C   0  0  1  0  0  0  0  0  0  0  0  0
    4.1900  -41.2853   11.0980 O   0  0  0  0  0  0  0  0  0  0  0  0
    8.0350  -39.5437   13.6227 C   0  0  1  0  0  0  0  0  0  0  0  0
    8.6967  -38.9806   14.7625 O   0  0  0  0  0  0  0  0  0  0  0  0
   -2.9609  -48.3531    9.9604 C   0  0  2  0  0  0  0  0  0  0  0  0
   -3.8473  -47.5640    9.1731 O   0  0  0  0  0  0  0  0  0  0  0  0
    1.1036  -51.0903    8.7557 C   0  0  2  0  0  0  0  0  0  0  0  0
    2.5019  -47.0509   12.2140 C   0  0  2  0  0  0  0  0  0  0  0  0
    2.4180  -48.3369   11.6167 O   0  0  0  0  0  0  0  0  0  0  0  0
    4.4469  -41.6406   13.5094 C   0  0  2  0  0  0  0  0  0  0  0  0
    5.4042  -42.2050   14.4252 O   0  0  0  0  0  0  0  0  0  0  0  0
    9.0740  -40.3112   12.7730 C   0  0  2  0  0  0  0  0  0  0  0  0
    9.4398  -39.4165   11.6996 O   0  0  0  0  0  0  0  0  0  0  0  0
   -1.4981  -47.8614    9.7652 C   0  0  2  0  0  0  0  0  0  0  0  0
   -0.6143  -48.6941   10.6106 O   0  0  0  0  0  0  0  0  0  0  0  0
    2.2586  -50.6467    9.7045 C   0  0  2  0  0  0  0  0  0  0  0  0
    2.5026  -49.2398    9.4656 O   0  0  0  0  0  0  0  0  0  0  0  0
    1.1647  -46.7429   12.8784 C   0  0  0  0  0  0  0  0  0  0  0  0
    1.0952  -47.5371   14.0723 O   0  0  0  0  0  0  0  0  0  0  0  0
    3.1992  -42.5035   13.5223 C   0  0  1  0  0  0  0  0  0  0  0  0
    3.1450  -43.8744   13.0753 O   0  0  0  0  0  0  0  0  0  0  0  0
    8.5101  -41.6450   12.2906 C   0  0  2  0  0  0  0  0  0  0  0  0
    7.9292  -42.4741   13.3349 O   0  0  0  0  0  0  0  0  0  0  0  0
   -1.3248  -46.4342   10.1777 C   0  0  0  0  0  0  0  0  0  0  0  0
   -0.0491  -46.0173    9.7723 O   0  0  0  0  0  0  0  0  0  0  0  0
    3.5457  -51.5065    9.4276 C   0  0  1  0  0  0  0  0  0  0  0  0
    4.5937  -51.0969   10.3728 O   0  0  0  0  0  0  0  0  0  0  0  0
    2.4341  -42.4651   14.8925 C   0  0  0  0  0  0  0  0  0  0  0  0
    3.2998  -42.7398   16.0649 N   0  0  0  0  0  0  0  0  0  0  0  0
    9.3318  -42.6096   11.4384 C   0  0  0  0  0  0  0  0  0  0  0  0
   10.4664  -43.1228   12.2025 O   0  0  0  0  0  0  0  0  0  0  0  0
  1  2  1  6  0  0  0
  1  8  1  0  0  0  0
  1 36  1  0  0  0  0
  3  4  1  6  0  0  0
  3 10  1  0  0  0  0
  3 47  1  0  0  0  0
  5 11  1  0  0  0  0
  5 30  1  0  0  0  0
  5 38  1  6  0  0  0
  6 21  1  1  0  0  0
  6 42  1  0  0  0  0
  7 15  1  0  0  0  0
  7 44  1  0  0  0  0
  7 32  1  6  0  0  0
  8  9  1  6  0  0  0
  8 17  1  0  0  0  0
 11 12  1  1  0  0  0
 11 20  1  0  0  0  0
 13  6  1  0  0  0  0
 13 14  1  1  0  0  0
 15 16  1  1  0  0  0
 15 24  1  0  0  0  0
 17 26  1  0  0  0  0
 18 10  1  0  0  0  0
 18 19  1  6  0  0  0
 20 21  1  1  0  0  0
 20 29  1  0  0  0  0
 22 13  1  0  0  0  0
 22 23  1  6  0  0  0
 24 25  1  1  0  0  0
 24 33  1  0  0  0  0
 26 27  1  6  0  0  0
 26 35  1  0  0  0  0
 28  2  1  1  0  0  0
 28 18  1  0  0  0  0
 29 30  1  0  0  0  0
 29 39  1  6  0  0  0
 31 22  1  0  0  0  0
 31 32  1  1  0  0  0
 31 41  1  0  0  0  0
 33 34  1  6  0  0  0
 33 43  1  0  0  0  0
 35 36  1  0  0  0  0
 35 45  1  1  0  0  0
 37 28  1  0  0  0  0
 37 38  1  6  0  0  0
 39 40  1  0  0  0  0
 41 42  1  0  0  0  0
 41 49  1  1  0  0  0
 43 44  1  0  0  0  0
 43 51  1  1  0  0  0
 45 46  1  0  0  0  0
 47 37  1  0  0  0  0
 47 48  1  1  0  0  0
 49 50  1  0  0  0  0
 51 52  1  0  0  0  0
M  END
>  <CHROM.1>
-124.15395833,-177.49723667,-162.85813288,42.43674181,135.54128260,80.01423650
-171.71525270,47.77180039,-170.72414883,158.81888336,-51.31664269,65.52788379
3.27644383,-46.12923860,11.44450538,2.17640991,-0.04844805,-2.72942686

>  <Name>
2fd0_lig

>  <RI>
0

>  <Rbt.Current_Directory>
/home/itssahil/PROJECTS/Mol_Feturizer/New_Systems/rnas/2fd0

>  <Rbt.Executable>
rbdock ($Id: //depot/dev/client3/rdock/2013.1/src/exe/rbdock.cxx#4 $)

>  <Rbt.Library>
libRbt.so (2013.1, Build901 2013/11/27)

>  <Rbt.Parameter_File>
/export/apps/rDock/src/rDock_2013.1_src/data/scripts/dock_solv.prm

>  <Rbt.Receptor>
prm/pocket_docking_8.prm

>  <SCORE>
-12.0999

>  <SCORE.INTER>
-13.0695

>  <SCORE.INTER.CONST>
1

>  <SCORE.INTER.POLAR>
-3.34833

>  <SCORE.INTER.ROT>
12

>  <SCORE.INTER.SOLV>
16.8319

>  <SCORE.INTER.VDW>
-14.7625

>  <SCORE.INTER.norm>
-0.251337

>  <SCORE.INTRA>
0.969584

>  <SCORE.INTRA.DIHEDRAL>
-1.08563

>  <SCORE.INTRA.DIHEDRAL.0>
23.9727

>  <SCORE.INTRA.POLAR>
0

>  <SCORE.INTRA.POLAR.0>
0

>  <SCORE.INTRA.REPUL>
0

>  <SCORE.INTRA.REPUL.0>
0

>  <SCORE.INTRA.SOLV>
3.65585

>  <SCORE.INTRA.SOLV.lig_0>
-115.028

>  <SCORE.INTRA.VDW>
-0.315526

>  <SCORE.INTRA.VDW.0>
-6.82393

>  <SCORE.INTRA.norm>
0.0186459

>  <SCORE.RESTR>
0

>  <SCORE.RESTR.CAVITY>
0

>  <SCORE.RESTR.norm>
0

>  <SCORE.SYSTEM>
0

>  <SCORE.SYSTEM.CONST>
0

>  <SCORE.SYSTEM.DIHEDRAL>
0

>  <SCORE.SYSTEM.SOLV>
0

>  <SCORE.SYSTEM.norm>
0

>  <SCORE.heavy>
52

>  <SCORE.norm>
-0.232691

>  <RMSD>
11.722

$$$$
2fd0_lig
 OpenBabel11021811433D
libRbt.so/2013.1/901 2013/11/27
 52 56  0  0  0  0  0  0  0  0999 V2000
   -0.0272  -49.8095   11.5041 C   0  0  2  0  0  0  0  0  0  0  0  0
   -0.1441  -51.2325   11.3685 O   0  0  0  0  0  0  0  0  0  0  0  0
    2.6845  -54.3519   10.2910 C   0  0  2  0  0  0  0  0  0  0  0  0
    3.5677  -55.2245    9.5001 N   0  0  0  0  0  0  0  0  0  0  0  0
    3.7865  -50.0028   11.4314 C   0  0  1  0  0  0  0  0  0  0  0  0
    5.8527  -46.2309   11.4673 C   0  0  1  0  0  0  0  0  0  0  0  0
    8.1082  -42.3639   13.4860 C   0  0  1  0  0  0  0  0  0  0  0  0
   -1.1753  -49.3014   12.4502 C   0  0  2  0  0  0  0  0  0  0  0  0
   -1.1391  -49.9592   13.7489 N   0  0  0  0  0  0  0  0  0  0  0  0
    1.1911  -54.4396    9.7477 C   0  0  0  0  0  0  0  0  0  0  0  0
    3.8195  -48.5306   11.0637 C   0  0  2  0  0  0  0  0  0  0  0  0
    4.5774  -48.2831    9.8461 O   0  0  0  0  0  0  0  0  0  0  0  0
    7.3134  -45.6931   11.8369 C   0  0  2  0  0  0  0  0  0  0  0  0
    7.4856  -45.6236   13.3137 N   0  0  0  0  0  0  0  0  0  0  0  0
    7.9319  -40.9940   12.7931 C   0  0  1  0  0  0  0  0  0  0  0  0
    6.8856  -40.2540   13.4694 O   0  0  0  0  0  0  0  0  0  0  0  0
   -2.5763  -49.4800   11.7561 C   0  0  0  0  0  0  0  0  0  0  0  0
    0.2293  -53.4973   10.6173 C   0  0  2  0  0  0  0  0  0  0  0  0
   -1.1579  -53.5580   10.1337 N   0  0  0  0  0  0  0  0  0  0  0  0
    4.3535  -47.8767   12.3269 C   0  0  2  0  0  0  0  0  0  0  0  0
    5.6723  -47.4333   12.1569 O   0  0  0  0  0  0  0  0  0  0  0  0
    7.5291  -44.3013   11.0448 C   0  0  1  0  0  0  0  0  0  0  0  0
    7.3385  -44.5552    9.6412 O   0  0  0  0  0  0  0  0  0  0  0  0
    9.1815  -40.0780   12.6910 C   0  0  1  0  0  0  0  0  0  0  0  0
    9.1799  -39.2012   13.8248 O   0  0  0  0  0  0  0  0  0  0  0  0
   -2.5450  -48.7433   10.3773 C   0  0  2  0  0  0  0  0  0  0  0  0
   -3.8043  -48.8660    9.7236 O   0  0  0  0  0  0  0  0  0  0  0  0
    0.7543  -52.0358   10.5532 C   0  0  2  0  0  0  0  0  0  0  0  0
    4.4233  -48.9435   13.4456 C   0  0  2  0  0  0  0  0  0  0  0  0
    3.7793  -50.0592   12.8472 O   0  0  0  0  0  0  0  0  0  0  0  0
    6.4294  -43.1928   11.4645 C   0  0  2  0  0  0  0  0  0  0  0  0
    6.6686  -42.9593   12.8652 O   0  0  0  0  0  0  0  0  0  0  0  0
   10.5481  -40.7976   12.6203 C   0  0  2  0  0  0  0  0  0  0  0  0
   11.3222  -40.0728   11.6396 O   0  0  0  0  0  0  0  0  0  0  0  0
   -1.4246  -49.3556    9.4888 C   0  0  2  0  0  0  0  0  0  0  0  0
   -0.1345  -49.1930   10.1950 O   0  0  0  0  0  0  0  0  0  0  0  0
    2.2356  -51.9053   11.0217 C   0  0  2  0  0  0  0  0  0  0  0  0
    2.6185  -50.5169   10.8742 O   0  0  0  0  0  0  0  0  0  0  0  0
    3.6754  -48.5883   14.7258 C   0  0  0  0  0  0  0  0  0  0  0  0
    2.3042  -48.3645   14.3637 O   0  0  0  0  0  0  0  0  0  0  0  0
    5.0826  -43.8741   11.3115 C   0  0  1  0  0  0  0  0  0  0  0  0
    4.7686  -45.1921   11.8080 O   0  0  0  0  0  0  0  0  0  0  0  0
   10.3722  -42.2768   12.2874 C   0  0  2  0  0  0  0  0  0  0  0  0
    9.4192  -42.9817   13.1302 O   0  0  0  0  0  0  0  0  0  0  0  0
   -1.3185  -48.6685    8.1645 C   0  0  0  0  0  0  0  0  0  0  0  0
   -0.3453  -49.3351    7.4067 O   0  0  0  0  0  0  0  0  0  0  0  0
    3.1581  -52.8482   10.1656 C   0  0  1  0  0  0  0  0  0  0  0  0
    4.5344  -52.7377   10.6686 O   0  0  0  0  0  0  0  0  0  0  0  0
    3.8754  -42.9586   11.7224 C   0  0  0  0  0  0  0  0  0  0  0  0
    3.7558  -41.7286   10.9024 N   0  0  0  0  0  0  0  0  0  0  0  0
   11.5626  -43.2256   12.1665 C   0  0  0  0  0  0  0  0  0  0  0  0
   12.2622  -43.3288   13.4449 O   0  0  0  0  0  0  0  0  0  0  0  0
  1  2  1  6  0  0  0
  1  8  1  0  0  0  0
  1 36  1  0  0  0  0
  3  4  1  6  0  0  0
  3 10  1  0  0  0  0
  3 47  1  0  0  0  0
  5 11  1  0  0  0  0
  5 30  1  0  0  0  0
  5 38  1  6  0  0  0
  6 21  1  1  0  0  0
  6 42  1  0  0  0  0
  7 15  1  0  0  0  0
  7 44  1  0  0  0  0
  7 32  1  6  0  0  0
  8  9  1  1  0  0  0
  8 17  1  0  0  0  0
 11 12  1  6  0  0  0
 11 20  1  0  0  0  0
 13  6  1  0  0  0  0
 13 14  1  1  0  0  0
 15 16  1  1  0  0  0
 15 24  1  0  0  0  0
 17 26  1  0  0  0  0
 18 10  1  0  0  0  0
 18 19  1  6  0  0  0
 20 21  1  6  0  0  0
 20 29  1  0  0  0  0
 22 13  1  0  0  0  0
 22 23  1  6  0  0  0
 24 25  1  1  0  0  0
 24 33  1  0  0  0  0
 26 27  1  6  0  0  0
 26 35  1  0  0  0  0
 28  2  1  1  0  0  0
 28 18  1  0  0  0  0
 29 30  1  0  0  0  0
 29 39  1  1  0  0  0
 31 22  1  0  0  0  0
 31 32  1  1  0  0  0
 31 41  1  0  0  0  0
 33 34  1  6  0  0  0
 33 43  1  0  0  0  0
 35 36  1  0  0  0  0
 35 45  1  6  0  0  0
 37 28  1  0  0  0  0
 37 38  1  6  0  0  0
 39 40  1  0  0  0  0
 41 42  1  0  0  0  0
 41 49  1  1  0  0  0
 43 44  1  0  0  0  0
 43 51  1  1  0  0  0
 45 46  1  0  0  0  0
 47 37  1  0  0  0  0
 47 48  1  1  0  0  0
 49 50  1  0  0  0  0
 51 52  1  0  0  0  0
M  END
>  <CHROM.1>
179.57916777,-179.63519275,160.74347902,65.74430229,78.83928852,-176.75728845
58.12255495,61.32597559,-176.49799671,167.67332331,61.38385991,62.93843477
4.15276250,-47.16964853,11.55911857,2.31596467,0.12806264,-3.04899396

>  <Name>
2fd0_lig

>  <RI>
3.4301e+07

>  <Rbt.Current_Directory>
/home/itssahil/PROJECTS/Mol_Feturizer/New_Systems/rnas/2fd0

>  <Rbt.Executable>
rbdock ($Id: //depot/dev/client3/rdock/2013.1/src/exe/rbdock.cxx#4 $)

>  <Rbt.Library>
libRbt.so (2013.1, Build901 2013/11/27)

>  <Rbt.Parameter_File>
/export/apps/rDock/src/rDock_2013.1_src/data/scripts/dock_solv.prm

>  <Rbt.Receptor>
prm/pocket_docking_7.prm

>  <SCORE>
-21.0102

>  <SCORE.INTER>
-11.1655

>  <SCORE.INTER.CONST>
1

>  <SCORE.INTER.POLAR>
-2.05021

>  <SCORE.INTER.ROT>
12

>  <SCORE.INTER.SOLV>
15.6062

>  <SCORE.INTER.VDW>
-17.4117

>  <SCORE.INTER.norm>
-0.214722

>  <SCORE.INTRA>
-9.8447

>  <SCORE.INTRA.DIHEDRAL>
-17.9272

>  <SCORE.INTRA.DIHEDRAL.0>
23.9727

>  <SCORE.INTRA.POLAR>
0

>  <SCORE.INTRA.POLAR.0>
0

>  <SCORE.INTRA.REPUL>
0

>  <SCORE.INTRA.REPUL.0>
0

>  <SCORE.INTRA.SOLV>
-3.35061

>  <SCORE.INTRA.SOLV.lig_0>
-115.028

>  <SCORE.INTRA.VDW>
0.79422

>  <SCORE.INTRA.VDW.0>
-6.82393

>  <SCORE.INTRA.norm>
-0.189321

>  <SCORE.RESTR>
0

>  <SCORE.RESTR.CAVITY>
0

>  <SCORE.RESTR.norm>
0

>  <SCORE.SYSTEM>
0

>  <SCORE.SYSTEM.CONST>
0

>  <SCORE.SYSTEM.DIHEDRAL>
0

>  <SCORE.SYSTEM.SOLV>
0

>  <SCORE.SYSTEM.norm>
0

>  <SCORE.heavy>
52

>  <SCORE.norm>
-0.404043

>  <RMSD>
11.731

$$$$
2fd0_lig
 OpenBabel11021811433D
libRbt.so/2013.1/901 2013/11/27
 52 56  0  0  0  0  0  0  0  0999 V2000
   -1.7973  -50.3603   12.1738 C   0  0  2  0  0  0  0  0  0  0  0  0
   -1.7103  -48.9345   12.3023 O   0  0  0  0  0  0  0  0  0  0  0  0
   -4.1329  -47.4948    8.9931 C   0  0  2  0  0  0  0  0  0  0  0  0
   -4.8116  -46.5946    8.0466 N   0  0  0  0  0  0  0  0  0  0  0  0
    0.1642  -46.7611    9.8975 C   0  0  1  0  0  0  0  0  0  0  0  0
    2.6084  -44.5593   12.4914 C   0  0  1  0  0  0  0  0  0  0  0  0
    6.3582  -41.6789   14.7483 C   0  0  1  0  0  0  0  0  0  0  0  0
   -1.5177  -51.0069   13.5792 C   0  0  2  0  0  0  0  0  0  0  0  0
   -2.4353  -50.5124   14.5962 N   0  0  0  0  0  0  0  0  0  0  0  0
   -4.5900  -47.1752   10.4837 C   0  0  0  0  0  0  0  0  0  0  0  0
    1.1006  -46.7226   11.0913 C   0  0  2  0  0  0  0  0  0  0  0  0
    0.4547  -46.1905   12.2820 O   0  0  0  0  0  0  0  0  0  0  0  0
    2.7390  -43.0042   12.8439 C   0  0  2  0  0  0  0  0  0  0  0  0
    3.7254  -42.3464   11.9442 N   0  0  0  0  0  0  0  0  0  0  0  0
    7.2406  -41.5549   13.4858 C   0  0  1  0  0  0  0  0  0  0  0  0
    6.4609  -40.9551   12.4218 O   0  0  0  0  0  0  0  0  0  0  0  0
   -0.0186  -50.7772   13.9994 C   0  0  0  0  0  0  0  0  0  0  0  0
   -3.8582  -48.1639   11.5114 C   0  0  2  0  0  0  0  0  0  0  0  0
   -4.2617  -47.8874   12.8980 N   0  0  0  0  0  0  0  0  0  0  0  0
    2.2880  -45.9331   10.5666 C   0  0  2  0  0  0  0  0  0  0  0  0
    2.3357  -44.6476   11.1233 O   0  0  0  0  0  0  0  0  0  0  0  0
    3.0566  -42.8936   14.4244 C   0  0  1  0  0  0  0  0  0  0  0  0
    2.0034  -43.5671   15.1371 O   0  0  0  0  0  0  0  0  0  0  0  0
    8.5688  -40.7613   13.6166 C   0  0  1  0  0  0  0  0  0  0  0  0
    8.3102  -39.4028   13.2399 O   0  0  0  0  0  0  0  0  0  0  0  0
    0.9054  -51.3385   12.8698 C   0  0  2  0  0  0  0  0  0  0  0  0
    2.2747  -51.1659   13.2211 O   0  0  0  0  0  0  0  0  0  0  0  0
   -2.3193  -48.0069   11.3611 C   0  0  2  0  0  0  0  0  0  0  0  0
    2.1031  -45.7121    9.0462 C   0  0  2  0  0  0  0  0  0  0  0  0
    0.9648  -46.5103    8.7555 O   0  0  0  0  0  0  0  0  0  0  0  0
    4.4319  -43.6478   14.8166 C   0  0  2  0  0  0  0  0  0  0  0  0
    5.4539  -42.9323   14.0974 O   0  0  0  0  0  0  0  0  0  0  0  0
    9.2331  -40.7727   15.0127 C   0  0  2  0  0  0  0  0  0  0  0  0
   10.6494  -40.9216   14.7713 O   0  0  0  0  0  0  0  0  0  0  0  0
    0.6024  -50.5961   11.5369 C   0  0  2  0  0  0  0  0  0  0  0  0
   -0.8219  -50.8141   11.2002 O   0  0  0  0  0  0  0  0  0  0  0  0
   -1.8269  -48.2539    9.9024 C   0  0  2  0  0  0  0  0  0  0  0  0
   -0.3957  -48.0360    9.8830 O   0  0  0  0  0  0  0  0  0  0  0  0
    3.2600  -46.1927    8.1773 C   0  0  0  0  0  0  0  0  0  0  0  0
    2.8139  -46.1363    6.8139 O   0  0  0  0  0  0  0  0  0  0  0  0
    4.3153  -45.0423   14.2307 C   0  0  1  0  0  0  0  0  0  0  0  0
    3.8792  -45.3337   12.8864 O   0  0  0  0  0  0  0  0  0  0  0  0
    8.6444  -41.8736   15.8908 C   0  0  2  0  0  0  0  0  0  0  0  0
    7.1921  -41.8787   15.9697 O   0  0  0  0  0  0  0  0  0  0  0  0
    1.4312  -51.1132   10.4042 C   0  0  0  0  0  0  0  0  0  0  0  0
    1.1581  -50.3301    9.2739 O   0  0  0  0  0  0  0  0  0  0  0  0
   -2.5677  -47.2843    8.9106 C   0  0  1  0  0  0  0  0  0  0  0  0
   -2.1175  -47.5809    7.5436 O   0  0  0  0  0  0  0  0  0  0  0  0
    5.5918  -45.9237   14.4715 C   0  0  0  0  0  0  0  0  0  0  0  0
    5.4900  -47.2872   13.8972 N   0  0  0  0  0  0  0  0  0  0  0  0
    9.1139  -42.1010   17.3260 C   0  0  0  0  0  0  0  0  0  0  0  0
    8.5739  -43.3556   17.8447 O   0  0  0  0  0  0  0  0  0  0  0  0
  1  2  1  1  0  0  0
  1  8  1  0  0  0  0
  1 36  1  0  0  0  0
  3  4  1  6  0  0  0
  3 10  1  0  0  0  0
  3 47  1  0  0  0  0
  5 11  1  0  0  0  0
  5 30  1  0  0  0  0
  5 38  1  6  0  0  0
  6 21  1  6  0  0  0
  6 42  1  0  0  0  0
  7 15  1  0  0  0  0
  7 44  1  0  0  0  0
  7 32  1  6  0  0  0
  8  9  1  1  0  0  0
  8 17  1  0  0  0  0
 11 12  1  1  0  0  0
 11 20  1  0  0  0  0
 13  6  1  0  0  0  0
 13 14  1  6  0  0  0
 15 16  1  6  0  0  0
 15 24  1  0  0  0  0
 17 26  1  0  0  0  0
 18 10  1  0  0  0  0
 18 19  1  1  0  0  0
 20 21  1  1  0  0  0
 20 29  1  0  0  0  0
 22 13  1  0  0  0  0
 22 23  1  1  0  0  0
 24 25  1  1  0  0  0
 24 33  1  0  0  0  0
 26 27  1  1  0  0  0
 26 35  1  0  0  0  0
 28  2  1  1  0  0  0
 28 18  1  0  0  0  0
 29 30  1  0  0  0  0
 29 39  1  6  0  0  0
 31 22  1  0  0  0  0
 31 32  1  6  0  0  0
 31 41  1  0  0  0  0
 33 34  1  6  0  0  0
 33 43  1  0  0  0  0
 35 36  1  0  0  0  0
 35 45  1  6  0  0  0
 37 28  1  0  0  0  0
 37 38  1  1  0  0  0
 39 40  1  0  0  0  0
 41 42  1  0  0  0  0
 41 49  1  6  0  0  0
 43 44  1  0  0  0  0
 43 51  1  1  0  0  0
 45 46  1  0  0  0  0
 47 37  1  0  0  0  0
 47 48  1  6  0  0  0
 49 50  1  0  0  0  0
 51 52  1  0  0  0  0
M  END
>  <CHROM.1>
-159.18869916,124.00212170,174.93698345,175.48328289,67.40932706,67.19316942
169.56982343,94.55879128,-176.06124954,-76.44680100,-179.75148573,-169.48367085
2.28992091,-45.94401794,12.26283470,-2.97764726,-0.69966058,-0.78879924

>  <Name>
2fd0_lig

>  <RI>
0

>  <Rbt.Current_Directory>
/home/itssahil/PROJECTS/Mol_Feturizer/New_Systems/rnas/2fd0

>  <Rbt.Executable>
rbdock ($Id: //depot/dev/client3/rdock/2013.1/src/exe/rbdock.cxx#4 $)

>  <Rbt.Library>
libRbt.so (2013.1, Build901 2013/11/27)

>  <Rbt.Parameter_File>
/export/apps/rDock/src/rDock_2013.1_src/data/scripts/dock_solv.prm

>  <Rbt.Receptor>
prm/pocket_docking_6.prm

>  <SCORE>
-10.7794

>  <SCORE.INTER>
-7.44966

>  <SCORE.INTER.CONST>
1

>  <SCORE.INTER.POLAR>
0

>  <SCORE.INTER.ROT>
12

>  <SCORE.INTER.SOLV>
12.9275

>  <SCORE.INTER.VDW>
-20.8756

>  <SCORE.INTER.norm>
-0.143263

>  <SCORE.INTRA>
-3.33005

>  <SCORE.INTRA.DIHEDRAL>
-6.26906

>  <SCORE.INTRA.DIHEDRAL.0>
23.9727

>  <SCORE.INTRA.POLAR>
0

>  <SCORE.INTRA.POLAR.0>
0

>  <SCORE.INTRA.REPUL>
0

>  <SCORE.INTRA.REPUL.0>
0

>  <SCORE.INTRA.SOLV>
-1.95448

>  <SCORE.INTRA.SOLV.lig_0>
-115.028

>  <SCORE.INTRA.VDW>
0.781724

>  <SCORE.INTRA.VDW.0>
-6.82393

>  <SCORE.INTRA.norm>
-0.0640394

>  <SCORE.RESTR>
0.000281843

>  <SCORE.RESTR.CAVITY>
0.000281843

>  <SCORE.RESTR.norm>
5.42006e-06

>  <SCORE.SYSTEM>
0

>  <SCORE.SYSTEM.CONST>
0

>  <SCORE.SYSTEM.DIHEDRAL>
0

>  <SCORE.SYSTEM.SOLV>
0

>  <SCORE.SYSTEM.norm>
0

>  <SCORE.heavy>
52

>  <SCORE.norm>
-0.207297

>  <RMSD>
11.756

$$$$
2fd0_lig
 OpenBabel11021811433D
libRbt.so/2013.1/901 2013/11/27
 52 56  0  0  0  0  0  0  0  0999 V2000
   -1.1205  -49.7925   12.5352 C   0  0  2  0  0  0  0  0  0  0  0  0
   -0.3646  -48.8080   13.2538 O   0  0  0  0  0  0  0  0  0  0  0  0
   -1.3084  -45.1266   11.1445 C   0  0  2  0  0  0  0  0  0  0  0  0
   -1.3722  -43.7014   10.7816 N   0  0  0  0  0  0  0  0  0  0  0  0
    2.6089  -46.9843   12.3597 C   0  0  1  0  0  0  0  0  0  0  0  0
    5.0038  -43.1399   13.0952 C   0  0  1  0  0  0  0  0  0  0  0  0
    9.4083  -41.0814   11.3869 C   0  0  1  0  0  0  0  0  0  0  0  0
   -0.9516  -51.1782   13.2582 C   0  0  2  0  0  0  0  0  0  0  0  0
   -1.3609  -51.1152   14.6544 N   0  0  0  0  0  0  0  0  0  0  0  0
   -1.8879  -45.3496   12.6100 C   0  0  0  0  0  0  0  0  0  0  0  0
    3.1202  -45.7944   11.5683 C   0  0  2  0  0  0  0  0  0  0  0  0
    4.3151  -46.1143   10.8015 O   0  0  0  0  0  0  0  0  0  0  0  0
    4.9748  -42.4475   11.6532 C   0  0  2  0  0  0  0  0  0  0  0  0
    5.7933  -43.2261   10.6841 N   0  0  0  0  0  0  0  0  0  0  0  0
    9.6010  -42.1296   10.2681 C   0  0  1  0  0  0  0  0  0  0  0  0
    9.0455  -41.6109    9.0343 O   0  0  0  0  0  0  0  0  0  0  0  0
    0.5290  -51.6925   13.1176 C   0  0  0  0  0  0  0  0  0  0  0  0
   -1.8277  -46.9036   12.9986 C   0  0  2  0  0  0  0  0  0  0  0  0
   -2.3556  -47.1369   14.3509 N   0  0  0  0  0  0  0  0  0  0  0  0
    3.2772  -44.7208   12.6320 C   0  0  2  0  0  0  0  0  0  0  0  0
    4.6274  -44.4741   12.9165 O   0  0  0  0  0  0  0  0  0  0  0  0
    5.4112  -40.9043   11.8509 C   0  0  1  0  0  0  0  0  0  0  0  0
    4.5124  -40.3073   12.8032 O   0  0  0  0  0  0  0  0  0  0  0  0
   11.0490  -42.6105    9.9802 C   0  0  1  0  0  0  0  0  0  0  0  0
   11.5863  -41.7915    8.9338 O   0  0  0  0  0  0  0  0  0  0  0  0
    0.8950  -51.7434   11.5984 C   0  0  2  0  0  0  0  0  0  0  0  0
    2.2250  -52.2226   11.4269 O   0  0  0  0  0  0  0  0  0  0  0  0
   -0.3561  -47.3949   12.9071 C   0  0  2  0  0  0  0  0  0  0  0  0
    2.6706  -45.2431   13.9563 C   0  0  2  0  0  0  0  0  0  0  0  0
    2.0574  -46.4599   13.5550 O   0  0  0  0  0  0  0  0  0  0  0  0
    6.8963  -40.7738   12.4767 C   0  0  2  0  0  0  0  0  0  0  0  0
    7.7585  -41.3657   11.4868 O   0  0  0  0  0  0  0  0  0  0  0  0
   12.0241  -42.5883   11.1799 C   0  0  2  0  0  0  0  0  0  0  0  0
   12.7958  -43.8052   11.0801 O   0  0  0  0  0  0  0  0  0  0  0  0
    0.7616  -50.3196   10.9860 C   0  0  2  0  0  0  0  0  0  0  0  0
   -0.6351  -49.8669   11.1699 O   0  0  0  0  0  0  0  0  0  0  0  0
    0.2775  -47.1456   11.5044 C   0  0  2  0  0  0  0  0  0  0  0  0
    1.6507  -47.6011   11.5595 O   0  0  0  0  0  0  0  0  0  0  0  0
    1.6018  -44.3492   14.5751 C   0  0  0  0  0  0  0  0  0  0  0  0
    1.1548  -44.9972   15.7757 O   0  0  0  0  0  0  0  0  0  0  0  0
    6.8996  -41.6569   13.7102 C   0  0  1  0  0  0  0  0  0  0  0  0
    6.3882  -43.0054   13.7554 O   0  0  0  0  0  0  0  0  0  0  0  0
   11.2676  -42.4515   12.4985 C   0  0  2  0  0  0  0  0  0  0  0  0
   10.3125  -41.3554   12.5420 O   0  0  0  0  0  0  0  0  0  0  0  0
    1.0644  -50.3067    9.5214 C   0  0  0  0  0  0  0  0  0  0  0  0
    1.1692  -48.9700    9.1118 O   0  0  0  0  0  0  0  0  0  0  0  0
    0.1946  -45.6187   11.1377 C   0  0  1  0  0  0  0  0  0  0  0  0
    0.7524  -45.4304    9.7914 O   0  0  0  0  0  0  0  0  0  0  0  0
    8.2895  -41.6971   14.4390 C   0  0  0  0  0  0  0  0  0  0  0  0
    8.2983  -42.5439   15.6565 N   0  0  0  0  0  0  0  0  0  0  0  0
   11.9898  -42.3933   13.8428 C   0  0  0  0  0  0  0  0  0  0  0  0
   12.7698  -43.6105   14.0538 O   0  0  0  0  0  0  0  0  0  0  0  0
  1  2  1  1  0  0  0
  1  8  1  0  0  0  0
  1 36  1  0  0  0  0
  3  4  1  1  0  0  0
  3 10  1  0  0  0  0
  3 47  1  0  0  0  0
  5 11  1  0  0  0  0
  5 30  1  0  0  0  0
  5 38  1  6  0  0  0
  6 21  1  6  0  0  0
  6 42  1  0  0  0  0
  7 15  1  0  0  0  0
  7 44  1  0  0  0  0
  7 32  1  1  0  0  0
  8  9  1  1  0  0  0
  8 17  1  0  0  0  0
 11 12  1  1  0  0  0
 11 20  1  0  0  0  0
 13  6  1  0  0  0  0
 13 14  1  6  0  0  0
 15 16  1  6  0  0  0
 15 24  1  0  0  0  0
 17 26  1  0  0  0  0
 18 10  1  0  0  0  0
 18 19  1  1  0  0  0
 20 21  1  1  0  0  0
 20 29  1  0  0  0  0
 22 13  1  0  0  0  0
 22 23  1  1  0  0  0
 24 25  1  6  0  0  0
 24 33  1  0  0  0  0
 26 27  1  1  0  0  0
 26 35  1  0  0  0  0
 28  2  1  6  0  0  0
 28 18  1  0  0  0  0
 29 30  1  0  0  0  0
 29 39  1  6  0  0  0
 31 22  1  0  0  0  0
 31 32  1  6  0  0  0
 31 41  1  0  0  0  0
 33 34  1  1  0  0  0
 33 43  1  0  0  0  0
 35 36  1  0  0  0  0
 35 45  1  6  0  0  0
 37 28  1  0  0  0  0
 37 38  1  1  0  0  0
 39 40  1  0  0  0  0
 41 42  1  0  0  0  0
 41 49  1  6  0  0  0
 43 44  1  0  0  0  0
 43 51  1  1  0  0  0
 45 46  1  0  0  0  0
 47 37  1  0  0  0  0
 47 48  1  6  0  0  0
 49 50  1  0  0  0  0
 51 52  1  0  0  0  0
M  END
>  <CHROM.1>
-176.34899221,-83.16626399,-72.44373212,174.04090847,138.97614954,59.09370634
179.48724204,160.05235813,-168.97938785,-66.00944352,179.24692872,-59.91168898
4.15928077,-45.24793214,12.17965001,-2.58899268,0.18525675,0.24270338

>  <Name>
2fd0_lig

>  <RI>
0

>  <Rbt.Current_Directory>
/home/itssahil/PROJECTS/Mol_Feturizer/New_Systems/rnas/2fd0

>  <Rbt.Executable>
rbdock ($Id: //depot/dev/client3/rdock/2013.1/src/exe/rbdock.cxx#4 $)

>  <Rbt.Library>
libRbt.so (2013.1, Build901 2013/11/27)

>  <Rbt.Parameter_File>
/export/apps/rDock/src/rDock_2013.1_src/data/scripts/dock_solv.prm

>  <Rbt.Receptor>
prm/pocket_docking_8.prm

>  <SCORE>
-12.9482

>  <SCORE.INTER>
-7.84852

>  <SCORE.INTER.CONST>
1

>  <SCORE.INTER.POLAR>
-1.6501

>  <SCORE.INTER.ROT>
12

>  <SCORE.INTER.SOLV>
18.2724

>  <SCORE.INTER.VDW>
-17.4228

>  <SCORE.INTER.norm>
-0.150933

>  <SCORE.INTRA>
-5.09973

>  <SCORE.INTRA.DIHEDRAL>
-11.1216

>  <SCORE.INTRA.DIHEDRAL.0>
23.9727

>  <SCORE.INTRA.POLAR>
0

>  <SCORE.INTRA.POLAR.0>
0

>  <SCORE.INTRA.REPUL>
0

>  <SCORE.INTRA.REPUL.0>
0

>  <SCORE.INTRA.SOLV>
-0.441222

>  <SCORE.INTRA.SOLV.lig_0>
-115.028

>  <SCORE.INTRA.VDW>
0.681697

>  <SCORE.INTRA.VDW.0>
-6.82393

>  <SCORE.INTRA.norm>
-0.0980717

>  <SCORE.RESTR>
0

>  <SCORE.RESTR.CAVITY>
0

>  <SCORE.RESTR.norm>
0

>  <SCORE.SYSTEM>
0

>  <SCORE.SYSTEM.CONST>
0

>  <SCORE.SYSTEM.DIHEDRAL>
0

>  <SCORE.SYSTEM.SOLV>
0

>  <SCORE.SYSTEM.norm>
0

>  <SCORE.heavy>
52

>  <SCORE.norm>
-0.249005

>  <RMSD>
11.776

$$$$
2fd0_lig
 OpenBabel11021811433D
libRbt.so/2013.1/901 2013/11/27
 52 56  0  0  0  0  0  0  0  0999 V2000
   -0.0811  -52.3513    7.9403 C   0  0  2  0  0  0  0  0  0  0  0  0
    0.1134  -51.0755    7.3147 O   0  0  0  0  0  0  0  0  0  0  0  0
   -2.1705  -47.3774    7.2930 C   0  0  2  0  0  0  0  0  0  0  0  0
   -2.8443  -46.1488    7.7442 N   0  0  0  0  0  0  0  0  0  0  0  0
    1.9845  -48.4912    8.7484 C   0  0  1  0  0  0  0  0  0  0  0  0
    4.9382  -47.1012   11.8572 C   0  0  1  0  0  0  0  0  0  0  0  0
    6.7259  -48.8259   16.1420 C   0  0  1  0  0  0  0  0  0  0  0  0
    1.2153  -53.2150    7.7282 C   0  0  2  0  0  0  0  0  0  0  0  0
    2.4018  -52.5489    8.2472 N   0  0  0  0  0  0  0  0  0  0  0  0
   -2.7512  -48.6415    8.0661 C   0  0  0  0  0  0  0  0  0  0  0  0
    3.4868  -48.2922    8.6639 C   0  0  2  0  0  0  0  0  0  0  0  0
    4.2139  -49.5517    8.7197 O   0  0  0  0  0  0  0  0  0  0  0  0
    6.2301  -47.8358   12.4494 C   0  0  2  0  0  0  0  0  0  0  0  0
    5.8918  -49.2198   12.8801 N   0  0  0  0  0  0  0  0  0  0  0  0
    5.7821  -50.0359   16.3233 C   0  0  1  0  0  0  0  0  0  0  0  0
    5.5877  -50.6796   15.0397 O   0  0  0  0  0  0  0  0  0  0  0  0
    1.3844  -53.5849    6.2080 C   0  0  0  0  0  0  0  0  0  0  0  0
   -2.0239  -49.9792    7.5653 C   0  0  2  0  0  0  0  0  0  0  0  0
   -2.5411  -51.1633    8.2669 N   0  0  0  0  0  0  0  0  0  0  0  0
    3.7636  -47.3110    9.7904 C   0  0  2  0  0  0  0  0  0  0  0  0
    4.4118  -47.9342   10.8658 O   0  0  0  0  0  0  0  0  0  0  0  0
    6.8436  -46.8797   13.5985 C   0  0  1  0  0  0  0  0  0  0  0  0
    7.1211  -45.5972   13.0075 O   0  0  0  0  0  0  0  0  0  0  0  0
    6.2019  -51.1232   17.3492 C   0  0  1  0  0  0  0  0  0  0  0  0
    6.9276  -52.1385   16.6444 O   0  0  0  0  0  0  0  0  0  0  0  0
    0.0821  -54.3021    5.7236 C   0  0  2  0  0  0  0  0  0  0  0  0
    0.2024  -54.6707    4.3532 O   0  0  0  0  0  0  0  0  0  0  0  0
   -0.4933  -49.8451    7.7995 C   0  0  2  0  0  0  0  0  0  0  0  0
    2.4125  -46.8167   10.3601 C   0  0  2  0  0  0  0  0  0  0  0  0
    1.4736  -47.3708    9.4496 O   0  0  0  0  0  0  0  0  0  0  0  0
    5.7847  -46.6163   14.7916 C   0  0  2  0  0  0  0  0  0  0  0  0
    5.5516  -47.9181   15.3614 O   0  0  0  0  0  0  0  0  0  0  0  0
    7.0570  -50.6379   18.5426 C   0  0  2  0  0  0  0  0  0  0  0  0
    6.5464  -51.3358   19.6996 O   0  0  0  0  0  0  0  0  0  0  0  0
   -1.1334  -53.3498    5.9115 C   0  0  2  0  0  0  0  0  0  0  0  0
   -1.2325  -53.0053    7.3472 O   0  0  0  0  0  0  0  0  0  0  0  0
    0.1152  -48.5868    7.1085 C   0  0  2  0  0  0  0  0  0  0  0  0
    1.5251  -48.5494    7.4352 O   0  0  0  0  0  0  0  0  0  0  0  0
    2.2311  -45.3030   10.3734 C   0  0  0  0  0  0  0  0  0  0  0  0
    0.9979  -45.0330   11.0571 O   0  0  0  0  0  0  0  0  0  0  0  0
    4.5104  -46.1511   14.1124 C   0  0  1  0  0  0  0  0  0  0  0  0
    3.9138  -46.7875   12.9630 O   0  0  0  0  0  0  0  0  0  0  0  0
    7.0033  -49.1182   18.6733 C   0  0  2  0  0  0  0  0  0  0  0  0
    7.2994  -48.3907   17.4492 O   0  0  0  0  0  0  0  0  0  0  0  0
   -2.4198  -53.9917    5.4986 C   0  0  0  0  0  0  0  0  0  0  0  0
   -2.4200  -54.1030    4.1010 O   0  0  0  0  0  0  0  0  0  0  0  0
   -0.6222  -47.2890    7.6031 C   0  0  1  0  0  0  0  0  0  0  0  0
   -0.0585  -46.1321    6.8936 O   0  0  0  0  0  0  0  0  0  0  0  0
    3.3346  -45.8850   15.1180 C   0  0  0  0  0  0  0  0  0  0  0  0
    2.8517  -47.1073   15.8051 N   0  0  0  0  0  0  0  0  0  0  0  0
    7.7683  -48.3730   19.7648 C   0  0  0  0  0  0  0  0  0  0  0  0
    9.2043  -48.6040   19.6272 O   0  0  0  0  0  0  0  0  0  0  0  0
  1  2  1  6  0  0  0
  1  8  1  0  0  0  0
  1 36  1  0  0  0  0
  3  4  1  1  0  0  0
  3 10  1  0  0  0  0
  3 47  1  0  0  0  0
  5 11  1  0  0  0  0
  5 30  1  0  0  0  0
  5 38  1  6  0  0  0
  6 21  1  6  0  0  0
  6 42  1  0  0  0  0
  7 15  1  0  0  0  0
  7 44  1  0  0  0  0
  7 32  1  1  0  0  0
  8  9  1  6  0  0  0
  8 17  1  0  0  0  0
 11 12  1  1  0  0  0
 11 20  1  0  0  0  0
 13  6  1  0  0  0  0
 13 14  1  1  0  0  0
 15 16  1  6  0  0  0
 15 24  1  0  0  0  0
 17 26  1  0  0  0  0
 18 10  1  0  0  0  0
 18 19  1  1  0  0  0
 20 21  1  1  0  0  0
 20 29  1  0  0  0  0
 22 13  1  0  0  0  0
 22 23  1  6  0  0  0
 24 25  1  6  0  0  0
 24 33  1  0  0  0  0
 26 27  1  6  0  0  0
 26 35  1  0  0  0  0
 28  2  1  6  0  0  0
 28 18  1  0  0  0  0
 29 30  1  0  0  0  0
 29 39  1  6  0  0  0
 31 22  1  0  0  0  0
 31 32  1  6  0  0  0
 31 41  1  0  0  0  0
 33 34  1  1  0  0  0
 33 43  1  0  0  0  0
 35 36  1  0  0  0  0
 35 45  1  1  0  0  0
 37 28  1  0  0  0  0
 37 38  1  1  0  0  0
 39 40  1  0  0  0  0
 41 42  1  0  0  0  0
 41 49  1  1  0  0  0
 43 44  1  0  0  0  0
 43 51  1  1  0  0  0
 45 46  1  0  0  0  0
 47 37  1  0  0  0  0
 47 48  1  6  0  0  0
 49 50  1  0  0  0  0
 51 52  1  0  0  0  0
M  END
>  <CHROM.1>
-148.97355072,-173.08457480,-148.76433646,-175.47822977,168.70739043,-67.75016478
-174.03518572,64.61606541,-71.10665275,-58.86913687,-65.82539162,61.10628633
2.80046092,-49.28400973,11.19805182,-2.87227364,-0.93093437,0.09589938

>  <Name>
2fd0_lig

>  <RI>
0

>  <Rbt.Current_Directory>
/home/itssahil/PROJECTS/Mol_Feturizer/New_Systems/rnas/2fd0

>  <Rbt.Executable>
rbdock ($Id: //depot/dev/client3/rdock/2013.1/src/exe/rbdock.cxx#4 $)

>  <Rbt.Library>
libRbt.so (2013.1, Build901 2013/11/27)

>  <Rbt.Parameter_File>
/export/apps/rDock/src/rDock_2013.1_src/data/scripts/dock_solv.prm

>  <Rbt.Receptor>
prm/pocket_docking_5.prm

>  <SCORE>
-16.3891

>  <SCORE.INTER>
-13.5763

>  <SCORE.INTER.CONST>
1

>  <SCORE.INTER.POLAR>
-1.95899

>  <SCORE.INTER.ROT>
12

>  <SCORE.INTER.SOLV>
14.8534

>  <SCORE.INTER.VDW>
-19.072

>  <SCORE.INTER.norm>
-0.261083

>  <SCORE.INTRA>
-2.81279

>  <SCORE.INTRA.DIHEDRAL>
-12.6412

>  <SCORE.INTRA.DIHEDRAL.0>
23.9727

>  <SCORE.INTRA.POLAR>
0

>  <SCORE.INTRA.POLAR.0>
0

>  <SCORE.INTRA.REPUL>
0

>  <SCORE.INTRA.REPUL.0>
0

>  <SCORE.INTRA.SOLV>
2.35194

>  <SCORE.INTRA.SOLV.lig_0>
-115.028

>  <SCORE.INTRA.VDW>
2.33181

>  <SCORE.INTRA.VDW.0>
-6.82393

>  <SCORE.INTRA.norm>
-0.0540922

>  <SCORE.RESTR>
0

>  <SCORE.RESTR.CAVITY>
0

>  <SCORE.RESTR.norm>
0

>  <SCORE.SYSTEM>
0

>  <SCORE.SYSTEM.CONST>
0

>  <SCORE.SYSTEM.DIHEDRAL>
0

>  <SCORE.SYSTEM.SOLV>
0

>  <SCORE.SYSTEM.norm>
0

>  <SCORE.heavy>
52

>  <SCORE.norm>
-0.315175

>  <RMSD>
11.781

$$$$
2fd0_lig
 OpenBabel11021811433D
libRbt.so/2013.1/901 2013/11/27
 52 56  0  0  0  0  0  0  0  0999 V2000
   -3.3043  -52.6028    4.8520 C   0  0  2  0  0  0  0  0  0  0  0  0
   -3.4681  -51.8995    6.0912 O   0  0  0  0  0  0  0  0  0  0  0  0
   -5.4199  -48.1910    4.9381 C   0  0  2  0  0  0  0  0  0  0  0  0
   -5.9729  -46.8278    4.9921 N   0  0  0  0  0  0  0  0  0  0  0  0
   -1.3532  -49.3250    6.7216 C   0  0  1  0  0  0  0  0  0  0  0  0
    1.8714  -50.1191    9.8709 C   0  0  1  0  0  0  0  0  0  0  0  0
    2.7356  -49.3158   15.0591 C   0  0  1  0  0  0  0  0  0  0  0  0
   -3.5072  -54.1389    5.1183 C   0  0  2  0  0  0  0  0  0  0  0  0
   -4.8054  -54.4190    5.7158 N   0  0  0  0  0  0  0  0  0  0  0  0
   -6.0905  -49.1036    6.0563 C   0  0  0  0  0  0  0  0  0  0  0  0
   -0.4636  -50.4972    7.0930 C   0  0  2  0  0  0  0  0  0  0  0  0
   -1.1808  -51.5183    7.8421 O   0  0  0  0  0  0  0  0  0  0  0  0
    1.7018  -51.1558   11.0775 C   0  0  2  0  0  0  0  0  0  0  0  0
    0.5167  -50.8028   11.9060 N   0  0  0  0  0  0  0  0  0  0  0  0
    3.3760  -47.9156   14.9288 C   0  0  1  0  0  0  0  0  0  0  0  0
    2.3416  -46.9509   14.6133 O   0  0  0  0  0  0  0  0  0  0  0  0
   -2.3349  -54.7006    6.0052 C   0  0  0  0  0  0  0  0  0  0  0  0
   -5.4949  -50.5902    5.9883 C   0  0  2  0  0  0  0  0  0  0  0  0
   -6.0968  -51.4543    7.0144 N   0  0  0  0  0  0  0  0  0  0  0  0
    0.6946  -49.8295    7.8150 C   0  0  2  0  0  0  0  0  0  0  0  0
    0.6490  -50.0745    9.1944 O   0  0  0  0  0  0  0  0  0  0  0  0
    3.1108  -51.2116   11.8664 C   0  0  1  0  0  0  0  0  0  0  0  0
    4.1340  -51.5769   10.9225 O   0  0  0  0  0  0  0  0  0  0  0  0
    4.1796  -47.3805   16.1449 C   0  0  1  0  0  0  0  0  0  0  0  0
    3.2894  -46.6013   16.9539 O   0  0  0  0  0  0  0  0  0  0  0  0
   -0.9781  -54.3730    5.3004 C   0  0  2  0  0  0  0  0  0  0  0  0
    0.1104  -54.8823    6.0645 O   0  0  0  0  0  0  0  0  0  0  0  0
   -3.9533  -50.5304    6.1769 C   0  0  2  0  0  0  0  0  0  0  0  0
    0.5516  -48.2957    7.6686 C   0  0  2  0  0  0  0  0  0  0  0  0
   -0.5282  -48.1734    6.7539 O   0  0  0  0  0  0  0  0  0  0  0  0
    3.5272  -49.7658   12.4585 C   0  0  2  0  0  0  0  0  0  0  0  0
    2.4893  -49.4510   13.4057 O   0  0  0  0  0  0  0  0  0  0  0  0
    4.8559  -48.4481   17.0357 C   0  0  2  0  0  0  0  0  0  0  0  0
    6.1577  -47.9158   17.3651 O   0  0  0  0  0  0  0  0  0  0  0  0
   -0.8375  -52.8322    5.1392 C   0  0  2  0  0  0  0  0  0  0  0  0
   -1.9758  -52.3470    4.3277 O   0  0  0  0  0  0  0  0  0  0  0  0
   -3.2536  -49.6010    5.1388 C   0  0  2  0  0  0  0  0  0  0  0  0
   -1.8385  -49.5941    5.4445 O   0  0  0  0  0  0  0  0  0  0  0  0
    1.7642  -47.5866    7.0760 C   0  0  0  0  0  0  0  0  0  0  0  0
    2.8726  -47.8464    7.9507 O   0  0  0  0  0  0  0  0  0  0  0  0
    3.4254  -48.8012   11.2920 C   0  0  1  0  0  0  0  0  0  0  0  0
    2.3108  -48.7334   10.3781 O   0  0  0  0  0  0  0  0  0  0  0  0
    4.9101  -49.7989   16.3272 C   0  0  2  0  0  0  0  0  0  0  0  0
    3.6390  -50.2547   15.7867 O   0  0  0  0  0  0  0  0  0  0  0  0
    0.4276  -52.4533    4.4371 C   0  0  0  0  0  0  0  0  0  0  0  0
    0.4774  -51.0544    4.3576 O   0  0  0  0  0  0  0  0  0  0  0  0
   -3.8629  -48.1532    5.2130 C   0  0  1  0  0  0  0  0  0  0  0  0
   -3.2172  -47.3214    4.1879 O   0  0  0  0  0  0  0  0  0  0  0  0
    3.7524  -47.3171   11.6857 C   0  0  0  0  0  0  0  0  0  0  0  0
    5.1696  -47.1009   12.0650 N   0  0  0  0  0  0  0  0  0  0  0  0
    5.5189  -51.0342   16.9870 C   0  0  0  0  0  0  0  0  0  0  0  0
    4.9094  -51.2645   18.2946 O   0  0  0  0  0  0  0  0  0  0  0  0
  1  2  1  1  0  0  0
  1  8  1  0  0  0  0
  1 36  1  0  0  0  0
  3  4  1  1  0  0  0
  3 10  1  0  0  0  0
  3 47  1  0  0  0  0
  5 11  1  0  0  0  0
  5 30  1  0  0  0  0
  5 38  1  6  0  0  0
  6 21  1  1  0  0  0
  6 42  1  0  0  0  0
  7 15  1  0  0  0  0
  7 44  1  0  0  0  0
  7 32  1  6  0  0  0
  8  9  1  1  0  0  0
  8 17  1  0  0  0  0
 11 12  1  1  0  0  0
 11 20  1  0  0  0  0
 13  6  1  0  0  0  0
 13 14  1  1  0  0  0
 15 16  1  1  0  0  0
 15 24  1  0  0  0  0
 17 26  1  0  0  0  0
 18 10  1  0  0  0  0
 18 19  1  1  0  0  0
 20 21  1  1  0  0  0
 20 29  1  0  0  0  0
 22 13  1  0  0  0  0
 22 23  1  6  0  0  0
 24 25  1  1  0  0  0
 24 33  1  0  0  0  0
 26 27  1  1  0  0  0
 26 35  1  0  0  0  0
 28  2  1  6  0  0  0
 28 18  1  0  0  0  0
 29 30  1  0  0  0  0
 29 39  1  6  0  0  0
 31 22  1  0  0  0  0
 31 32  1  1  0  0  0
 31 41  1  0  0  0  0
 33 34  1  6  0  0  0
 33 43  1  0  0  0  0
 35 36  1  0  0  0  0
 35 45  1  6  0  0  0
 37 28  1  0  0  0  0
 37 38  1  1  0  0  0
 39 40  1  0  0  0  0
 41 42  1  0  0  0  0
 41 49  1  1  0  0  0
 43 44  1  0  0  0  0
 43 51  1  1  0  0  0
 45 46  1  0  0  0  0
 47 37  1  0  0  0  0
 47 48  1  6  0  0  0
 49 50  1  0  0  0  0
 51 52  1  0  0  0  0
M  END
>  <CHROM.1>
-150.84452998,125.53391232,-148.42661891,77.10850324,149.76205183,77.82471491
-60.01115005,114.34143392,-179.05769613,-51.62734228,67.20009680,53.32606187
0.34698305,-50.04857066,9.40057257,-2.73053628,-0.87527406,0.31104535

>  <Name>
2fd0_lig

>  <RI>
1.29864e+07

>  <Rbt.Current_Directory>
/home/itssahil/PROJECTS/Mol_Feturizer/New_Systems/rnas/2fd0

>  <Rbt.Executable>
rbdock ($Id: //depot/dev/client3/rdock/2013.1/src/exe/rbdock.cxx#4 $)

>  <Rbt.Library>
libRbt.so (2013.1, Build901 2013/11/27)

>  <Rbt.Parameter_File>
/export/apps/rDock/src/rDock_2013.1_src/data/scripts/dock_solv.prm

>  <Rbt.Receptor>
prm/pocket_docking_3.prm

>  <SCORE>
-7.44551

>  <SCORE.INTER>
-9.57171

>  <SCORE.INTER.CONST>
1

>  <SCORE.INTER.POLAR>
-0.88776

>  <SCORE.INTER.ROT>
12

>  <SCORE.INTER.SOLV>
17.538

>  <SCORE.INTER.VDW>
-20.8679

>  <SCORE.INTER.norm>
-0.184071

>  <SCORE.INTRA>
1.76997

>  <SCORE.INTRA.DIHEDRAL>
5.62726

>  <SCORE.INTRA.DIHEDRAL.0>
23.9727

>  <SCORE.INTRA.POLAR>
0

>  <SCORE.INTRA.POLAR.0>
0

>  <SCORE.INTRA.REPUL>
0

>  <SCORE.INTRA.REPUL.0>
0

>  <SCORE.INTRA.SOLV>
0.930456

>  <SCORE.INTRA.SOLV.lig_0>
-115.028

>  <SCORE.INTRA.VDW>
-1.50889

>  <SCORE.INTRA.VDW.0>
-6.82393

>  <SCORE.INTRA.norm>
0.0340378

>  <SCORE.RESTR>
0.356231

>  <SCORE.RESTR.CAVITY>
0.356231

>  <SCORE.RESTR.norm>
0.0068506

>  <SCORE.SYSTEM>
0

>  <SCORE.SYSTEM.CONST>
0

>  <SCORE.SYSTEM.DIHEDRAL>
0

>  <SCORE.SYSTEM.SOLV>
0

>  <SCORE.SYSTEM.norm>
0

>  <SCORE.heavy>
52

>  <SCORE.norm>
-0.143183

>  <RMSD>
11.783

$$$$
2fd0_lig
 OpenBabel11021811433D
libRbt.so/2013.1/901 2013/11/27
 52 56  0  0  0  0  0  0  0  0999 V2000
   -1.4760  -46.7870   12.3220 C   0  0  2  0  0  0  0  0  0  0  0  0
   -0.2650  -46.5263   13.0448 O   0  0  0  0  0  0  0  0  0  0  0  0
    2.8285  -47.9681   10.3533 C   0  0  2  0  0  0  0  0  0  0  0  0
    4.1458  -48.3311    9.8056 N   0  0  0  0  0  0  0  0  0  0  0  0
    1.6274  -48.9549   14.6338 C   0  0  1  0  0  0  0  0  0  0  0  0
    5.7935  -48.3408   16.4343 C   0  0  1  0  0  0  0  0  0  0  0  0
    9.7294  -51.2159   17.5827 C   0  0  1  0  0  0  0  0  0  0  0  0
   -2.6660  -46.0822   13.0695 C   0  0  2  0  0  0  0  0  0  0  0  0
   -2.4402  -44.6515   13.2208 N   0  0  0  0  0  0  0  0  0  0  0  0
    2.7983  -46.4252   10.7423 C   0  0  0  0  0  0  0  0  0  0  0  0
    3.0425  -49.3805   14.2875 C   0  0  2  0  0  0  0  0  0  0  0  0
    3.3049  -50.7664   14.6461 O   0  0  0  0  0  0  0  0  0  0  0  0
    6.7656  -48.6467   15.2011 C   0  0  2  0  0  0  0  0  0  0  0  0
    6.7463  -50.0975   14.8690 N   0  0  0  0  0  0  0  0  0  0  0  0
    9.9411  -52.2240   16.4309 C   0  0  1  0  0  0  0  0  0  0  0  0
   10.9930  -51.7348   15.5626 O   0  0  0  0  0  0  0  0  0  0  0  0
   -2.9247  -46.7719   14.4601 C   0  0  0  0  0  0  0  0  0  0  0  0
    1.3596  -46.0298   11.3281 C   0  0  2  0  0  0  0  0  0  0  0  0
    1.3058  -44.6079   11.6983 N   0  0  0  0  0  0  0  0  0  0  0  0
    3.8931  -48.3363   14.9908 C   0  0  2  0  0  0  0  0  0  0  0  0
    4.5421  -48.8732   16.1113 O   0  0  0  0  0  0  0  0  0  0  0  0
    8.2159  -48.0360   15.5680 C   0  0  1  0  0  0  0  0  0  0  0  0
    8.0498  -46.6338   15.8462 O   0  0  0  0  0  0  0  0  0  0  0  0
   10.2769  -53.6902   16.8163 C   0  0  1  0  0  0  0  0  0  0  0  0
   11.7036  -53.8257   16.8362 O   0  0  0  0  0  0  0  0  0  0  0  0
   -3.1673  -48.2978   14.2201 C   0  0  2  0  0  0  0  0  0  0  0  0
   -3.4242  -48.9570   15.4561 O   0  0  0  0  0  0  0  0  0  0  0  0
    1.0527  -46.9168   12.5669 C   0  0  2  0  0  0  0  0  0  0  0  0
    2.9625  -47.2330   15.5487 C   0  0  2  0  0  0  0  0  0  0  0  0
    1.7013  -47.5881   15.0003 O   0  0  0  0  0  0  0  0  0  0  0  0
    8.8279  -48.7009   16.9087 C   0  0  2  0  0  0  0  0  0  0  0  0
    8.9923  -50.0929   16.5786 O   0  0  0  0  0  0  0  0  0  0  0  0
    9.7112  -54.1846   18.1677 C   0  0  2  0  0  0  0  0  0  0  0  0
    9.2517  -55.5332   17.9301 O   0  0  0  0  0  0  0  0  0  0  0  0
   -1.9154  -48.9198   13.5379 C   0  0  2  0  0  0  0  0  0  0  0  0
   -1.6940  -48.2199   12.2532 O   0  0  0  0  0  0  0  0  0  0  0  0
    1.1267  -48.4418   12.2508 C   0  0  2  0  0  0  0  0  0  0  0  0
    0.8683  -49.1553   13.4838 O   0  0  0  0  0  0  0  0  0  0  0  0
    3.2984  -45.8154   15.0994 C   0  0  0  0  0  0  0  0  0  0  0  0
    2.3749  -44.9354   15.7582 O   0  0  0  0  0  0  0  0  0  0  0  0
    7.7403  -48.5787   17.9592 C   0  0  1  0  0  0  0  0  0  0  0  0
    6.3535  -48.9169   17.7478 O   0  0  0  0  0  0  0  0  0  0  0  0
    8.6196  -53.2491   18.6802 C   0  0  2  0  0  0  0  0  0  0  0  0
    8.9902  -51.8431   18.7173 O   0  0  0  0  0  0  0  0  0  0  0  0
   -2.0981  -50.3756   13.2476 C   0  0  0  0  0  0  0  0  0  0  0  0
   -2.1049  -51.0641   14.4690 O   0  0  0  0  0  0  0  0  0  0  0  0
    2.5400  -48.8041   11.6645 C   0  0  1  0  0  0  0  0  0  0  0  0
    2.5547  -50.2352   11.3310 O   0  0  0  0  0  0  0  0  0  0  0  0
    8.1359  -49.2183   19.3371 C   0  0  0  0  0  0  0  0  0  0  0  0
    7.3424  -48.7057   20.4804 N   0  0  0  0  0  0  0  0  0  0  0  0
    7.8971  -53.4971   20.0025 C   0  0  0  0  0  0  0  0  0  0  0  0
    7.0763  -54.7026   19.9148 O   0  0  0  0  0  0  0  0  0  0  0  0
  1  2  1  1  0  0  0
  1  8  1  0  0  0  0
  1 36  1  0  0  0  0
  3  4  1  1  0  0  0
  3 10  1  0  0  0  0
  3 47  1  0  0  0  0
  5 11  1  0  0  0  0
  5 30  1  0  0  0  0
  5 38  1  6  0  0  0
  6 21  1  6  0  0  0
  6 42  1  0  0  0  0
  7 15  1  0  0  0  0
  7 44  1  0  0  0  0
  7 32  1  6  0  0  0
  8  9  1  1  0  0  0
  8 17  1  0  0  0  0
 11 12  1  1  0  0  0
 11 20  1  0  0  0  0
 13  6  1  0  0  0  0
 13 14  1  1  0  0  0
 15 16  1  6  0  0  0
 15 24  1  0  0  0  0
 17 26  1  0  0  0  0
 18 10  1  0  0  0  0
 18 19  1  1  0  0  0
 20 21  1  1  0  0  0
 20 29  1  0  0  0  0
 22 13  1  0  0  0  0
 22 23  1  1  0  0  0
 24 25  1  1  0  0  0
 24 33  1  0  0  0  0
 26 27  1  1  0  0  0
 26 35  1  0  0  0  0
 28  2  1  6  0  0  0
 28 18  1  0  0  0  0
 29 30  1  0  0  0  0
 29 39  1  6  0  0  0
 31 22  1  0  0  0  0
 31 32  1  6  0  0  0
 31 41  1  0  0  0  0
 33 34  1  6  0  0  0
 33 43  1  0  0  0  0
 35 36  1  0  0  0  0
 35 45  1  6  0  0  0
 37 28  1  0  0  0  0
 37 38  1  1  0  0  0
 39 40  1  0  0  0  0
 41 42  1  0  0  0  0
 41 49  1  1  0  0  0
 43 44  1  0  0  0  0
 43 51  1  1  0  0  0
 45 46  1  0  0  0  0
 47 37  1  0  0  0  0
 47 48  1  6  0  0  0
 49 50  1  0  0  0  0
 51 52  1  0  0  0  0
M  END
>  <CHROM.1>
-173.78102817,-62.69493191,-62.42867788,-162.42921636,148.07931661,68.78408173
-177.49856360,174.17972848,-69.68150771,-56.60858434,159.22552375,-67.19495826
4.05644971,-49.21681894,15.11358298,2.57176145,-0.14540175,-0.58256316

>  <Name>
2fd0_lig

>  <RI>
3.4301e+07

>  <Rbt.Current_Directory>
/home/itssahil/PROJECTS/Mol_Feturizer/New_Systems/rnas/2fd0

>  <Rbt.Executable>
rbdock ($Id: //depot/dev/client3/rdock/2013.1/src/exe/rbdock.cxx#4 $)

>  <Rbt.Library>
libRbt.so (2013.1, Build901 2013/11/27)

>  <Rbt.Parameter_File>
/export/apps/rDock/src/rDock_2013.1_src/data/scripts/dock_solv.prm

>  <Rbt.Receptor>
prm/pocket_docking_7.prm

>  <SCORE>
-21.6656

>  <SCORE.INTER>
-17.58

>  <SCORE.INTER.CONST>
1

>  <SCORE.INTER.POLAR>
-2.7557

>  <SCORE.INTER.ROT>
12

>  <SCORE.INTER.SOLV>
18.9082

>  <SCORE.INTER.VDW>
-20.4371

>  <SCORE.INTER.norm>
-0.338077

>  <SCORE.INTRA>
-4.08558

>  <SCORE.INTRA.DIHEDRAL>
-14.5517

>  <SCORE.INTRA.DIHEDRAL.0>
23.9727

>  <SCORE.INTRA.POLAR>
0

>  <SCORE.INTRA.POLAR.0>
0

>  <SCORE.INTRA.REPUL>
0

>  <SCORE.INTRA.REPUL.0>
0

>  <SCORE.INTRA.SOLV>
-1.14022

>  <SCORE.INTRA.SOLV.lig_0>
-115.028

>  <SCORE.INTRA.VDW>
3.7604

>  <SCORE.INTRA.VDW.0>
-6.82393

>  <SCORE.INTRA.norm>
-0.0785689

>  <SCORE.RESTR>
0

>  <SCORE.RESTR.CAVITY>
0

>  <SCORE.RESTR.norm>
0

>  <SCORE.SYSTEM>
0

>  <SCORE.SYSTEM.CONST>
0

>  <SCORE.SYSTEM.DIHEDRAL>
0

>  <SCORE.SYSTEM.SOLV>
0

>  <SCORE.SYSTEM.norm>
0

>  <SCORE.heavy>
52

>  <SCORE.norm>
-0.416646

>  <RMSD>
11.789

$$$$
2fd0_lig
 OpenBabel11021811433D
libRbt.so/2013.1/901 2013/11/27
 52 56  0  0  0  0  0  0  0  0999 V2000
   -0.4516  -50.1206    5.5041 C   0  0  2  0  0  0  0  0  0  0  0  0
   -1.4907  -49.7672    4.5808 O   0  0  0  0  0  0  0  0  0  0  0  0
   -4.7025  -46.8428    4.7370 C   0  0  2  0  0  0  0  0  0  0  0  0
   -5.9735  -46.1802    5.0723 N   0  0  0  0  0  0  0  0  0  0  0  0
   -1.0407  -47.0576    7.6029 C   0  0  1  0  0  0  0  0  0  0  0  0
    1.0894  -46.7804   11.2554 C   0  0  1  0  0  0  0  0  0  0  0  0
    4.9974  -46.2700   14.8067 C   0  0  1  0  0  0  0  0  0  0  0  0
    0.4950  -51.1691    4.8141 C   0  0  2  0  0  0  0  0  0  0  0  0
    1.0488  -50.6615    3.5665 N   0  0  0  0  0  0  0  0  0  0  0  0
   -4.9785  -48.2610    4.0694 C   0  0  0  0  0  0  0  0  0  0  0  0
   -0.3975  -47.7420    8.7952 C   0  0  2  0  0  0  0  0  0  0  0  0
   -1.2315  -47.6744    9.9859 O   0  0  0  0  0  0  0  0  0  0  0  0
    1.1477  -45.5895   12.3221 C   0  0  2  0  0  0  0  0  0  0  0  0
    2.2459  -44.6424   11.9871 N   0  0  0  0  0  0  0  0  0  0  0  0
    5.7445  -45.2470   13.9218 C   0  0  1  0  0  0  0  0  0  0  0  0
    5.1327  -43.9439   14.0873 O   0  0  0  0  0  0  0  0  0  0  0  0
   -0.2638  -52.5298    4.5927 C   0  0  0  0  0  0  0  0  0  0  0  0
   -3.5935  -48.9757    3.6950 C   0  0  2  0  0  0  0  0  0  0  0  0
   -3.8206  -50.2909    3.0782 N   0  0  0  0  0  0  0  0  0  0  0  0
    0.9567  -47.0594    8.8890 C   0  0  2  0  0  0  0  0  0  0  0  0
    1.0194  -46.1929    9.9890 O   0  0  0  0  0  0  0  0  0  0  0  0
    1.2311  -46.2609   13.7895 C   0  0  1  0  0  0  0  0  0  0  0  0
    0.0941  -47.1291   13.9458 O   0  0  0  0  0  0  0  0  0  0  0  0
    7.2738  -45.0931   14.1419 C   0  0  1  0  0  0  0  0  0  0  0  0
    7.4800  -44.0275   15.0781 O   0  0  0  0  0  0  0  0  0  0  0  0
   -0.8208  -53.0176    5.9699 C   0  0  2  0  0  0  0  0  0  0  0  0
   -1.5008  -54.2593    5.8153 O   0  0  0  0  0  0  0  0  0  0  0  0
   -2.7356  -49.1297    4.9819 C   0  0  2  0  0  0  0  0  0  0  0  0
    1.1430  -46.1554    7.6470 C   0  0  2  0  0  0  0  0  0  0  0  0
    0.0182  -46.4942    6.8485 O   0  0  0  0  0  0  0  0  0  0  0  0
    2.5443  -47.1898   13.9532 C   0  0  2  0  0  0  0  0  0  0  0  0
    3.6507  -46.2798   13.8072 O   0  0  0  0  0  0  0  0  0  0  0  0
    8.0180  -46.3506   14.6475 C   0  0  2  0  0  0  0  0  0  0  0  0
    9.2603  -46.3928   13.9117 O   0  0  0  0  0  0  0  0  0  0  0  0
   -1.7943  -51.9479    6.5425 C   0  0  2  0  0  0  0  0  0  0  0  0
   -1.0462  -50.6814    6.7029 O   0  0  0  0  0  0  0  0  0  0  0  0
   -2.4850  -47.7721    5.7065 C   0  0  2  0  0  0  0  0  0  0  0  0
   -1.7197  -48.0518    6.9032 O   0  0  0  0  0  0  0  0  0  0  0  0
    2.4053  -46.4237    6.8351 C   0  0  0  0  0  0  0  0  0  0  0  0
    2.3477  -47.7932    6.4081 O   0  0  0  0  0  0  0  0  0  0  0  0
    2.5316  -48.1297   12.7624 C   0  0  1  0  0  0  0  0  0  0  0  0
    2.2990  -47.7223   11.3978 O   0  0  0  0  0  0  0  0  0  0  0  0
    7.1617  -47.6018   14.4720 C   0  0  2  0  0  0  0  0  0  0  0  0
    5.8162  -47.5002   15.0148 O   0  0  0  0  0  0  0  0  0  0  0  0
   -2.3361  -52.3394    7.8805 C   0  0  0  0  0  0  0  0  0  0  0  0
   -1.2651  -52.3926    8.7836 O   0  0  0  0  0  0  0  0  0  0  0  0
   -3.8555  -47.0824    6.0509 C   0  0  1  0  0  0  0  0  0  0  0  0
   -3.5798  -45.7854    6.6842 O   0  0  0  0  0  0  0  0  0  0  0  0
    3.7707  -49.0927   12.7207 C   0  0  0  0  0  0  0  0  0  0  0  0
    3.6785  -50.1352   11.6699 N   0  0  0  0  0  0  0  0  0  0  0  0
    7.6516  -48.9835   14.8996 C   0  0  0  0  0  0  0  0  0  0  0  0
    6.7818  -50.0227   14.3536 O   0  0  0  0  0  0  0  0  0  0  0  0
  1  2  1  6  0  0  0
  1  8  1  0  0  0  0
  1 36  1  0  0  0  0
  3  4  1  1  0  0  0
  3 10  1  0  0  0  0
  3 47  1  0  0  0  0
  5 11  1  0  0  0  0
  5 30  1  0  0  0  0
  5 38  1  6  0  0  0
  6 21  1  6  0  0  0
  6 42  1  0  0  0  0
  7 15  1  0  0  0  0
  7 44  1  0  0  0  0
  7 32  1  6  0  0  0
  8  9  1  6  0  0  0
  8 17  1  0  0  0  0
 11 12  1  1  0  0  0
 11 20  1  0  0  0  0
 13  6  1  0  0  0  0
 13 14  1  6  0  0  0
 15 16  1  1  0  0  0
 15 24  1  0  0  0  0
 17 26  1  0  0  0  0
 18 10  1  0  0  0  0
 18 19  1  1  0  0  0
 20 21  1  1  0  0  0
 20 29  1  0  0  0  0
 22 13  1  0  0  0  0
 22 23  1  6  0  0  0
 24 25  1  1  0  0  0
 24 33  1  0  0  0  0
 26 27  1  6  0  0  0
 26 35  1  0  0  0  0
 28  2  1  6  0  0  0
 28 18  1  0  0  0  0
 29 30  1  0  0  0  0
 29 39  1  6  0  0  0
 31 22  1  0  0  0  0
 31 32  1  6  0  0  0
 31 41  1  0  0  0  0
 33 34  1  6  0  0  0
 33 43  1  0  0  0  0
 35 36  1  0  0  0  0
 35 45  1  1  0  0  0
 37 28  1  0  0  0  0
 37 38  1  1  0  0  0
 39 40  1  0  0  0  0
 41 42  1  0  0  0  0
 41 49  1  6  0  0  0
 43 44  1  0  0  0  0
 43 51  1  1  0  0  0
 45 46  1  0  0  0  0
 47 37  1  0  0  0  0
 47 48  1  6  0  0  0
 49 50  1  0  0  0  0
 51 52  1  0  0  0  0
M  END
>  <CHROM.1>
162.11943339,178.78332433,-179.89375814,172.12211295,72.15717303,-177.81127907
58.86168708,135.17296203,64.20675251,163.52742278,172.18383406,-167.29840462
1.15094555,-48.08240551,9.41816530,-2.57928672,-0.67491488,0.46669458

>  <Name>
2fd0_lig

>  <RI>
2.00683e+07

>  <Rbt.Current_Directory>
/home/itssahil/PROJECTS/Mol_Feturizer/New_Systems/rnas/2fd0

>  <Rbt.Executable>
rbdock ($Id: //depot/dev/client3/rdock/2013.1/src/exe/rbdock.cxx#4 $)

>  <Rbt.Library>
libRbt.so (2013.1, Build901 2013/11/27)

>  <Rbt.Parameter_File>
/export/apps/rDock/src/rDock_2013.1_src/data/scripts/dock_solv.prm

>  <Rbt.Receptor>
prm/pocket_docking_4.prm

>  <SCORE>
-13.0851

>  <SCORE.INTER>
-5.91795

>  <SCORE.INTER.CONST>
1

>  <SCORE.INTER.POLAR>
-0.695578

>  <SCORE.INTER.ROT>
12

>  <SCORE.INTER.SOLV>
15.8327

>  <SCORE.INTER.VDW>
-18.5043

>  <SCORE.INTER.norm>
-0.113807

>  <SCORE.INTRA>
-7.16714

>  <SCORE.INTRA.DIHEDRAL>
-11.9029

>  <SCORE.INTRA.DIHEDRAL.0>
23.9727

>  <SCORE.INTRA.POLAR>
0

>  <SCORE.INTRA.POLAR.0>
0

>  <SCORE.INTRA.REPUL>
0

>  <SCORE.INTRA.REPUL.0>
0

>  <SCORE.INTRA.SOLV>
-3.93326

>  <SCORE.INTRA.SOLV.lig_0>
-115.028

>  <SCORE.INTRA.VDW>
0.750934

>  <SCORE.INTRA.VDW.0>
-6.82393

>  <SCORE.INTRA.norm>
-0.13783

>  <SCORE.RESTR>
0

>  <SCORE.RESTR.CAVITY>
0

>  <SCORE.RESTR.norm>
0

>  <SCORE.SYSTEM>
0

>  <SCORE.SYSTEM.CONST>
0

>  <SCORE.SYSTEM.DIHEDRAL>
0

>  <SCORE.SYSTEM.SOLV>
0

>  <SCORE.SYSTEM.norm>
0

>  <SCORE.heavy>
52

>  <SCORE.norm>
-0.251636

>  <RMSD>
11.799

$$$$
2fd0_lig
 OpenBabel11021811433D
libRbt.so/2013.1/901 2013/11/27
 52 56  0  0  0  0  0  0  0  0999 V2000
   -3.3076  -50.1657    8.4271 C   0  0  2  0  0  0  0  0  0  0  0  0
   -3.3171  -51.0577    7.3041 O   0  0  0  0  0  0  0  0  0  0  0  0
   -1.4864  -54.9994    7.2388 C   0  0  2  0  0  0  0  0  0  0  0  0
   -0.5268  -56.0904    7.0023 N   0  0  0  0  0  0  0  0  0  0  0  0
   -0.1437  -50.9570    8.8001 C   0  0  1  0  0  0  0  0  0  0  0  0
    2.8192  -48.4052   10.5687 C   0  0  1  0  0  0  0  0  0  0  0  0
    7.3120  -46.1252   11.5144 C   0  0  1  0  0  0  0  0  0  0  0  0
   -4.6759  -49.3924    8.4629 C   0  0  2  0  0  0  0  0  0  0  0  0
   -5.8117  -50.3019    8.5219 N   0  0  0  0  0  0  0  0  0  0  0  0
   -1.8885  -54.3096    5.8620 C   0  0  0  0  0  0  0  0  0  0  0  0
    0.4821  -50.3512   10.0431 C   0  0  2  0  0  0  0  0  0  0  0  0
    0.0019  -49.0017   10.3005 O   0  0  0  0  0  0  0  0  0  0  0  0
    3.6385  -47.1546    9.9994 C   0  0  2  0  0  0  0  0  0  0  0  0
    4.8310  -47.6154    9.2371 N   0  0  0  0  0  0  0  0  0  0  0  0
    7.6164  -46.0335   13.0266 C   0  0  1  0  0  0  0  0  0  0  0  0
    8.2595  -47.2598   13.4539 O   0  0  0  0  0  0  0  0  0  0  0  0
   -4.7860  -48.4168    7.2331 C   0  0  0  0  0  0  0  0  0  0  0  0
   -2.9418  -53.1294    6.1208 C   0  0  2  0  0  0  0  0  0  0  0  0
   -3.3283  -52.4730    4.8632 N   0  0  0  0  0  0  0  0  0  0  0  0
    1.9713  -50.4904    9.7760 C   0  0  2  0  0  0  0  0  0  0  0  0
    2.5587  -49.2509    9.4868 O   0  0  0  0  0  0  0  0  0  0  0  0
    3.9457  -46.1725   11.2452 C   0  0  1  0  0  0  0  0  0  0  0  0
    2.6897  -45.8196   11.8527 O   0  0  0  0  0  0  0  0  0  0  0  0
    8.4839  -44.8401   13.5106 C   0  0  1  0  0  0  0  0  0  0  0  0
    9.8509  -45.2700   13.5364 O   0  0  0  0  0  0  0  0  0  0  0  0
   -3.5433  -47.4678    7.2392 C   0  0  2  0  0  0  0  0  0  0  0  0
   -3.6146  -46.5544    6.1489 O   0  0  0  0  0  0  0  0  0  0  0  0
   -2.3158  -52.0925    7.0947 C   0  0  2  0  0  0  0  0  0  0  0  0
    2.1683  -51.3425    8.4995 C   0  0  2  0  0  0  0  0  0  0  0  0
    0.8482  -51.7849    8.2183 O   0  0  0  0  0  0  0  0  0  0  0  0
    4.8193  -46.9072   12.3903 C   0  0  2  0  0  0  0  0  0  0  0  0
    6.0668  -47.2247   11.7446 O   0  0  0  0  0  0  0  0  0  0  0  0
    8.3854  -43.5442   12.6730 C   0  0  2  0  0  0  0  0  0  0  0  0
    8.3586  -42.4613   13.6285 O   0  0  0  0  0  0  0  0  0  0  0  0
   -2.2437  -48.3163    7.1356 C   0  0  2  0  0  0  0  0  0  0  0  0
   -2.2004  -49.2377    8.2926 O   0  0  0  0  0  0  0  0  0  0  0  0
   -1.8514  -52.7308    8.4393 C   0  0  2  0  0  0  0  0  0  0  0  0
   -1.2506  -51.6812    9.2352 O   0  0  0  0  0  0  0  0  0  0  0  0
    3.0582  -52.5685    8.6710 C   0  0  0  0  0  0  0  0  0  0  0  0
    2.4476  -53.3945    9.6740 O   0  0  0  0  0  0  0  0  0  0  0  0
    4.0894  -48.2020   12.6940 C   0  0  1  0  0  0  0  0  0  0  0  0
    3.5905  -49.1165   11.6955 O   0  0  0  0  0  0  0  0  0  0  0  0
    7.1678  -43.5772   11.7532 C   0  0  2  0  0  0  0  0  0  0  0  0
    7.0548  -44.7742   10.9348 O   0  0  0  0  0  0  0  0  0  0  0  0
   -1.0131  -47.4670    7.1725 C   0  0  0  0  0  0  0  0  0  0  0  0
    0.1016  -48.3168    7.1417 O   0  0  0  0  0  0  0  0  0  0  0  0
   -0.8310  -53.8944    8.1611 C   0  0  1  0  0  0  0  0  0  0  0  0
   -0.4565  -54.5044    9.4444 O   0  0  0  0  0  0  0  0  0  0  0  0
    4.8196  -49.0878   13.7648 C   0  0  0  0  0  0  0  0  0  0  0  0
    4.6443  -48.6045   15.1559 N   0  0  0  0  0  0  0  0  0  0  0  0
    6.8378  -42.4250   10.8069 C   0  0  0  0  0  0  0  0  0  0  0  0
    7.9421  -42.1982    9.8777 O   0  0  0  0  0  0  0  0  0  0  0  0
  1  2  1  6  0  0  0
  1  8  1  0  0  0  0
  1 36  1  0  0  0  0
  3  4  1  6  0  0  0
  3 10  1  0  0  0  0
  3 47  1  0  0  0  0
  5 11  1  0  0  0  0
  5 30  1  0  0  0  0
  5 38  1  1  0  0  0
  6 21  1  6  0  0  0
  6 42  1  0  0  0  0
  7 15  1  0  0  0  0
  7 44  1  0  0  0  0
  7 32  1  1  0  0  0
  8  9  1  6  0  0  0
  8 17  1  0  0  0  0
 11 12  1  6  0  0  0
 11 20  1  0  0  0  0
 13  6  1  0  0  0  0
 13 14  1  1  0  0  0
 15 16  1  6  0  0  0
 15 24  1  0  0  0  0
 17 26  1  0  0  0  0
 18 10  1  0  0  0  0
 18 19  1  6  0  0  0
 20 21  1  6  0  0  0
 20 29  1  0  0  0  0
 22 13  1  0  0  0  0
 22 23  1  1  0  0  0
 24 25  1  6  0  0  0
 24 33  1  0  0  0  0
 26 27  1  6  0  0  0
 26 35  1  0  0  0  0
 28  2  1  1  0  0  0
 28 18  1  0  0  0  0
 29 30  1  0  0  0  0
 29 39  1  1  0  0  0
 31 22  1  0  0  0  0
 31 32  1  6  0  0  0
 31 41  1  0  0  0  0
 33 34  1  1  0  0  0
 33 43  1  0  0  0  0
 35 36  1  0  0  0  0
 35 45  1  1  0  0  0
 37 28  1  0  0  0  0
 37 38  1  1  0  0  0
 39 40  1  0  0  0  0
 41 42  1  0  0  0  0
 41 49  1  1  0  0  0
 43 44  1  0  0  0  0
 43 51  1  6  0  0  0
 45 46  1  0  0  0  0
 47 37  1  0  0  0  0
 47 48  1  1  0  0  0
 49 50  1  0  0  0  0
 51 52  1  0  0  0  0
M  END
>  <CHROM.1>
-168.99535335,-159.78360221,173.30940724,68.01715416,77.84118359,159.71468980
59.61171846,80.34970152,177.08588051,-59.67977765,76.84744762,59.18819591
1.87939454,-48.90079760,9.73014972,2.60351225,0.48495833,3.12169757

>  <Name>
2fd0_lig

>  <RI>
2.00683e+07

>  <Rbt.Current_Directory>
/home/itssahil/PROJECTS/Mol_Feturizer/New_Systems/rnas/2fd0

>  <Rbt.Executable>
rbdock ($Id: //depot/dev/client3/rdock/2013.1/src/exe/rbdock.cxx#4 $)

>  <Rbt.Library>
libRbt.so (2013.1, Build901 2013/11/27)

>  <Rbt.Parameter_File>
/export/apps/rDock/src/rDock_2013.1_src/data/scripts/dock_solv.prm

>  <Rbt.Receptor>
prm/pocket_docking_4.prm

>  <SCORE>
-11.0523

>  <SCORE.INTER>
-4.31202

>  <SCORE.INTER.CONST>
1

>  <SCORE.INTER.POLAR>
-1.07563

>  <SCORE.INTER.ROT>
12

>  <SCORE.INTER.SOLV>
13.6062

>  <SCORE.INTER.VDW>
-15.4246

>  <SCORE.INTER.norm>
-0.0829234

>  <SCORE.INTRA>
-6.7403

>  <SCORE.INTRA.DIHEDRAL>
-13.7065

>  <SCORE.INTRA.DIHEDRAL.0>
23.9727

>  <SCORE.INTRA.POLAR>
0

>  <SCORE.INTRA.POLAR.0>
0

>  <SCORE.INTRA.REPUL>
0.0423691

>  <SCORE.INTRA.REPUL.0>
0

>  <SCORE.INTRA.SOLV>
-2.54117

>  <SCORE.INTRA.SOLV.lig_0>
-115.028

>  <SCORE.INTRA.VDW>
1.17168

>  <SCORE.INTRA.VDW.0>
-6.82393

>  <SCORE.INTRA.norm>
-0.129621

>  <SCORE.RESTR>
0

>  <SCORE.RESTR.CAVITY>
0

>  <SCORE.RESTR.norm>
0

>  <SCORE.SYSTEM>
0

>  <SCORE.SYSTEM.CONST>
0

>  <SCORE.SYSTEM.DIHEDRAL>
0

>  <SCORE.SYSTEM.SOLV>
0

>  <SCORE.SYSTEM.norm>
0

>  <SCORE.heavy>
52

>  <SCORE.norm>
-0.212545

>  <RMSD>
11.806

$$$$
2fd0_lig
 OpenBabel11021811433D
libRbt.so/2013.1/901 2013/11/27
 52 56  0  0  0  0  0  0  0  0999 V2000
   -0.6570  -50.5262    7.9181 C   0  0  2  0  0  0  0  0  0  0  0  0
   -1.7143  -50.3498    6.9652 O   0  0  0  0  0  0  0  0  0  0  0  0
   -4.7799  -47.3545    6.2419 C   0  0  2  0  0  0  0  0  0  0  0  0
   -5.9700  -46.5046    6.4100 N   0  0  0  0  0  0  0  0  0  0  0  0
   -0.8014  -46.6605    8.5226 C   0  0  1  0  0  0  0  0  0  0  0  0
    1.8139  -45.0550   11.4955 C   0  0  1  0  0  0  0  0  0  0  0  0
    6.2169  -43.3421   13.7483 C   0  0  1  0  0  0  0  0  0  0  0  0
    0.4611  -51.4177    7.2649 C   0  0  2  0  0  0  0  0  0  0  0  0
    0.9602  -50.8399    6.0249 N   0  0  0  0  0  0  0  0  0  0  0  0
   -5.1908  -48.8918    6.2697 C   0  0  0  0  0  0  0  0  0  0  0  0
   -0.0291  -46.8407    9.8167 C   0  0  2  0  0  0  0  0  0  0  0  0
   -0.7203  -46.2580   10.9572 O   0  0  0  0  0  0  0  0  0  0  0  0
    1.9041  -43.5385   11.9970 C   0  0  2  0  0  0  0  0  0  0  0  0
    2.8575  -42.7662   11.1546 N   0  0  0  0  0  0  0  0  0  0  0  0
    6.6291  -42.5189   12.5073 C   0  0  1  0  0  0  0  0  0  0  0  0
    6.0508  -41.1939   12.6062 O   0  0  0  0  0  0  0  0  0  0  0  0
   -0.0672  -52.8833    7.0426 C   0  0  0  0  0  0  0  0  0  0  0  0
   -3.8949  -49.8150    6.0753 C   0  0  2  0  0  0  0  0  0  0  0  0
   -4.2472  -51.2423    6.0998 N   0  0  0  0  0  0  0  0  0  0  0  0
    1.3306  -46.2486    9.4862 C   0  0  2  0  0  0  0  0  0  0  0  0
    1.5240  -45.0178   10.1286 O   0  0  0  0  0  0  0  0  0  0  0  0
    2.2414  -43.5729   13.5769 C   0  0  1  0  0  0  0  0  0  0  0  0
    1.2189  -44.3447   14.2326 O   0  0  0  0  0  0  0  0  0  0  0  0
    8.1479  -42.3622   12.2251 C   0  0  1  0  0  0  0  0  0  0  0  0
    8.5886  -41.1464   12.8430 O   0  0  0  0  0  0  0  0  0  0  0  0
   -0.5760  -53.4408    8.4119 C   0  0  2  0  0  0  0  0  0  0  0  0
   -1.0470  -54.7758    8.2567 O   0  0  0  0  0  0  0  0  0  0  0  0
   -2.8702  -49.4978    7.2001 C   0  0  2  0  0  0  0  0  0  0  0  0
    1.3777  -45.9300    7.9727 C   0  0  2  0  0  0  0  0  0  0  0  0
    0.1667  -46.5025    7.5001 O   0  0  0  0  0  0  0  0  0  0  0  0
    3.6439  -44.3194   13.8773 C   0  0  2  0  0  0  0  0  0  0  0  0
    4.6338  -43.5062   13.2197 O   0  0  0  0  0  0  0  0  0  0  0  0
    9.0518  -43.5208   12.7059 C   0  0  2  0  0  0  0  0  0  0  0  0
   10.0173  -43.7277   11.6516 O   0  0  0  0  0  0  0  0  0  0  0  0
   -1.7209  -52.5337    8.9467 C   0  0  2  0  0  0  0  0  0  0  0  0
   -1.1867  -51.1634    9.1091 O   0  0  0  0  0  0  0  0  0  0  0  0
   -2.4783  -47.9896    7.2520 C   0  0  2  0  0  0  0  0  0  0  0  0
   -1.5618  -47.8156    8.3591 O   0  0  0  0  0  0  0  0  0  0  0  0
    2.5368  -46.5662    7.2135 C   0  0  0  0  0  0  0  0  0  0  0  0
    2.4446  -46.1183    5.8526 O   0  0  0  0  0  0  0  0  0  0  0  0
    3.5595  -45.6530   13.1589 C   0  0  1  0  0  0  0  0  0  0  0  0
    3.1125  -45.8251   11.7978 O   0  0  0  0  0  0  0  0  0  0  0  0
    8.2256  -44.7627   13.0294 C   0  0  2  0  0  0  0  0  0  0  0  0
    7.1019  -44.5309   13.9233 O   0  0  0  0  0  0  0  0  0  0  0  0
   -2.2289  -52.9942   10.2760 C   0  0  0  0  0  0  0  0  0  0  0  0
   -1.1698  -52.9270   11.1922 O   0  0  0  0  0  0  0  0  0  0  0  0
   -3.7648  -47.1028    7.4283 C   0  0  1  0  0  0  0  0  0  0  0  0
   -3.3627  -45.6894    7.4207 O   0  0  0  0  0  0  0  0  0  0  0  0
    4.8647  -46.5142   13.2973 C   0  0  0  0  0  0  0  0  0  0  0  0
    4.7638  -47.8525   12.6663 N   0  0  0  0  0  0  0  0  0  0  0  0
    8.8681  -46.0519   13.5366 C   0  0  0  0  0  0  0  0  0  0  0  0
    9.9121  -46.4958   12.6160 O   0  0  0  0  0  0  0  0  0  0  0  0
  1  2  1  6  0  0  0
  1  8  1  0  0  0  0
  1 36  1  0  0  0  0
  3  4  1  1  0  0  0
  3 10  1  0  0  0  0
  3 47  1  0  0  0  0
  5 11  1  0  0  0  0
  5 30  1  0  0  0  0
  5 38  1  6  0  0  0
  6 21  1  6  0  0  0
  6 42  1  0  0  0  0
  7 15  1  0  0  0  0
  7 44  1  0  0  0  0
  7 32  1  6  0  0  0
  8  9  1  6  0  0  0
  8 17  1  0  0  0  0
 11 12  1  1  0  0  0
 11 20  1  0  0  0  0
 13  6  1  0  0  0  0
 13 14  1  6  0  0  0
 15 16  1  1  0  0  0
 15 24  1  0  0  0  0
 17 26  1  0  0  0  0
 18 10  1  0  0  0  0
 18 19  1  1  0  0  0
 20 21  1  1  0  0  0
 20 29  1  0  0  0  0
 22 13  1  0  0  0  0
 22 23  1  1  0  0  0
 24 25  1  1  0  0  0
 24 33  1  0  0  0  0
 26 27  1  6  0  0  0
 26 35  1  0  0  0  0
 28  2  1  6  0  0  0
 28 18  1  0  0  0  0
 29 30  1  0  0  0  0
 29 39  1  6  0  0  0
 31 22  1  0  0  0  0
 31 32  1  6  0  0  0
 31 41  1  0  0  0  0
 33 34  1  6  0  0  0
 33 43  1  0  0  0  0
 35 36  1  0  0  0  0
 35 45  1  1  0  0  0
 37 28  1  0  0  0  0
 37 38  1  1  0  0  0
 39 40  1  0  0  0  0
 41 42  1  0  0  0  0
 41 49  1  6  0  0  0
 43 44  1  0  0  0  0
 43 51  1  1  0  0  0
 45 46  1  0  0  0  0
 47 37  1  0  0  0  0
 47 48  1  6  0  0  0
 49 50  1  0  0  0  0
 51 52  1  0  0  0  0
M  END
>  <CHROM.1>
-175.45446070,177.50113936,-176.84162759,173.86280892,75.81000852,-168.46790121
-177.74226385,149.60964387,61.55204615,166.25584913,176.60510727,-54.89499838
1.66450274,-46.99592142,10.01220277,-2.54651810,-0.45885287,0.11933606

>  <Name>
2fd0_lig

>  <RI>
0

>  <Rbt.Current_Directory>
/home/itssahil/PROJECTS/Mol_Feturizer/New_Systems/rnas/2fd0

>  <Rbt.Executable>
rbdock ($Id: //depot/dev/client3/rdock/2013.1/src/exe/rbdock.cxx#4 $)

>  <Rbt.Library>
libRbt.so (2013.1, Build901 2013/11/27)

>  <Rbt.Parameter_File>
/export/apps/rDock/src/rDock_2013.1_src/data/scripts/dock_solv.prm

>  <Rbt.Receptor>
prm/pocket_docking_5.prm

>  <SCORE>
-10.5867

>  <SCORE.INTER>
-1.2939

>  <SCORE.INTER.CONST>
1

>  <SCORE.INTER.POLAR>
0

>  <SCORE.INTER.ROT>
12

>  <SCORE.INTER.SOLV>
8.49856

>  <SCORE.INTER.VDW>
-15.2955

>  <SCORE.INTER.norm>
-0.0248827

>  <SCORE.INTRA>
-9.30533

>  <SCORE.INTRA.DIHEDRAL>
-15.5504

>  <SCORE.INTRA.DIHEDRAL.0>
23.9727

>  <SCORE.INTRA.POLAR>
0

>  <SCORE.INTRA.POLAR.0>
0

>  <SCORE.INTRA.REPUL>
0

>  <SCORE.INTRA.REPUL.0>
0

>  <SCORE.INTRA.SOLV>
-4.64952

>  <SCORE.INTRA.SOLV.lig_0>
-115.028

>  <SCORE.INTRA.VDW>
0.794608

>  <SCORE.INTRA.VDW.0>
-6.82393

>  <SCORE.INTRA.norm>
-0.178949

>  <SCORE.RESTR>
0.0125143

>  <SCORE.RESTR.CAVITY>
0.0125143

>  <SCORE.RESTR.norm>
0.00024066

>  <SCORE.SYSTEM>
0

>  <SCORE.SYSTEM.CONST>
0

>  <SCORE.SYSTEM.DIHEDRAL>
0

>  <SCORE.SYSTEM.SOLV>
0

>  <SCORE.SYSTEM.norm>
0

>  <SCORE.heavy>
52

>  <SCORE.norm>
-0.203591

>  <RMSD>
11.814

$$$$
2fd0_lig
 OpenBabel11021811433D
libRbt.so/2013.1/901 2013/11/27
 52 56  0  0  0  0  0  0  0  0999 V2000
    0.1382  -54.9407    4.5550 C   0  0  2  0  0  0  0  0  0  0  0  0
    0.3930  -53.5431    4.3583 O   0  0  0  0  0  0  0  0  0  0  0  0
   -1.5454  -49.6605    4.6047 C   0  0  2  0  0  0  0  0  0  0  0  0
   -2.4618  -48.5792    5.0021 N   0  0  0  0  0  0  0  0  0  0  0  0
    2.1331  -51.1654    7.1016 C   0  0  1  0  0  0  0  0  0  0  0  0
    3.2574  -49.5422   10.7521 C   0  0  1  0  0  0  0  0  0  0  0  0
    5.5991  -46.8391   14.6323 C   0  0  1  0  0  0  0  0  0  0  0  0
    0.0493  -55.2202    6.0995 C   0  0  2  0  0  0  0  0  0  0  0  0
   -0.9714  -54.4031    6.7408 N   0  0  0  0  0  0  0  0  0  0  0  0
   -2.3670  -50.9017    4.0414 C   0  0  0  0  0  0  0  0  0  0  0  0
    1.9116  -51.0437    8.5982 C   0  0  2  0  0  0  0  0  0  0  0  0
    1.3182  -49.7666    8.9658 O   0  0  0  0  0  0  0  0  0  0  0  0
    3.5386  -47.9729   10.6194 C   0  0  2  0  0  0  0  0  0  0  0  0
    4.9983  -47.7139   10.4863 N   0  0  0  0  0  0  0  0  0  0  0  0
    6.9668  -46.8938   13.9152 C   0  0  1  0  0  0  0  0  0  0  0  0
    7.0386  -45.8130   12.9525 O   0  0  0  0  0  0  0  0  0  0  0  0
    1.4557  -55.0153    6.7751 C   0  0  0  0  0  0  0  0  0  0  0  0
   -1.3666  -52.0733    3.5991 C   0  0  2  0  0  0  0  0  0  0  0  0
   -2.1016  -53.2347    3.0767 N   0  0  0  0  0  0  0  0  0  0  0  0
    3.2901  -51.3287    9.1701 C   0  0  2  0  0  0  0  0  0  0  0  0
    3.8884  -50.1643    9.6710 O   0  0  0  0  0  0  0  0  0  0  0  0
    2.8138  -47.2464   11.8674 C   0  0  1  0  0  0  0  0  0  0  0  0
    1.4177  -47.5939   11.8338 O   0  0  0  0  0  0  0  0  0  0  0  0
    8.2413  -46.8365   14.8002 C   0  0  1  0  0  0  0  0  0  0  0  0
    8.6506  -45.4663   14.8967 O   0  0  0  0  0  0  0  0  0  0  0  0
    2.4951  -55.9266    6.0445 C   0  0  2  0  0  0  0  0  0  0  0  0
    3.7811  -55.7837    6.6396 O   0  0  0  0  0  0  0  0  0  0  0  0
   -0.5020  -52.4931    4.8205 C   0  0  2  0  0  0  0  0  0  0  0  0
    4.2147  -51.8006    8.0226 C   0  0  2  0  0  0  0  0  0  0  0  0
    3.3110  -51.9353    6.9350 O   0  0  0  0  0  0  0  0  0  0  0  0
    3.3843  -47.7735   13.2855 C   0  0  2  0  0  0  0  0  0  0  0  0
    4.7724  -47.3901   13.2812 O   0  0  0  0  0  0  0  0  0  0  0  0
    8.1049  -47.4168   16.2269 C   0  0  2  0  0  0  0  0  0  0  0  0
    9.3268  -48.1475   16.4709 O   0  0  0  0  0  0  0  0  0  0  0  0
    2.5605  -55.5342    4.5406 C   0  0  2  0  0  0  0  0  0  0  0  0
    1.2121  -55.7123    3.9579 O   0  0  0  0  0  0  0  0  0  0  0  0
    0.2801  -51.2979    5.4459 C   0  0  2  0  0  0  0  0  0  0  0  0
    1.0056  -51.8040    6.5920 O   0  0  0  0  0  0  0  0  0  0  0  0
    4.8937  -53.1464    8.2508 C   0  0  0  0  0  0  0  0  0  0  0  0
    5.6858  -53.4212    7.0854 O   0  0  0  0  0  0  0  0  0  0  0  0
    3.3011  -49.2870   13.2228 C   0  0  1  0  0  0  0  0  0  0  0  0
    3.7440  -50.0877   12.1071 O   0  0  0  0  0  0  0  0  0  0  0  0
    6.8468  -48.2717   16.3530 C   0  0  2  0  0  0  0  0  0  0  0  0
    5.6244  -47.6272   15.8993 O   0  0  0  0  0  0  0  0  0  0  0  0
    3.5141  -56.3958    3.7755 C   0  0  0  0  0  0  0  0  0  0  0  0
    3.4703  -56.0029    2.4304 O   0  0  0  0  0  0  0  0  0  0  0  0
   -0.7186  -50.1556    5.8587 C   0  0  1  0  0  0  0  0  0  0  0  0
    0.0567  -49.0282    6.3946 O   0  0  0  0  0  0  0  0  0  0  0  0
    3.8603  -49.9915   14.5094 C   0  0  0  0  0  0  0  0  0  0  0  0
    5.3271  -50.2084   14.4787 N   0  0  0  0  0  0  0  0  0  0  0  0
    6.4633  -48.9578   17.6622 C   0  0  0  0  0  0  0  0  0  0  0  0
    6.5167  -48.0062   18.7695 O   0  0  0  0  0  0  0  0  0  0  0  0
  1  2  1  1  0  0  0
  1  8  1  0  0  0  0
  1 36  1  0  0  0  0
  3  4  1  1  0  0  0
  3 10  1  0  0  0  0
  3 47  1  0  0  0  0
  5 11  1  0  0  0  0
  5 30  1  0  0  0  0
  5 38  1  6  0  0  0
  6 21  1  6  0  0  0
  6 42  1  0  0  0  0
  7 15  1  0  0  0  0
  7 44  1  0  0  0  0
  7 32  1  6  0  0  0
  8  9  1  1  0  0  0
  8 17  1  0  0  0  0
 11 12  1  6  0  0  0
 11 20  1  0  0  0  0
 13  6  1  0  0  0  0
 13 14  1  1  0  0  0
 15 16  1  6  0  0  0
 15 24  1  0  0  0  0
 17 26  1  0  0  0  0
 18 10  1  0  0  0  0
 18 19  1  1  0  0  0
 20 21  1  6  0  0  0
 20 29  1  0  0  0  0
 22 13  1  0  0  0  0
 22 23  1  1  0  0  0
 24 25  1  1  0  0  0
 24 33  1  0  0  0  0
 26 27  1  1  0  0  0
 26 35  1  0  0  0  0
 28  2  1  6  0  0  0
 28 18  1  0  0  0  0
 29 30  1  0  0  0  0
 29 39  1  1  0  0  0
 31 22  1  0  0  0  0
 31 32  1  6  0  0  0
 31 41  1  0  0  0  0
 33 34  1  6  0  0  0
 33 43  1  0  0  0  0
 35 36  1  0  0  0  0
 35 45  1  6  0  0  0
 37 28  1  0  0  0  0
 37 38  1  1  0  0  0
 39 40  1  0  0  0  0
 41 42  1  0  0  0  0
 41 49  1  1  0  0  0
 43 44  1  0  0  0  0
 43 51  1  1  0  0  0
 45 46  1  0  0  0  0
 47 37  1  0  0  0  0
 47 48  1  6  0  0  0
 49 50  1  0  0  0  0
 51 52  1  0  0  0  0
M  END
>  <CHROM.1>
-60.18387126,130.78848013,-148.60182219,170.80775446,63.67158264,-98.18846423
179.21567834,142.12113587,177.90174532,157.35114473,-85.52812055,49.49990621
3.10481689,-50.69623125,9.41790560,-2.15178693,-0.64528060,0.67837337

>  <Name>
2fd0_lig

>  <RI>
3.4301e+07

>  <Rbt.Current_Directory>
/home/itssahil/PROJECTS/Mol_Feturizer/New_Systems/rnas/2fd0

>  <Rbt.Executable>
rbdock ($Id: //depot/dev/client3/rdock/2013.1/src/exe/rbdock.cxx#4 $)

>  <Rbt.Library>
libRbt.so (2013.1, Build901 2013/11/27)

>  <Rbt.Parameter_File>
/export/apps/rDock/src/rDock_2013.1_src/data/scripts/dock_solv.prm

>  <Rbt.Receptor>
prm/pocket_docking_7.prm

>  <SCORE>
-12.7208

>  <SCORE.INTER>
-15.942

>  <SCORE.INTER.CONST>
1

>  <SCORE.INTER.POLAR>
-1.95645

>  <SCORE.INTER.ROT>
12

>  <SCORE.INTER.SOLV>
16.3

>  <SCORE.INTER.VDW>
-21.1398

>  <SCORE.INTER.norm>
-0.306576

>  <SCORE.INTRA>
3.22118

>  <SCORE.INTRA.DIHEDRAL>
2.415

>  <SCORE.INTRA.DIHEDRAL.0>
23.9727

>  <SCORE.INTRA.POLAR>
0

>  <SCORE.INTRA.POLAR.0>
0

>  <SCORE.INTRA.REPUL>
0

>  <SCORE.INTRA.REPUL.0>
0

>  <SCORE.INTRA.SOLV>
4.98033

>  <SCORE.INTRA.SOLV.lig_0>
-115.028

>  <SCORE.INTRA.VDW>
-0.476479

>  <SCORE.INTRA.VDW.0>
-6.82393

>  <SCORE.INTRA.norm>
0.0619458

>  <SCORE.RESTR>
0

>  <SCORE.RESTR.CAVITY>
0

>  <SCORE.RESTR.norm>
0

>  <SCORE.SYSTEM>
0

>  <SCORE.SYSTEM.CONST>
0

>  <SCORE.SYSTEM.DIHEDRAL>
0

>  <SCORE.SYSTEM.SOLV>
0

>  <SCORE.SYSTEM.norm>
0

>  <SCORE.heavy>
52

>  <SCORE.norm>
-0.244631

>  <RMSD>
11.817

$$$$
2fd0_lig
 OpenBabel11021811433D
libRbt.so/2013.1/901 2013/11/27
 52 56  0  0  0  0  0  0  0  0999 V2000
   -2.7509  -51.4928    3.1104 C   0  0  2  0  0  0  0  0  0  0  0  0
   -1.4800  -51.1006    3.6470 O   0  0  0  0  0  0  0  0  0  0  0  0
    0.3620  -54.8826    4.7405 C   0  0  2  0  0  0  0  0  0  0  0  0
    1.3100  -55.8698    5.2826 N   0  0  0  0  0  0  0  0  0  0  0  0
   -0.9561  -51.8017    7.5561 C   0  0  1  0  0  0  0  0  0  0  0  0
    0.7315  -50.3646    9.9915 C   0  0  1  0  0  0  0  0  0  0  0  0
    4.6867  -49.0460   12.8778 C   0  0  1  0  0  0  0  0  0  0  0  0
   -3.3353  -50.2923    2.2805 C   0  0  2  0  0  0  0  0  0  0  0  0
   -2.4257  -49.8687    1.2251 N   0  0  0  0  0  0  0  0  0  0  0  0
    1.0870  -53.9474    3.6761 C   0  0  0  0  0  0  0  0  0  0  0  0
   -1.5893  -50.5950    8.2243 C   0  0  2  0  0  0  0  0  0  0  0  0
   -0.9225  -49.3523    7.8647 O   0  0  0  0  0  0  0  0  0  0  0  0
    1.3626  -51.5440   10.8692 C   0  0  2  0  0  0  0  0  0  0  0  0
    1.1510  -51.2856   12.3196 N   0  0  0  0  0  0  0  0  0  0  0  0
    4.3738  -49.6637   14.2593 C   0  0  1  0  0  0  0  0  0  0  0  0
    5.0669  -50.9307   14.3778 O   0  0  0  0  0  0  0  0  0  0  0  0
   -3.7043  -49.0958    3.2337 C   0  0  0  0  0  0  0  0  0  0  0  0
    0.0503  -52.8806    3.0792 C   0  0  2  0  0  0  0  0  0  0  0  0
    0.6965  -52.0013    2.0938 N   0  0  0  0  0  0  0  0  0  0  0  0
   -1.5589  -50.9670    9.6971 C   0  0  2  0  0  0  0  0  0  0  0  0
   -0.5991  -50.2209   10.3949 O   0  0  0  0  0  0  0  0  0  0  0  0
    2.9024  -51.7150   10.4101 C   0  0  1  0  0  0  0  0  0  0  0  0
    2.9178  -51.9691    8.9937 O   0  0  0  0  0  0  0  0  0  0  0  0
    4.7062  -48.8130   15.5150 C   0  0  1  0  0  0  0  0  0  0  0  0
    6.0228  -49.1703   15.9544 O   0  0  0  0  0  0  0  0  0  0  0  0
   -4.6867  -49.6200    4.3314 C   0  0  2  0  0  0  0  0  0  0  0  0
   -5.0603  -48.5601    5.2061 O   0  0  0  0  0  0  0  0  0  0  0  0
   -0.5392  -52.0366    4.2436 C   0  0  2  0  0  0  0  0  0  0  0  0
   -1.1031  -52.4401    9.8267 C   0  0  2  0  0  0  0  0  0  0  0  0
   -1.0769  -52.8741    8.4744 O   0  0  0  0  0  0  0  0  0  0  0  0
    3.7544  -50.3607   10.6430 C   0  0  2  0  0  0  0  0  0  0  0  0
    3.7260  -50.1569   12.0682 O   0  0  0  0  0  0  0  0  0  0  0  0
    4.6412  -47.2789   15.3336 C   0  0  2  0  0  0  0  0  0  0  0  0
    4.0169  -46.7688   16.5322 O   0  0  0  0  0  0  0  0  0  0  0  0
   -3.9997  -50.7574    5.1401 C   0  0  2  0  0  0  0  0  0  0  0  0
   -3.6436  -51.8427    4.1995 O   0  0  0  0  0  0  0  0  0  0  0  0
   -1.2117  -52.9128    5.3441 C   0  0  2  0  0  0  0  0  0  0  0  0
   -1.6778  -52.0219    6.3858 O   0  0  0  0  0  0  0  0  0  0  0  0
   -2.0535  -53.3454   10.6022 C   0  0  0  0  0  0  0  0  0  0  0  0
   -1.3952  -54.6118   10.7578 O   0  0  0  0  0  0  0  0  0  0  0  0
    2.9541  -49.2549    9.9809 C   0  0  1  0  0  0  0  0  0  0  0  0
    1.5338  -49.0594   10.1440 O   0  0  0  0  0  0  0  0  0  0  0  0
    3.8974  -46.9093   14.0531 C   0  0  2  0  0  0  0  0  0  0  0  0
    4.3700  -47.5878   12.8566 O   0  0  0  0  0  0  0  0  0  0  0  0
   -4.9032  -51.3283    6.1865 C   0  0  0  0  0  0  0  0  0  0  0  0
   -4.1869  -52.3053    6.8921 O   0  0  0  0  0  0  0  0  0  0  0  0
   -0.1818  -53.9606    5.9047 C   0  0  1  0  0  0  0  0  0  0  0  0
   -0.8638  -54.8001    6.8994 O   0  0  0  0  0  0  0  0  0  0  0  0
    3.6070  -47.8364   10.1424 C   0  0  0  0  0  0  0  0  0  0  0  0
    4.8118  -47.6370    9.3011 N   0  0  0  0  0  0  0  0  0  0  0  0
    3.6969  -45.4573   13.6248 C   0  0  0  0  0  0  0  0  0  0  0  0
    3.0052  -44.7093   14.6720 O   0  0  0  0  0  0  0  0  0  0  0  0
  1  2  1  1  0  0  0
  1  8  1  0  0  0  0
  1 36  1  0  0  0  0
  3  4  1  1  0  0  0
  3 10  1  0  0  0  0
  3 47  1  0  0  0  0
  5 11  1  0  0  0  0
  5 30  1  0  0  0  0
  5 38  1  6  0  0  0
  6 21  1  1  0  0  0
  6 42  1  0  0  0  0
  7 15  1  0  0  0  0
  7 44  1  0  0  0  0
  7 32  1  6  0  0  0
  8  9  1  6  0  0  0
  8 17  1  0  0  0  0
 11 12  1  1  0  0  0
 11 20  1  0  0  0  0
 13  6  1  0  0  0  0
 13 14  1  1  0  0  0
 15 16  1  1  0  0  0
 15 24  1  0  0  0  0
 17 26  1  0  0  0  0
 18 10  1  0  0  0  0
 18 19  1  6  0  0  0
 20 21  1  1  0  0  0
 20 29  1  0  0  0  0
 22 13  1  0  0  0  0
 22 23  1  6  0  0  0
 24 25  1  6  0  0  0
 24 33  1  0  0  0  0
 26 27  1  1  0  0  0
 26 35  1  0  0  0  0
 28  2  1  6  0  0  0
 28 18  1  0  0  0  0
 29 30  1  0  0  0  0
 29 39  1  1  0  0  0
 31 22  1  0  0  0  0
 31 32  1  1  0  0  0
 31 41  1  0  0  0  0
 33 34  1  1  0  0  0
 33 43  1  0  0  0  0
 35 36  1  0  0  0  0
 35 45  1  1  0  0  0
 37 28  1  0  0  0  0
 37 38  1  1  0  0  0
 39 40  1  0  0  0  0
 41 42  1  0  0  0  0
 41 49  1  1  0  0  0
 43 44  1  0  0  0  0
 43 51  1  6  0  0  0
 45 46  1  0  0  0  0
 47 37  1  0  0  0  0
 47 48  1  1  0  0  0
 49 50  1  0  0  0  0
 51 52  1  0  0  0  0
M  END
>  <CHROM.1>
-167.56780080,167.14413387,-91.21344986,-166.31891516,-61.05424618,71.71112905
-173.07980255,168.50166966,-177.85538049,-98.55640866,73.35578298,-57.19918446
0.49179068,-50.66231980,8.73795617,2.48769951,0.83202361,-2.69279797

>  <Name>
2fd0_lig

>  <RI>
0

>  <Rbt.Current_Directory>
/home/itssahil/PROJECTS/Mol_Feturizer/New_Systems/rnas/2fd0

>  <Rbt.Executable>
rbdock ($Id: //depot/dev/client3/rdock/2013.1/src/exe/rbdock.cxx#4 $)

>  <Rbt.Library>
libRbt.so (2013.1, Build901 2013/11/27)

>  <Rbt.Parameter_File>
/export/apps/rDock/src/rDock_2013.1_src/data/scripts/dock_solv.prm

>  <Rbt.Receptor>
prm/pocket_docking_5.prm

>  <SCORE>
-9.22824

>  <SCORE.INTER>
-8.2879

>  <SCORE.INTER.CONST>
1

>  <SCORE.INTER.POLAR>
-1.86251

>  <SCORE.INTER.ROT>
12

>  <SCORE.INTER.SOLV>
17.8334

>  <SCORE.INTER.VDW>
-16.8613

>  <SCORE.INTER.norm>
-0.159383

>  <SCORE.INTRA>
-0.940339

>  <SCORE.INTRA.DIHEDRAL>
-9.09666

>  <SCORE.INTRA.DIHEDRAL.0>
23.9727

>  <SCORE.INTRA.POLAR>
0

>  <SCORE.INTRA.POLAR.0>
0

>  <SCORE.INTRA.REPUL>
0

>  <SCORE.INTRA.REPUL.0>
0

>  <SCORE.INTRA.SOLV>
-0.128526

>  <SCORE.INTRA.SOLV.lig_0>
-115.028

>  <SCORE.INTRA.VDW>
3.67226

>  <SCORE.INTRA.VDW.0>
-6.82393

>  <SCORE.INTRA.norm>
-0.0180834

>  <SCORE.RESTR>
0

>  <SCORE.RESTR.CAVITY>
0

>  <SCORE.RESTR.norm>
0

>  <SCORE.SYSTEM>
0

>  <SCORE.SYSTEM.CONST>
0

>  <SCORE.SYSTEM.DIHEDRAL>
0

>  <SCORE.SYSTEM.SOLV>
0

>  <SCORE.SYSTEM.norm>
0

>  <SCORE.heavy>
52

>  <SCORE.norm>
-0.177466

>  <RMSD>
11.821

$$$$
2fd0_lig
 OpenBabel11021811433D
libRbt.so/2013.1/901 2013/11/27
 52 56  0  0  0  0  0  0  0  0999 V2000
    1.7002  -54.4337    5.5455 C   0  0  2  0  0  0  0  0  0  0  0  0
    1.1991  -55.3316    6.5453 O   0  0  0  0  0  0  0  0  0  0  0  0
    2.4033  -57.6459   10.0219 C   0  0  2  0  0  0  0  0  0  0  0  0
    3.2158  -58.4369   10.9606 N   0  0  0  0  0  0  0  0  0  0  0  0
    3.3253  -53.2887    9.6375 C   0  0  1  0  0  0  0  0  0  0  0  0
    4.4056  -49.3626   11.5331 C   0  0  1  0  0  0  0  0  0  0  0  0
    6.2753  -44.6483   10.7096 C   0  0  1  0  0  0  0  0  0  0  0  0
    0.4805  -53.7109    4.8662 C   0  0  2  0  0  0  0  0  0  0  0  0
   -0.3445  -53.0087    5.8393 N   0  0  0  0  0  0  0  0  0  0  0  0
    2.3579  -58.3548    8.5978 C   0  0  0  0  0  0  0  0  0  0  0  0
    3.8127  -52.0022    8.9964 C   0  0  2  0  0  0  0  0  0  0  0  0
    5.2172  -52.0707    8.6210 O   0  0  0  0  0  0  0  0  0  0  0  0
    4.0404  -48.1118   10.6049 C   0  0  2  0  0  0  0  0  0  0  0  0
    5.0587  -47.9429    9.5326 N   0  0  0  0  0  0  0  0  0  0  0  0
    7.2236  -44.1169   11.8079 C   0  0  1  0  0  0  0  0  0  0  0  0
    8.5265  -44.7294   11.6435 O   0  0  0  0  0  0  0  0  0  0  0  0
   -0.3687  -54.7384    4.0298 C   0  0  0  0  0  0  0  0  0  0  0  0
    1.4637  -57.4975    7.5806 C   0  0  2  0  0  0  0  0  0  0  0  0
    1.4075  -58.1303    6.2546 N   0  0  0  0  0  0  0  0  0  0  0  0
    3.4482  -50.9487   10.0288 C   0  0  2  0  0  0  0  0  0  0  0  0
    4.5853  -50.4612   10.6878 O   0  0  0  0  0  0  0  0  0  0  0  0
    3.8331  -46.8363   11.5750 C   0  0  1  0  0  0  0  0  0  0  0  0
    2.8130  -47.1690   12.5340 O   0  0  0  0  0  0  0  0  0  0  0  0
    7.4216  -42.5796   11.8995 C   0  0  1  0  0  0  0  0  0  0  0  0
    8.5725  -42.2354   11.1178 O   0  0  0  0  0  0  0  0  0  0  0  0
    0.5763  -55.4448    3.0038 C   0  0  2  0  0  0  0  0  0  0  0  0
   -0.1598  -56.3723    2.2124 O   0  0  0  0  0  0  0  0  0  0  0  0
    2.0557  -56.0651    7.4647 C   0  0  2  0  0  0  0  0  0  0  0  0
    2.5908  -51.6125   11.1326 C   0  0  2  0  0  0  0  0  0  0  0  0
    2.3609  -52.9109   10.6044 O   0  0  0  0  0  0  0  0  0  0  0  0
    5.1685  -46.5009   12.4227 C   0  0  2  0  0  0  0  0  0  0  0  0
    6.1514  -46.1588   11.4274 O   0  0  0  0  0  0  0  0  0  0  0  0
    6.2284  -41.7116   11.4374 C   0  0  2  0  0  0  0  0  0  0  0  0
    6.1379  -40.6306   12.3911 O   0  0  0  0  0  0  0  0  0  0  0  0
    1.7107  -56.1844    3.7692 C   0  0  2  0  0  0  0  0  0  0  0  0
    2.4593  -55.1854    4.5636 O   0  0  0  0  0  0  0  0  0  0  0  0
    2.1749  -55.3478    8.8439 C   0  0  2  0  0  0  0  0  0  0  0  0
    2.7758  -54.0514    8.6102 O   0  0  0  0  0  0  0  0  0  0  0  0
    1.2401  -50.9527   11.3870 C   0  0  0  0  0  0  0  0  0  0  0  0
    0.5467  -50.9154   10.1304 O   0  0  0  0  0  0  0  0  0  0  0  0
    5.5772  -47.8076   13.0761 C   0  0  1  0  0  0  0  0  0  0  0  0
    5.6487  -49.0781   12.3959 O   0  0  0  0  0  0  0  0  0  0  0  0
    4.9528  -42.5434   11.3346 C   0  0  2  0  0  0  0  0  0  0  0  0
    5.0829  -43.7643   10.5549 O   0  0  0  0  0  0  0  0  0  0  0  0
    2.6729  -56.8534    2.8398 C   0  0  0  0  0  0  0  0  0  0  0  0
    3.1325  -55.8939    1.9267 O   0  0  0  0  0  0  0  0  0  0  0  0
    3.0432  -56.2124    9.8294 C   0  0  1  0  0  0  0  0  0  0  0  0
    3.0900  -55.5319   11.1310 O   0  0  0  0  0  0  0  0  0  0  0  0
    6.8979  -47.6927   13.9169 C   0  0  0  0  0  0  0  0  0  0  0  0
    7.9981  -46.9991   13.2044 N   0  0  0  0  0  0  0  0  0  0  0  0
    3.6248  -41.9355   10.8889 C   0  0  0  0  0  0  0  0  0  0  0  0
    3.3331  -40.7300   11.6609 O   0  0  0  0  0  0  0  0  0  0  0  0
  1  2  1  1  0  0  0
  1  8  1  0  0  0  0
  1 36  1  0  0  0  0
  3  4  1  1  0  0  0
  3 10  1  0  0  0  0
  3 47  1  0  0  0  0
  5 11  1  0  0  0  0
  5 30  1  0  0  0  0
  5 38  1  6  0  0  0
  6 21  1  6  0  0  0
  6 42  1  0  0  0  0
  7 15  1  0  0  0  0
  7 44  1  0  0  0  0
  7 32  1  1  0  0  0
  8  9  1  1  0  0  0
  8 17  1  0  0  0  0
 11 12  1  1  0  0  0
 11 20  1  0  0  0  0
 13  6  1  0  0  0  0
 13 14  1  6  0  0  0
 15 16  1  6  0  0  0
 15 24  1  0  0  0  0
 17 26  1  0  0  0  0
 18 10  1  0  0  0  0
 18 19  1  6  0  0  0
 20 21  1  1  0  0  0
 20 29  1  0  0  0  0
 22 13  1  0  0  0  0
 22 23  1  1  0  0  0
 24 25  1  6  0  0  0
 24 33  1  0  0  0  0
 26 27  1  1  0  0  0
 26 35  1  0  0  0  0
 28  2  1  6  0  0  0
 28 18  1  0  0  0  0
 29 30  1  0  0  0  0
 29 39  1  6  0  0  0
 31 22  1  0  0  0  0
 31 32  1  6  0  0  0
 31 41  1  0  0  0  0
 33 34  1  1  0  0  0
 33 43  1  0  0  0  0
 35 36  1  0  0  0  0
 35 45  1  6  0  0  0
 37 28  1  0  0  0  0
 37 38  1  6  0  0  0
 39 40  1  0  0  0  0
 41 42  1  0  0  0  0
 41 49  1  6  0  0  0
 43 44  1  0  0  0  0
 43 51  1  6  0  0  0
 45 46  1  0  0  0  0
 47 37  1  0  0  0  0
 47 48  1  1  0  0  0
 49 50  1  0  0  0  0
 51 52  1  0  0  0  0
M  END
>  <CHROM.1>
-173.53610347,-178.60424886,-68.02363826,88.67456148,171.69889422,-139.03237892
55.35038035,81.60892665,53.58242699,-163.82880198,-47.56291965,-50.79780895
3.65305717,-50.58357730,9.29417340,2.52306015,1.18964085,2.66724648

>  <Name>
2fd0_lig

>  <RI>
0

>  <Rbt.Current_Directory>
/home/itssahil/PROJECTS/Mol_Feturizer/New_Systems/rnas/2fd0

>  <Rbt.Executable>
rbdock ($Id: //depot/dev/client3/rdock/2013.1/src/exe/rbdock.cxx#4 $)

>  <Rbt.Library>
libRbt.so (2013.1, Build901 2013/11/27)

>  <Rbt.Parameter_File>
/export/apps/rDock/src/rDock_2013.1_src/data/scripts/dock_solv.prm

>  <Rbt.Receptor>
prm/pocket_docking_8.prm

>  <SCORE>
-21.2955

>  <SCORE.INTER>
-19.9293

>  <SCORE.INTER.CONST>
1

>  <SCORE.INTER.POLAR>
-2.79334

>  <SCORE.INTER.ROT>
12

>  <SCORE.INTER.SOLV>
24.7393

>  <SCORE.INTER.VDW>
-23.8215

>  <SCORE.INTER.norm>
-0.383256

>  <SCORE.INTRA>
-1.36615

>  <SCORE.INTRA.DIHEDRAL>
-8.58562

>  <SCORE.INTRA.DIHEDRAL.0>
23.9727

>  <SCORE.INTRA.POLAR>
0

>  <SCORE.INTRA.POLAR.0>
0

>  <SCORE.INTRA.REPUL>
0

>  <SCORE.INTRA.REPUL.0>
0

>  <SCORE.INTRA.SOLV>
1.79859

>  <SCORE.INTRA.SOLV.lig_0>
-115.028

>  <SCORE.INTRA.VDW>
2.02736

>  <SCORE.INTRA.VDW.0>
-6.82393

>  <SCORE.INTRA.norm>
-0.0262722

>  <SCORE.RESTR>
0

>  <SCORE.RESTR.CAVITY>
0

>  <SCORE.RESTR.norm>
0

>  <SCORE.SYSTEM>
0

>  <SCORE.SYSTEM.CONST>
0

>  <SCORE.SYSTEM.DIHEDRAL>
0

>  <SCORE.SYSTEM.SOLV>
0

>  <SCORE.SYSTEM.norm>
0

>  <SCORE.heavy>
52

>  <SCORE.norm>
-0.409529

>  <RMSD>
11.830

$$$$
2fd0_lig
 OpenBabel11021811433D
libRbt.so/2013.1/901 2013/11/27
 52 56  0  0  0  0  0  0  0  0999 V2000
    0.5051  -49.8026    7.8582 C   0  0  2  0  0  0  0  0  0  0  0  0
   -0.3460  -50.1963    6.7729 O   0  0  0  0  0  0  0  0  0  0  0  0
   -3.7125  -48.2330    4.8483 C   0  0  2  0  0  0  0  0  0  0  0  0
   -5.0691  -47.7274    4.5819 N   0  0  0  0  0  0  0  0  0  0  0  0
   -0.3145  -46.5131    7.7817 C   0  0  1  0  0  0  0  0  0  0  0  0
    2.0258  -44.3093   10.8228 C   0  0  1  0  0  0  0  0  0  0  0  0
    6.1624  -41.8885   12.2328 C   0  0  1  0  0  0  0  0  0  0  0  0
    1.8445  -50.6204    7.7652 C   0  0  2  0  0  0  0  0  0  0  0  0
    2.5065  -50.4331    6.4817 N   0  0  0  0  0  0  0  0  0  0  0  0
   -3.7381  -49.8141    5.0287 C   0  0  0  0  0  0  0  0  0  0  0  0
    0.0366  -46.3270    9.2465 C   0  0  2  0  0  0  0  0  0  0  0  0
   -0.8256  -45.3542    9.9011 O   0  0  0  0  0  0  0  0  0  0  0  0
    2.6332  -42.8293   10.8262 C   0  0  2  0  0  0  0  0  0  0  0  0
    3.7743  -42.7314    9.8756 N   0  0  0  0  0  0  0  0  0  0  0  0
    7.1815  -42.4624   11.2228 C   0  0  1  0  0  0  0  0  0  0  0  0
    6.5691  -42.5114    9.9104 O   0  0  0  0  0  0  0  0  0  0  0  0
    1.5775  -52.1438    8.0555 C   0  0  0  0  0  0  0  0  0  0  0  0
   -2.2584  -50.3637    5.3075 C   0  0  2  0  0  0  0  0  0  0  0  0
   -2.2546  -51.8237    5.4809 N   0  0  0  0  0  0  0  0  0  0  0  0
    1.5160  -45.9835    9.2004 C   0  0  2  0  0  0  0  0  0  0  0  0
    1.7379  -44.6309    9.4933 O   0  0  0  0  0  0  0  0  0  0  0  0
    2.9709  -42.4507   12.3603 C   0  0  1  0  0  0  0  0  0  0  0  0
    1.7613  -42.5869   13.1279 O   0  0  0  0  0  0  0  0  0  0  0  0
    8.5461  -41.7334   11.0912 C   0  0  1  0  0  0  0  0  0  0  0  0
    8.4363  -40.7797   10.0269 O   0  0  0  0  0  0  0  0  0  0  0  0
    0.8766  -52.2687    9.4476 C   0  0  2  0  0  0  0  0  0  0  0  0
    0.6334  -53.6374    9.7567 O   0  0  0  0  0  0  0  0  0  0  0  0
   -1.6896  -49.6729    6.5784 C   0  0  2  0  0  0  0  0  0  0  0  0
    2.0242  -46.1754    7.7515 C   0  0  2  0  0  0  0  0  0  0  0  0
    0.9059  -46.7713    7.1097 O   0  0  0  0  0  0  0  0  0  0  0  0
    4.0444  -43.4704   13.0101 C   0  0  2  0  0  0  0  0  0  0  0  0
    5.2374  -43.2874   12.2245 O   0  0  0  0  0  0  0  0  0  0  0  0
    9.0546  -41.0083   12.3586 C   0  0  2  0  0  0  0  0  0  0  0  0
   10.4726  -41.2764   12.4209 O   0  0  0  0  0  0  0  0  0  0  0  0
   -0.4664  -51.4842    9.4230 C   0  0  2  0  0  0  0  0  0  0  0  0
   -0.1683  -50.0678    9.1157 O   0  0  0  0  0  0  0  0  0  0  0  0
   -1.6967  -48.1173    6.4744 C   0  0  2  0  0  0  0  0  0  0  0  0
   -1.1898  -47.5947    7.7258 O   0  0  0  0  0  0  0  0  0  0  0  0
    3.2174  -47.1127    7.6033 C   0  0  0  0  0  0  0  0  0  0  0  0
    4.3028  -46.5322    8.3423 O   0  0  0  0  0  0  0  0  0  0  0  0
    3.5000  -44.8613   12.7448 C   0  0  1  0  0  0  0  0  0  0  0  0
    2.9937  -45.3154   11.4722 O   0  0  0  0  0  0  0  0  0  0  0  0
    8.2912  -41.4692   13.5973 C   0  0  2  0  0  0  0  0  0  0  0  0
    6.8429  -41.4175   13.4746 O   0  0  0  0  0  0  0  0  0  0  0  0
   -1.1714  -51.5346   10.7411 C   0  0  0  0  0  0  0  0  0  0  0  0
   -2.3395  -50.7660   10.6381 O   0  0  0  0  0  0  0  0  0  0  0  0
   -3.1541  -47.6016    6.1865 C   0  0  1  0  0  0  0  0  0  0  0  0
   -3.1129  -46.1397    6.0436 O   0  0  0  0  0  0  0  0  0  0  0  0
    4.4399  -46.0043   13.2687 C   0  0  0  0  0  0  0  0  0  0  0  0
    4.4219  -46.1599   14.7434 N   0  0  0  0  0  0  0  0  0  0  0  0
    8.5856  -40.9045   14.9853 C   0  0  0  0  0  0  0  0  0  0  0  0
    7.7637  -41.5735   15.9910 O   0  0  0  0  0  0  0  0  0  0  0  0
  1  2  1  6  0  0  0
  1  8  1  0  0  0  0
  1 36  1  0  0  0  0
  3  4  1  1  0  0  0
  3 10  1  0  0  0  0
  3 47  1  0  0  0  0
  5 11  1  0  0  0  0
  5 30  1  0  0  0  0
  5 38  1  1  0  0  0
  6 21  1  6  0  0  0
  6 42  1  0  0  0  0
  7 15  1  0  0  0  0
  7 44  1  0  0  0  0
  7 32  1  1  0  0  0
  8  9  1  6  0  0  0
  8 17  1  0  0  0  0
 11 12  1  6  0  0  0
 11 20  1  0  0  0  0
 13  6  1  0  0  0  0
 13 14  1  6  0  0  0
 15 16  1  6  0  0  0
 15 24  1  0  0  0  0
 17 26  1  0  0  0  0
 18 10  1  0  0  0  0
 18 19  1  1  0  0  0
 20 21  1  6  0  0  0
 20 29  1  0  0  0  0
 22 13  1  0  0  0  0
 22 23  1  1  0  0  0
 24 25  1  6  0  0  0
 24 33  1  0  0  0  0
 26 27  1  6  0  0  0
 26 35  1  0  0  0  0
 28  2  1  6  0  0  0
 28 18  1  0  0  0  0
 29 30  1  0  0  0  0
 29 39  1  1  0  0  0
 31 22  1  0  0  0  0
 31 32  1  6  0  0  0
 31 41  1  0  0  0  0
 33 34  1  1  0  0  0
 33 43  1  0  0  0  0
 35 36  1  0  0  0  0
 35 45  1  1  0  0  0
 37 28  1  0  0  0  0
 37 38  1  1  0  0  0
 39 40  1  0  0  0  0
 41 42  1  0  0  0  0
 41 49  1  6  0  0  0
 43 44  1  0  0  0  0
 43 51  1  1  0  0  0
 45 46  1  0  0  0  0
 47 37  1  0  0  0  0
 47 48  1  6  0  0  0
 49 50  1  0  0  0  0
 51 52  1  0  0  0  0
M  END
>  <CHROM.1>
177.72658648,-176.91775086,164.31972794,179.45230984,93.99133016,-179.53120906
-61.87015491,68.16084707,177.93150075,139.04017539,74.04482426,-176.84164216
2.22091911,-46.25116674,9.69537482,-2.62777258,-0.70300109,-0.22696584

>  <Name>
2fd0_lig

>  <RI>
0

>  <Rbt.Current_Directory>
/home/itssahil/PROJECTS/Mol_Feturizer/New_Systems/rnas/2fd0

>  <Rbt.Executable>
rbdock ($Id: //depot/dev/client3/rdock/2013.1/src/exe/rbdock.cxx#4 $)

>  <Rbt.Library>
libRbt.so (2013.1, Build901 2013/11/27)

>  <Rbt.Parameter_File>
/export/apps/rDock/src/rDock_2013.1_src/data/scripts/dock_solv.prm

>  <Rbt.Receptor>
prm/pocket_docking_6.prm

>  <SCORE>
-18.1233

>  <SCORE.INTER>
-11.3149

>  <SCORE.INTER.CONST>
1

>  <SCORE.INTER.POLAR>
-2.03306

>  <SCORE.INTER.ROT>
12

>  <SCORE.INTER.SOLV>
12.0332

>  <SCORE.INTER.VDW>
-16.3775

>  <SCORE.INTER.norm>
-0.217594

>  <SCORE.INTRA>
-6.80842

>  <SCORE.INTRA.DIHEDRAL>
-10.3908

>  <SCORE.INTRA.DIHEDRAL.0>
23.9727

>  <SCORE.INTRA.POLAR>
0

>  <SCORE.INTRA.POLAR.0>
0

>  <SCORE.INTRA.REPUL>
0

>  <SCORE.INTRA.REPUL.0>
0

>  <SCORE.INTRA.SOLV>
-2.77966

>  <SCORE.INTRA.SOLV.lig_0>
-115.028

>  <SCORE.INTRA.VDW>
-0.223168

>  <SCORE.INTRA.VDW.0>
-6.82393

>  <SCORE.INTRA.norm>
-0.130931

>  <SCORE.RESTR>
0

>  <SCORE.RESTR.CAVITY>
0

>  <SCORE.RESTR.norm>
0

>  <SCORE.SYSTEM>
0

>  <SCORE.SYSTEM.CONST>
0

>  <SCORE.SYSTEM.DIHEDRAL>
0

>  <SCORE.SYSTEM.SOLV>
0

>  <SCORE.SYSTEM.norm>
0

>  <SCORE.heavy>
52

>  <SCORE.norm>
-0.348525

>  <RMSD>
11.880

$$$$
2fd0_lig
 OpenBabel11021811433D
libRbt.so/2013.1/901 2013/11/27
 52 56  0  0  0  0  0  0  0  0999 V2000
   -3.0810  -52.0571    6.3151 C   0  0  2  0  0  0  0  0  0  0  0  0
   -1.6798  -51.9678    6.6075 O   0  0  0  0  0  0  0  0  0  0  0  0
   -0.8703  -55.7134    8.6588 C   0  0  2  0  0  0  0  0  0  0  0  0
   -0.1612  -56.8041    9.3477 N   0  0  0  0  0  0  0  0  0  0  0  0
   -0.1228  -51.5693   10.0489 C   0  0  1  0  0  0  0  0  0  0  0  0
    2.4430  -48.7232   12.4009 C   0  0  1  0  0  0  0  0  0  0  0  0
    4.5851  -44.0698   12.7811 C   0  0  1  0  0  0  0  0  0  0  0  0
   -3.4721  -50.8616    5.3720 C   0  0  2  0  0  0  0  0  0  0  0  0
   -2.6785  -50.8518    4.1510 N   0  0  0  0  0  0  0  0  0  0  0  0
   -0.2385  -55.4670    7.2189 C   0  0  0  0  0  0  0  0  0  0  0  0
   -0.1319  -50.0520   10.0879 C   0  0  2  0  0  0  0  0  0  0  0  0
    0.5044  -49.4665    8.9172 O   0  0  0  0  0  0  0  0  0  0  0  0
    1.9328  -47.2185   12.5883 C   0  0  2  0  0  0  0  0  0  0  0  0
    2.1351  -46.4392   11.3365 N   0  0  0  0  0  0  0  0  0  0  0  0
    5.4875  -43.9230   11.5354 C   0  0  1  0  0  0  0  0  0  0  0  0
    4.7014  -44.1932   10.3484 O   0  0  0  0  0  0  0  0  0  0  0  0
   -3.3547  -49.4947    6.1429 C   0  0  0  0  0  0  0  0  0  0  0  0
   -1.0192  -54.2866    6.4663 C   0  0  2  0  0  0  0  0  0  0  0  0
   -0.4527  -54.0366    5.1327 N   0  0  0  0  0  0  0  0  0  0  0  0
    0.5181  -49.7426   11.4259 C   0  0  2  0  0  0  0  0  0  0  0  0
    1.8125  -49.2305   11.2612 O   0  0  0  0  0  0  0  0  0  0  0  0
    2.6593  -46.6238   13.9034 C   0  0  1  0  0  0  0  0  0  0  0  0
    2.3483  -47.4878   15.0115 O   0  0  0  0  0  0  0  0  0  0  0  0
    6.2136  -42.5654   11.3341 C   0  0  1  0  0  0  0  0  0  0  0  0
    5.3884  -41.7429   10.4994 O   0  0  0  0  0  0  0  0  0  0  0  0
   -4.2360  -49.5743    7.4320 C   0  0  2  0  0  0  0  0  0  0  0  0
   -4.1713  -48.3464    8.1506 O   0  0  0  0  0  0  0  0  0  0  0  0
   -0.9452  -52.9959    7.3291 C   0  0  2  0  0  0  0  0  0  0  0  0
    0.6998  -51.0663   12.2064 C   0  0  2  0  0  0  0  0  0  0  0  0
    0.0063  -52.0011   11.3923 O   0  0  0  0  0  0  0  0  0  0  0  0
    4.2694  -46.6276   13.7558 C   0  0  2  0  0  0  0  0  0  0  0  0
    4.5328  -45.7411   12.6520 O   0  0  0  0  0  0  0  0  0  0  0  0
    6.5578  -41.7810   12.6213 C   0  0  2  0  0  0  0  0  0  0  0  0
    7.8827  -41.2454   12.4112 O   0  0  0  0  0  0  0  0  0  0  0  0
   -3.7348  -50.7412    8.3303 C   0  0  2  0  0  0  0  0  0  0  0  0
   -3.8339  -51.9970    7.5540 O   0  0  0  0  0  0  0  0  0  0  0  0
   -1.5004  -53.2012    8.7715 C   0  0  2  0  0  0  0  0  0  0  0  0
   -1.3366  -51.9513    9.4834 O   0  0  0  0  0  0  0  0  0  0  0  0
    0.0768  -51.0876   13.5977 C   0  0  0  0  0  0  0  0  0  0  0  0
    0.6314  -49.9804   14.3241 O   0  0  0  0  0  0  0  0  0  0  0  0
    4.6388  -48.0391   13.3404 C   0  0  1  0  0  0  0  0  0  0  0  0
    3.9779  -48.7874   12.2985 O   0  0  0  0  0  0  0  0  0  0  0  0
    6.4490  -42.6750   13.8536 C   0  0  2  0  0  0  0  0  0  0  0  0
    5.1955  -43.4036   13.9688 O   0  0  0  0  0  0  0  0  0  0  0  0
   -4.5618  -50.8939    9.5672 C   0  0  0  0  0  0  0  0  0  0  0  0
   -5.8795  -51.1708    9.1766 O   0  0  0  0  0  0  0  0  0  0  0  0
   -0.7308  -54.3722    9.4851 C   0  0  1  0  0  0  0  0  0  0  0  0
   -1.3145  -54.5705   10.8190 O   0  0  0  0  0  0  0  0  0  0  0  0
    6.1782  -48.2309   13.1002 C   0  0  0  0  0  0  0  0  0  0  0  0
    7.0047  -47.9720   14.3041 N   0  0  0  0  0  0  0  0  0  0  0  0
    6.7258  -42.1498   15.2606 C   0  0  0  0  0  0  0  0  0  0  0  0
    8.1513  -41.8790   15.4307 O   0  0  0  0  0  0  0  0  0  0  0  0
  1  2  1  1  0  0  0
  1  8  1  0  0  0  0
  1 36  1  0  0  0  0
  3  4  1  1  0  0  0
  3 10  1  0  0  0  0
  3 47  1  0  0  0  0
  5 11  1  0  0  0  0
  5 30  1  0  0  0  0
  5 38  1  1  0  0  0
  6 21  1  6  0  0  0
  6 42  1  0  0  0  0
  7 15  1  0  0  0  0
  7 44  1  0  0  0  0
  7 32  1  1  0  0  0
  8  9  1  6  0  0  0
  8 17  1  0  0  0  0
 11 12  1  6  0  0  0
 11 20  1  0  0  0  0
 13  6  1  0  0  0  0
 13 14  1  6  0  0  0
 15 16  1  6  0  0  0
 15 24  1  0  0  0  0
 17 26  1  0  0  0  0
 18 10  1  0  0  0  0
 18 19  1  6  0  0  0
 20 21  1  6  0  0  0
 20 29  1  0  0  0  0
 22 13  1  0  0  0  0
 22 23  1  1  0  0  0
 24 25  1  6  0  0  0
 24 33  1  0  0  0  0
 26 27  1  1  0  0  0
 26 35  1  0  0  0  0
 28  2  1  6  0  0  0
 28 18  1  0  0  0  0
 29 30  1  0  0  0  0
 29 39  1  1  0  0  0
 31 22  1  0  0  0  0
 31 32  1  6  0  0  0
 31 41  1  0  0  0  0
 33 34  1  6  0  0  0
 33 43  1  0  0  0  0
 35 36  1  0  0  0  0
 35 45  1  1  0  0  0
 37 28  1  0  0  0  0
 37 38  1  1  0  0  0
 39 40  1  0  0  0  0
 41 42  1  0  0  0  0
 41 49  1  6  0  0  0
 43 44  1  0  0  0  0
 43 51  1  1  0  0  0
 45 46  1  0  0  0  0
 47 37  1  0  0  0  0
 47 48  1  1  0  0  0
 49 50  1  0  0  0  0
 51 52  1  0  0  0  0
M  END
>  <CHROM.1>
-172.79454598,153.43635675,-83.42763744,155.83410021,170.87607050,62.47499239
-56.04823082,81.48015160,60.64795329,-80.57925736,61.07886979,-70.27908007
1.24954280,-48.93530907,10.59866171,2.64698627,0.78946515,2.77282805

>  <Name>
2fd0_lig

>  <RI>
0

>  <Rbt.Current_Directory>
/home/itssahil/PROJECTS/Mol_Feturizer/New_Systems/rnas/2fd0

>  <Rbt.Executable>
rbdock ($Id: //depot/dev/client3/rdock/2013.1/src/exe/rbdock.cxx#4 $)

>  <Rbt.Library>
libRbt.so (2013.1, Build901 2013/11/27)

>  <Rbt.Parameter_File>
/export/apps/rDock/src/rDock_2013.1_src/data/scripts/dock_solv.prm

>  <Rbt.Receptor>
prm/pocket_docking_5.prm

>  <SCORE>
-15.0194

>  <SCORE.INTER>
-9.8946

>  <SCORE.INTER.CONST>
1

>  <SCORE.INTER.POLAR>
-1.78582

>  <SCORE.INTER.ROT>
12

>  <SCORE.INTER.SOLV>
12.8684

>  <SCORE.INTER.VDW>
-16.5331

>  <SCORE.INTER.norm>
-0.190281

>  <SCORE.INTRA>
-5.13421

>  <SCORE.INTRA.DIHEDRAL>
-9.61925

>  <SCORE.INTRA.DIHEDRAL.0>
23.9727

>  <SCORE.INTRA.POLAR>
0

>  <SCORE.INTRA.POLAR.0>
0

>  <SCORE.INTRA.REPUL>
0

>  <SCORE.INTRA.REPUL.0>
0

>  <SCORE.INTRA.SOLV>
-2.16928

>  <SCORE.INTRA.SOLV.lig_0>
-115.028

>  <SCORE.INTRA.VDW>
0.760053

>  <SCORE.INTRA.VDW.0>
-6.82393

>  <SCORE.INTRA.norm>
-0.0987348

>  <SCORE.RESTR>
0.00940874

>  <SCORE.RESTR.CAVITY>
0.00940874

>  <SCORE.RESTR.norm>
0.000180937

>  <SCORE.SYSTEM>
0

>  <SCORE.SYSTEM.CONST>
0

>  <SCORE.SYSTEM.DIHEDRAL>
0

>  <SCORE.SYSTEM.SOLV>
0

>  <SCORE.SYSTEM.norm>
0

>  <SCORE.heavy>
52

>  <SCORE.norm>
-0.288835

>  <RMSD>
11.881

$$$$
2fd0_lig
 OpenBabel11021811433D
libRbt.so/2013.1/901 2013/11/27
 52 56  0  0  0  0  0  0  0  0999 V2000
   -1.7789  -52.6525    3.2006 C   0  0  2  0  0  0  0  0  0  0  0  0
   -2.2927  -53.4430    4.2814 O   0  0  0  0  0  0  0  0  0  0  0  0
   -6.0925  -51.5926    5.2963 C   0  0  2  0  0  0  0  0  0  0  0  0
   -7.4740  -51.4075    5.7697 N   0  0  0  0  0  0  0  0  0  0  0  0
   -1.7228  -52.1464    7.5057 C   0  0  1  0  0  0  0  0  0  0  0  0
   -0.8996  -48.5395    9.6001 C   0  0  1  0  0  0  0  0  0  0  0  0
    1.5537  -44.5109   11.9339 C   0  0  1  0  0  0  0  0  0  0  0  0
   -0.2185  -52.8357    3.1448 C   0  0  2  0  0  0  0  0  0  0  0  0
    0.1585  -54.2349    3.0000 N   0  0  0  0  0  0  0  0  0  0  0  0
   -6.0472  -52.6827    4.1375 C   0  0  0  0  0  0  0  0  0  0  0  0
   -2.2236  -50.9530    8.2985 C   0  0  2  0  0  0  0  0  0  0  0  0
   -2.3144  -49.7495    7.4852 O   0  0  0  0  0  0  0  0  0  0  0  0
    0.1788  -47.4810    9.0745 C   0  0  2  0  0  0  0  0  0  0  0  0
    1.5141  -47.7564    9.6715 N   0  0  0  0  0  0  0  0  0  0  0  0
    1.8476  -44.1797   10.4534 C   0  0  1  0  0  0  0  0  0  0  0  0
    0.6501  -43.6362    9.8446 O   0  0  0  0  0  0  0  0  0  0  0  0
    0.4546  -52.1889    4.4117 C   0  0  0  0  0  0  0  0  0  0  0  0
   -4.5437  -52.8744    3.6161 C   0  0  2  0  0  0  0  0  0  0  0  0
   -4.4736  -53.8797    2.5454 N   0  0  0  0  0  0  0  0  0  0  0  0
   -1.2593  -50.8952    9.4712 C   0  0  2  0  0  0  0  0  0  0  0  0
   -0.3763  -49.8125    9.3564 O   0  0  0  0  0  0  0  0  0  0  0  0
   -0.4181  -46.0058    9.3548 C   0  0  1  0  0  0  0  0  0  0  0  0
   -1.6957  -45.9117    8.6992 O   0  0  0  0  0  0  0  0  0  0  0  0
    3.0224  -43.2085   10.1573 C   0  0  1  0  0  0  0  0  0  0  0  0
    2.4866  -41.8822   10.0669 O   0  0  0  0  0  0  0  0  0  0  0  0
    0.0144  -50.6910    4.4977 C   0  0  2  0  0  0  0  0  0  0  0  0
    0.6187  -50.0630    5.6241 O   0  0  0  0  0  0  0  0  0  0  0  0
   -3.6414  -53.2992    4.8082 C   0  0  2  0  0  0  0  0  0  0  0  0
   -0.3636  -52.1566    9.4388 C   0  0  2  0  0  0  0  0  0  0  0  0
   -0.9576  -52.9292    8.4055 O   0  0  0  0  0  0  0  0  0  0  0  0
   -0.6900  -45.7550   10.9288 C   0  0  2  0  0  0  0  0  0  0  0  0
    0.6119  -45.8410   11.5382 O   0  0  0  0  0  0  0  0  0  0  0  0
    4.1798  -43.2089   11.1825 C   0  0  2  0  0  0  0  0  0  0  0  0
    5.3934  -43.1319   10.4031 O   0  0  0  0  0  0  0  0  0  0  0  0
   -1.5347  -50.6128    4.6150 C   0  0  2  0  0  0  0  0  0  0  0  0
   -2.1215  -51.2598    3.4206 O   0  0  0  0  0  0  0  0  0  0  0  0
   -3.6958  -52.2906    5.9959 C   0  0  2  0  0  0  0  0  0  0  0  0
   -2.8565  -52.8159    7.0522 O   0  0  0  0  0  0  0  0  0  0  0  0
   -0.3666  -52.9851   10.7187 C   0  0  0  0  0  0  0  0  0  0  0  0
   -1.7151  -53.4311   10.9280 O   0  0  0  0  0  0  0  0  0  0  0  0
   -1.5200  -46.9367   11.3939 C   0  0  1  0  0  0  0  0  0  0  0  0
   -1.2275  -48.3161   11.0877 O   0  0  0  0  0  0  0  0  0  0  0  0
    4.1113  -44.4372   12.0860 C   0  0  2  0  0  0  0  0  0  0  0  0
    2.8180  -44.6614   12.7124 O   0  0  0  0  0  0  0  0  0  0  0  0
   -2.0243  -49.2004    4.6653 C   0  0  0  0  0  0  0  0  0  0  0  0
   -3.4250  -49.2245    4.6086 O   0  0  0  0  0  0  0  0  0  0  0  0
   -5.1801  -52.1070    6.4813 C   0  0  1  0  0  0  0  0  0  0  0  0
   -5.1983  -51.1133    7.5637 O   0  0  0  0  0  0  0  0  0  0  0  0
   -1.8508  -46.8952   12.9279 C   0  0  0  0  0  0  0  0  0  0  0  0
   -0.6546  -47.0069   13.7975 N   0  0  0  0  0  0  0  0  0  0  0  0
    5.1304  -44.6819   13.1966 C   0  0  0  0  0  0  0  0  0  0  0  0
    6.4643  -44.8680   12.6305 O   0  0  0  0  0  0  0  0  0  0  0  0
  1  2  1  1  0  0  0
  1  8  1  0  0  0  0
  1 36  1  0  0  0  0
  3  4  1  1  0  0  0
  3 10  1  0  0  0  0
  3 47  1  0  0  0  0
  5 11  1  0  0  0  0
  5 30  1  0  0  0  0
  5 38  1  1  0  0  0
  6 21  1  1  0  0  0
  6 42  1  0  0  0  0
  7 15  1  0  0  0  0
  7 44  1  0  0  0  0
  7 32  1  6  0  0  0
  8  9  1  1  0  0  0
  8 17  1  0  0  0  0
 11 12  1  6  0  0  0
 11 20  1  0  0  0  0
 13  6  1  0  0  0  0
 13 14  1  1  0  0  0
 15 16  1  1  0  0  0
 15 24  1  0  0  0  0
 17 26  1  0  0  0  0
 18 10  1  0  0  0  0
 18 19  1  6  0  0  0
 20 21  1  6  0  0  0
 20 29  1  0  0  0  0
 22 13  1  0  0  0  0
 22 23  1  6  0  0  0
 24 25  1  1  0  0  0
 24 33  1  0  0  0  0
 26 27  1  1  0  0  0
 26 35  1  0  0  0  0
 28  2  1  6  0  0  0
 28 18  1  0  0  0  0
 29 30  1  0  0  0  0
 29 39  1  1  0  0  0
 31 22  1  0  0  0  0
 31 32  1  1  0  0  0
 31 41  1  0  0  0  0
 33 34  1  6  0  0  0
 33 43  1  0  0  0  0
 35 36  1  0  0  0  0
 35 45  1  6  0  0  0
 37 28  1  0  0  0  0
 37 38  1  1  0  0  0
 39 40  1  0  0  0  0
 41 42  1  0  0  0  0
 41 49  1  1  0  0  0
 43 44  1  0  0  0  0
 43 51  1  1  0  0  0
 45 46  1  0  0  0  0
 47 37  1  0  0  0  0
 47 48  1  1  0  0  0
 49 50  1  0  0  0  0
 51 52  1  0  0  0  0
M  END
>  <CHROM.1>
166.38823032,72.41951914,-166.78885392,-70.59925517,73.59516413,31.90601771
61.14775606,98.44254992,173.04761718,117.31193451,-64.60591592,-63.72769342
-0.77267264,-49.09084153,8.16728545,-2.21027385,0.58401265,1.08348172

>  <Name>
2fd0_lig

>  <RI>
0

>  <Rbt.Current_Directory>
/home/itssahil/PROJECTS/Mol_Feturizer/New_Systems/rnas/2fd0

>  <Rbt.Executable>
rbdock ($Id: //depot/dev/client3/rdock/2013.1/src/exe/rbdock.cxx#4 $)

>  <Rbt.Library>
libRbt.so (2013.1, Build901 2013/11/27)

>  <Rbt.Parameter_File>
/export/apps/rDock/src/rDock_2013.1_src/data/scripts/dock_solv.prm

>  <Rbt.Receptor>
prm/pocket_docking_6.prm

>  <SCORE>
-5.22368

>  <SCORE.INTER>
-5.40802

>  <SCORE.INTER.CONST>
1

>  <SCORE.INTER.POLAR>
-0.913715

>  <SCORE.INTER.ROT>
12

>  <SCORE.INTER.SOLV>
7.63589

>  <SCORE.INTER.VDW>
-14.7049

>  <SCORE.INTER.norm>
-0.104

>  <SCORE.INTRA>
0.184342

>  <SCORE.INTRA.DIHEDRAL>
-2.9015

>  <SCORE.INTRA.DIHEDRAL.0>
23.9727

>  <SCORE.INTRA.POLAR>
0

>  <SCORE.INTRA.POLAR.0>
0

>  <SCORE.INTRA.REPUL>
0

>  <SCORE.INTRA.REPUL.0>
0

>  <SCORE.INTRA.SOLV>
1.25386

>  <SCORE.INTRA.SOLV.lig_0>
-115.028

>  <SCORE.INTRA.VDW>
1.00816

>  <SCORE.INTRA.VDW.0>
-6.82393

>  <SCORE.INTRA.norm>
0.00354504

>  <SCORE.RESTR>
0

>  <SCORE.RESTR.CAVITY>
0

>  <SCORE.RESTR.norm>
0

>  <SCORE.SYSTEM>
0

>  <SCORE.SYSTEM.CONST>
0

>  <SCORE.SYSTEM.DIHEDRAL>
0

>  <SCORE.SYSTEM.SOLV>
0

>  <SCORE.SYSTEM.norm>
0

>  <SCORE.heavy>
52

>  <SCORE.norm>
-0.100455

>  <RMSD>
11.896

$$$$
2fd0_lig
 OpenBabel11021811433D
libRbt.so/2013.1/901 2013/11/27
 52 56  0  0  0  0  0  0  0  0999 V2000
   -4.2447  -52.0519    3.2467 C   0  0  2  0  0  0  0  0  0  0  0  0
   -4.9400  -51.1240    4.0908 O   0  0  0  0  0  0  0  0  0  0  0  0
   -2.8520  -47.3638    3.4632 C   0  0  2  0  0  0  0  0  0  0  0  0
   -2.5585  -45.9228    3.3978 N   0  0  0  0  0  0  0  0  0  0  0  0
   -3.0114  -49.5861    7.4645 C   0  0  1  0  0  0  0  0  0  0  0  0
   -1.9767  -50.4590   11.7942 C   0  0  1  0  0  0  0  0  0  0  0  0
    1.8415  -48.7768   14.8608 C   0  0  1  0  0  0  0  0  0  0  0  0
   -4.7417  -53.5046    3.5849 C   0  0  2  0  0  0  0  0  0  0  0  0
   -6.1843  -53.6334    3.4336 N   0  0  0  0  0  0  0  0  0  0  0  0
   -4.1082  -47.7135    2.5507 C   0  0  0  0  0  0  0  0  0  0  0  0
   -3.8675  -49.7206    8.7105 C   0  0  2  0  0  0  0  0  0  0  0  0
   -4.3003  -48.4295    9.2242 O   0  0  0  0  0  0  0  0  0  0  0  0
   -2.3794  -49.6111   13.0897 C   0  0  2  0  0  0  0  0  0  0  0  0
   -1.9328  -48.1983   12.9481 N   0  0  0  0  0  0  0  0  0  0  0  0
    1.5617  -47.2648   14.7078 C   0  0  1  0  0  0  0  0  0  0  0  0
    0.6763  -46.8385   15.7728 O   0  0  0  0  0  0  0  0  0  0  0  0
   -4.2775  -53.9197    5.0301 C   0  0  0  0  0  0  0  0  0  0  0  0
   -4.4190  -49.2847    2.6149 C   0  0  2  0  0  0  0  0  0  0  0  0
   -5.5786  -49.6343    1.7812 N   0  0  0  0  0  0  0  0  0  0  0  0
   -2.9923  -50.5483    9.6365 C   0  0  2  0  0  0  0  0  0  0  0  0
   -2.4762  -49.7726   10.6838 O   0  0  0  0  0  0  0  0  0  0  0  0
   -1.8032  -50.3973   14.3784 C   0  0  1  0  0  0  0  0  0  0  0  0
   -2.3434  -51.7311   14.3628 O   0  0  0  0  0  0  0  0  0  0  0  0
    2.7855  -46.3094   14.6868 C   0  0  1  0  0  0  0  0  0  0  0  0
    3.0150  -45.8564   16.0270 O   0  0  0  0  0  0  0  0  0  0  0  0
   -2.7239  -53.7661    5.1161 C   0  0  2  0  0  0  0  0  0  0  0  0
   -2.2606  -54.1506    6.4067 O   0  0  0  0  0  0  0  0  0  0  0  0
   -4.6800  -49.6924    4.0918 C   0  0  2  0  0  0  0  0  0  0  0  0
   -1.7563  -51.0372    8.8442 C   0  0  2  0  0  0  0  0  0  0  0  0
   -2.0654  -50.6399    7.5160 O   0  0  0  0  0  0  0  0  0  0  0  0
   -0.1949  -50.5524   14.3199 C   0  0  2  0  0  0  0  0  0  0  0  0
    0.2997  -49.2004   14.3550 O   0  0  0  0  0  0  0  0  0  0  0  0
    4.1006  -46.9014   14.1294 C   0  0  2  0  0  0  0  0  0  0  0  0
    4.6875  -45.8587   13.3202 O   0  0  0  0  0  0  0  0  0  0  0  0
   -2.3336  -52.2874    4.8317 C   0  0  2  0  0  0  0  0  0  0  0  0
   -2.8173  -51.9341    3.4787 O   0  0  0  0  0  0  0  0  0  0  0  0
   -3.4995  -49.3179    5.0391 C   0  0  2  0  0  0  0  0  0  0  0  0
   -3.8788  -49.7047    6.3817 O   0  0  0  0  0  0  0  0  0  0  0  0
   -1.5368  -52.5459    8.8543 C   0  0  0  0  0  0  0  0  0  0  0  0
   -1.3301  -52.9319   10.2216 O   0  0  0  0  0  0  0  0  0  0  0  0
    0.1099  -51.1430   12.9562 C   0  0  1  0  0  0  0  0  0  0  0  0
   -0.4541  -50.6733   11.7139 O   0  0  0  0  0  0  0  0  0  0  0  0
    3.8380  -48.1946   13.3624 C   0  0  2  0  0  0  0  0  0  0  0  0
    3.0497  -49.1813   14.0839 O   0  0  0  0  0  0  0  0  0  0  0  0
   -0.8526  -52.0805    4.8637 C   0  0  0  0  0  0  0  0  0  0  0  0
   -0.6027  -50.7094    4.7107 O   0  0  0  0  0  0  0  0  0  0  0  0
   -3.2028  -47.7763    4.9492 C   0  0  1  0  0  0  0  0  0  0  0  0
   -2.0542  -47.4703    5.8133 O   0  0  0  0  0  0  0  0  0  0  0  0
    1.6461  -51.3278   12.6909 C   0  0  0  0  0  0  0  0  0  0  0  0
    1.9587  -51.8278   11.3302 N   0  0  0  0  0  0  0  0  0  0  0  0
    4.9664  -48.9942   12.7151 C   0  0  0  0  0  0  0  0  0  0  0  0
    5.6857  -49.7673   13.7248 O   0  0  0  0  0  0  0  0  0  0  0  0
  1  2  1  1  0  0  0
  1  8  1  0  0  0  0
  1 36  1  0  0  0  0
  3  4  1  1  0  0  0
  3 10  1  0  0  0  0
  3 47  1  0  0  0  0
  5 11  1  0  0  0  0
  5 30  1  0  0  0  0
  5 38  1  6  0  0  0
  6 21  1  6  0  0  0
  6 42  1  0  0  0  0
  7 15  1  0  0  0  0
  7 44  1  0  0  0  0
  7 32  1  6  0  0  0
  8  9  1  1  0  0  0
  8 17  1  0  0  0  0
 11 12  1  1  0  0  0
 11 20  1  0  0  0  0
 13  6  1  0  0  0  0
 13 14  1  6  0  0  0
 15 16  1  1  0  0  0
 15 24  1  0  0  0  0
 17 26  1  0  0  0  0
 18 10  1  0  0  0  0
 18 19  1  6  0  0  0
 20 21  1  1  0  0  0
 20 29  1  0  0  0  0
 22 13  1  0  0  0  0
 22 23  1  6  0  0  0
 24 25  1  1  0  0  0
 24 33  1  0  0  0  0
 26 27  1  1  0  0  0
 26 35  1  0  0  0  0
 28  2  1  6  0  0  0
 28 18  1  0  0  0  0
 29 30  1  0  0  0  0
 29 39  1  6  0  0  0
 31 22  1  0  0  0  0
 31 32  1  6  0  0  0
 31 41  1  0  0  0  0
 33 34  1  6  0  0  0
 33 43  1  0  0  0  0
 35 36  1  0  0  0  0
 35 45  1  6  0  0  0
 37 28  1  0  0  0  0
 37 38  1  1  0  0  0
 39 40  1  0  0  0  0
 41 42  1  0  0  0  0
 41 49  1  6  0  0  0
 43 44  1  0  0  0  0
 43 51  1  1  0  0  0
 45 46  1  0  0  0  0
 47 37  1  0  0  0  0
 47 48  1  1  0  0  0
 49 50  1  0  0  0  0
 51 52  1  0  0  0  0
M  END
>  <CHROM.1>
176.95069394,164.93337285,-142.13443832,-176.34112883,162.62381458,38.12233761
-61.58294752,157.14778865,-175.10800370,175.85957920,-176.51793701,77.81071141
-1.24968923,-49.94466002,9.11291648,2.68718905,-0.98113727,-0.75540516

>  <Name>
2fd0_lig

>  <RI>
0

>  <Rbt.Current_Directory>
/home/itssahil/PROJECTS/Mol_Feturizer/New_Systems/rnas/2fd0

>  <Rbt.Executable>
rbdock ($Id: //depot/dev/client3/rdock/2013.1/src/exe/rbdock.cxx#4 $)

>  <Rbt.Library>
libRbt.so (2013.1, Build901 2013/11/27)

>  <Rbt.Parameter_File>
/export/apps/rDock/src/rDock_2013.1_src/data/scripts/dock_solv.prm

>  <Rbt.Receptor>
prm/pocket_docking_8.prm

>  <SCORE>
-11.8062

>  <SCORE.INTER>
-5.5902

>  <SCORE.INTER.CONST>
1

>  <SCORE.INTER.POLAR>
-0.501044

>  <SCORE.INTER.ROT>
12

>  <SCORE.INTER.SOLV>
14.2586

>  <SCORE.INTER.VDW>
-18.4095

>  <SCORE.INTER.norm>
-0.107504

>  <SCORE.INTRA>
-6.21596

>  <SCORE.INTRA.DIHEDRAL>
-9.27316

>  <SCORE.INTRA.DIHEDRAL.0>
23.9727

>  <SCORE.INTRA.POLAR>
0

>  <SCORE.INTRA.POLAR.0>
0

>  <SCORE.INTRA.REPUL>
0

>  <SCORE.INTRA.REPUL.0>
0

>  <SCORE.INTRA.SOLV>
-0.911346

>  <SCORE.INTRA.SOLV.lig_0>
-115.028

>  <SCORE.INTRA.VDW>
-1.12371

>  <SCORE.INTRA.VDW.0>
-6.82393

>  <SCORE.INTRA.norm>
-0.119538

>  <SCORE.RESTR>
0

>  <SCORE.RESTR.CAVITY>
0

>  <SCORE.RESTR.norm>
0

>  <SCORE.SYSTEM>
0

>  <SCORE.SYSTEM.CONST>
0

>  <SCORE.SYSTEM.DIHEDRAL>
0

>  <SCORE.SYSTEM.SOLV>
0

>  <SCORE.SYSTEM.norm>
0

>  <SCORE.heavy>
52

>  <SCORE.norm>
-0.227042

>  <RMSD>
11.913

$$$$
2fd0_lig
 OpenBabel11021811433D
libRbt.so/2013.1/901 2013/11/27
 52 56  0  0  0  0  0  0  0  0999 V2000
   -3.5742  -52.9993    4.8777 C   0  0  2  0  0  0  0  0  0  0  0  0
   -2.3060  -52.3342    4.9575 O   0  0  0  0  0  0  0  0  0  0  0  0
   -1.2650  -52.7062    9.1612 C   0  0  2  0  0  0  0  0  0  0  0  0
   -0.4993  -52.6825   10.4182 N   0  0  0  0  0  0  0  0  0  0  0  0
   -1.0182  -49.2485    6.2860 C   0  0  1  0  0  0  0  0  0  0  0  0
    2.0463  -47.0636    8.4425 C   0  0  1  0  0  0  0  0  0  0  0  0
    5.5475  -48.5875   11.8637 C   0  0  1  0  0  0  0  0  0  0  0  0
   -4.0473  -52.9954    3.3785 C   0  0  2  0  0  0  0  0  0  0  0  0
   -3.0686  -53.6196    2.4992 N   0  0  0  0  0  0  0  0  0  0  0  0
   -0.5563  -53.6583    8.1009 C   0  0  0  0  0  0  0  0  0  0  0  0
   -0.4422  -48.7815    7.6103 C   0  0  2  0  0  0  0  0  0  0  0  0
   -0.8726  -47.4345    7.9546 O   0  0  0  0  0  0  0  0  0  0  0  0
    3.6420  -47.0742    8.5566 C   0  0  2  0  0  0  0  0  0  0  0  0
    4.1633  -48.4644    8.4520 N   0  0  0  0  0  0  0  0  0  0  0  0
    5.0343  -48.7731   13.3094 C   0  0  1  0  0  0  0  0  0  0  0  0
    4.3329  -50.0377   13.4026 O   0  0  0  0  0  0  0  0  0  0  0  0
   -4.3829  -51.5298    2.9138 C   0  0  0  0  0  0  0  0  0  0  0  0
   -1.3976  -53.6913    6.7369 C   0  0  2  0  0  0  0  0  0  0  0  0
   -0.7620  -54.5630    5.7380 N   0  0  0  0  0  0  0  0  0  0  0  0
    1.0524  -48.9763    7.4184 C   0  0  2  0  0  0  0  0  0  0  0  0
    1.7148  -47.7498    7.2708 O   0  0  0  0  0  0  0  0  0  0  0  0
    4.0335  -46.2842    9.9107 C   0  0  1  0  0  0  0  0  0  0  0  0
    3.4625  -44.9653    9.8361 O   0  0  0  0  0  0  0  0  0  0  0  0
    6.0829  -48.7179   14.4532 C   0  0  1  0  0  0  0  0  0  0  0  0
    6.5142  -50.0581   14.7218 O   0  0  0  0  0  0  0  0  0  0  0  0
   -5.4422  -50.9284    3.8941 C   0  0  2  0  0  0  0  0  0  0  0  0
   -5.7875  -49.6052    3.4963 O   0  0  0  0  0  0  0  0  0  0  0  0
   -1.5241  -52.2452    6.1814 C   0  0  2  0  0  0  0  0  0  0  0  0
    1.2870  -49.7290    6.0869 C   0  0  2  0  0  0  0  0  0  0  0  0
   -0.0328  -50.0764    5.6933 O   0  0  0  0  0  0  0  0  0  0  0  0
    3.3993  -46.9858   11.2221 C   0  0  2  0  0  0  0  0  0  0  0  0
    4.0096  -48.2893   11.2650 O   0  0  0  0  0  0  0  0  0  0  0  0
    7.3270  -47.8374   14.1932 C   0  0  2  0  0  0  0  0  0  0  0  0
    7.5861  -47.1486   15.4361 O   0  0  0  0  0  0  0  0  0  0  0  0
   -4.8620  -50.9135    5.3373 C   0  0  2  0  0  0  0  0  0  0  0  0
   -4.5329  -52.3053    5.7170 O   0  0  0  0  0  0  0  0  0  0  0  0
   -2.1613  -51.2582    7.2064 C   0  0  2  0  0  0  0  0  0  0  0  0
   -2.1831  -49.9470    6.5930 O   0  0  0  0  0  0  0  0  0  0  0  0
    2.1052  -51.0101    6.2035 C   0  0  0  0  0  0  0  0  0  0  0  0
    3.4762  -50.6197    6.3745 O   0  0  0  0  0  0  0  0  0  0  0  0
    1.9217  -47.1538   10.9221 C   0  0  1  0  0  0  0  0  0  0  0  0
    1.3896  -47.6832    9.6897 O   0  0  0  0  0  0  0  0  0  0  0  0
    7.0971  -46.8991   13.0115 C   0  0  2  0  0  0  0  0  0  0  0  0
    6.6172  -47.5489   11.8020 O   0  0  0  0  0  0  0  0  0  0  0  0
   -5.8433  -50.3808    6.3325 C   0  0  0  0  0  0  0  0  0  0  0  0
   -5.2234  -50.3698    7.5899 O   0  0  0  0  0  0  0  0  0  0  0  0
   -1.3291  -51.2529    8.5406 C   0  0  1  0  0  0  0  0  0  0  0  0
   -1.9872  -50.3535    9.4983 O   0  0  0  0  0  0  0  0  0  0  0  0
    1.1332  -47.8690   12.0758 C   0  0  0  0  0  0  0  0  0  0  0  0
    0.9727  -47.0356   13.2920 N   0  0  0  0  0  0  0  0  0  0  0  0
    8.1710  -45.9252   12.5315 C   0  0  0  0  0  0  0  0  0  0  0  0
    8.6326  -45.0914   13.6388 O   0  0  0  0  0  0  0  0  0  0  0  0
  1  2  1  6  0  0  0
  1  8  1  0  0  0  0
  1 36  1  0  0  0  0
  3  4  1  1  0  0  0
  3 10  1  0  0  0  0
  3 47  1  0  0  0  0
  5 11  1  0  0  0  0
  5 30  1  0  0  0  0
  5 38  1  1  0  0  0
  6 21  1  6  0  0  0
  6 42  1  0  0  0  0
  7 15  1  0  0  0  0
  7 44  1  0  0  0  0
  7 32  1  6  0  0  0
  8  9  1  6  0  0  0
  8 17  1  0  0  0  0
 11 12  1  6  0  0  0
 11 20  1  0  0  0  0
 13  6  1  0  0  0  0
 13 14  1  1  0  0  0
 15 16  1  6  0  0  0
 15 24  1  0  0  0  0
 17 26  1  0  0  0  0
 18 10  1  0  0  0  0
 18 19  1  6  0  0  0
 20 21  1  6  0  0  0
 20 29  1  0  0  0  0
 22 13  1  0  0  0  0
 22 23  1  6  0  0  0
 24 25  1  6  0  0  0
 24 33  1  0  0  0  0
 26 27  1  6  0  0  0
 26 35  1  0  0  0  0
 28  2  1  6  0  0  0
 28 18  1  0  0  0  0
 29 30  1  0  0  0  0
 29 39  1  1  0  0  0
 31 22  1  0  0  0  0
 31 32  1  6  0  0  0
 31 41  1  0  0  0  0
 33 34  1  1  0  0  0
 33 43  1  0  0  0  0
 35 36  1  0  0  0  0
 35 45  1  1  0  0  0
 37 28  1  0  0  0  0
 37 38  1  6  0  0  0
 39 40  1  0  0  0  0
 41 42  1  0  0  0  0
 41 49  1  1  0  0  0
 43 44  1  0  0  0  0
 43 51  1  6  0  0  0
 45 46  1  0  0  0  0
 47 37  1  0  0  0  0
 47 48  1  1  0  0  0
 49 50  1  0  0  0  0
 51 52  1  0  0  0  0
M  END
>  <CHROM.1>
-175.07515057,-72.32269958,112.43287809,87.74057439,82.97384735,51.50000972
-75.66949288,80.42069507,-178.35503377,-65.79376301,70.78005244,-53.97953232
0.93813544,-49.57451006,8.71853627,-3.00799938,-0.73838441,-0.31592074

>  <Name>
2fd0_lig

>  <RI>
1.29864e+07

>  <Rbt.Current_Directory>
/home/itssahil/PROJECTS/Mol_Feturizer/New_Systems/rnas/2fd0

>  <Rbt.Executable>
rbdock ($Id: //depot/dev/client3/rdock/2013.1/src/exe/rbdock.cxx#4 $)

>  <Rbt.Library>
libRbt.so (2013.1, Build901 2013/11/27)

>  <Rbt.Parameter_File>
/export/apps/rDock/src/rDock_2013.1_src/data/scripts/dock_solv.prm

>  <Rbt.Receptor>
prm/pocket_docking_3.prm

>  <SCORE>
-11.6539

>  <SCORE.INTER>
-10.5109

>  <SCORE.INTER.CONST>
1

>  <SCORE.INTER.POLAR>
-1.66823

>  <SCORE.INTER.ROT>
12

>  <SCORE.INTER.SOLV>
12.0756

>  <SCORE.INTER.VDW>
-17.0717

>  <SCORE.INTER.norm>
-0.202133

>  <SCORE.INTRA>
-1.38739

>  <SCORE.INTRA.DIHEDRAL>
-5.61235

>  <SCORE.INTRA.DIHEDRAL.0>
23.9727

>  <SCORE.INTRA.POLAR>
0

>  <SCORE.INTRA.POLAR.0>
0

>  <SCORE.INTRA.REPUL>
0

>  <SCORE.INTRA.REPUL.0>
0

>  <SCORE.INTRA.SOLV>
-0.345368

>  <SCORE.INTRA.SOLV.lig_0>
-115.028

>  <SCORE.INTRA.VDW>
1.59147

>  <SCORE.INTRA.VDW.0>
-6.82393

>  <SCORE.INTRA.norm>
-0.0266806

>  <SCORE.RESTR>
0.244379

>  <SCORE.RESTR.CAVITY>
0.244379

>  <SCORE.RESTR.norm>
0.0046996

>  <SCORE.SYSTEM>
0

>  <SCORE.SYSTEM.CONST>
0

>  <SCORE.SYSTEM.DIHEDRAL>
0

>  <SCORE.SYSTEM.SOLV>
0

>  <SCORE.SYSTEM.norm>
0

>  <SCORE.heavy>
52

>  <SCORE.norm>
-0.224114

>  <RMSD>
11.919

$$$$
2fd0_lig
 OpenBabel11021811433D
libRbt.so/2013.1/901 2013/11/27
 52 56  0  0  0  0  0  0  0  0999 V2000
   -2.9063  -51.4487    2.4701 C   0  0  2  0  0  0  0  0  0  0  0  0
   -1.7162  -50.8516    3.0031 O   0  0  0  0  0  0  0  0  0  0  0  0
    1.0430  -54.1987    3.2788 C   0  0  2  0  0  0  0  0  0  0  0  0
    2.2841  -54.9787    3.4143 N   0  0  0  0  0  0  0  0  0  0  0  0
   -0.1950  -50.3540    5.6770 C   0  0  1  0  0  0  0  0  0  0  0  0
    1.9054  -47.0489    7.9117 C   0  0  1  0  0  0  0  0  0  0  0  0
    2.9929  -45.7454   12.8637 C   0  0  1  0  0  0  0  0  0  0  0  0
   -4.0616  -50.3833    2.5107 C   0  0  2  0  0  0  0  0  0  0  0  0
   -3.7084  -49.1721    1.7834 N   0  0  0  0  0  0  0  0  0  0  0  0
    1.1434  -53.2132    2.0332 C   0  0  0  0  0  0  0  0  0  0  0  0
   -0.2654  -49.9487    7.1380 C   0  0  2  0  0  0  0  0  0  0  0  0
   -1.4816  -49.2120    7.4479 O   0  0  0  0  0  0  0  0  0  0  0  0
    2.5721  -47.8307    9.1380 C   0  0  2  0  0  0  0  0  0  0  0  0
    1.5481  -48.1557   10.1681 N   0  0  0  0  0  0  0  0  0  0  0  0
    2.1729  -47.0128   13.1940 C   0  0  1  0  0  0  0  0  0  0  0  0
    2.8078  -48.1600   12.5770 O   0  0  0  0  0  0  0  0  0  0  0  0
   -4.4590  -50.0627    3.9992 C   0  0  0  0  0  0  0  0  0  0  0  0
   -0.2132  -52.3730    1.8811 C   0  0  2  0  0  0  0  0  0  0  0  0
   -0.1455  -51.4515    0.7374 N   0  0  0  0  0  0  0  0  0  0  0  0
    1.0401  -49.1998    7.3462 C   0  0  2  0  0  0  0  0  0  0  0  0
    0.8258  -47.8204    7.4725 O   0  0  0  0  0  0  0  0  0  0  0  0
    3.8205  -46.9436    9.6533 C   0  0  1  0  0  0  0  0  0  0  0  0
    4.7089  -46.7383    8.5398 O   0  0  0  0  0  0  0  0  0  0  0  0
    1.9361  -47.3410   14.6931 C   0  0  1  0  0  0  0  0  0  0  0  0
    2.9758  -48.2305   15.1197 O   0  0  0  0  0  0  0  0  0  0  0  0
   -4.8333  -51.4026    4.7128 C   0  0  2  0  0  0  0  0  0  0  0  0
   -5.2177  -51.1529    6.0612 O   0  0  0  0  0  0  0  0  0  0  0  0
   -0.4707  -51.5795    3.1925 C   0  0  2  0  0  0  0  0  0  0  0  0
    1.9121  -49.3622    6.0782 C   0  0  2  0  0  0  0  0  0  0  0  0
    1.1747  -50.3077    5.3168 O   0  0  0  0  0  0  0  0  0  0  0  0
    3.3541  -45.4758   10.1454 C   0  0  2  0  0  0  0  0  0  0  0  0
    2.4853  -45.7297   11.2653 O   0  0  0  0  0  0  0  0  0  0  0  0
    1.8903  -46.1313   15.6549 C   0  0  2  0  0  0  0  0  0  0  0  0
    0.8156  -46.4069   16.5799 O   0  0  0  0  0  0  0  0  0  0  0  0
   -3.6120  -52.3654    4.6795 C   0  0  2  0  0  0  0  0  0  0  0  0
   -3.2563  -52.6113    3.2644 O   0  0  0  0  0  0  0  0  0  0  0  0
   -0.5203  -52.4961    4.4528 C   0  0  2  0  0  0  0  0  0  0  0  0
   -0.7190  -51.6421    5.6049 O   0  0  0  0  0  0  0  0  0  0  0  0
    3.3077  -49.9262    6.3208 C   0  0  0  0  0  0  0  0  0  0  0  0
    3.1402  -51.2470    6.8579 O   0  0  0  0  0  0  0  0  0  0  0  0
    2.5244  -44.9079    9.0094 C   0  0  1  0  0  0  0  0  0  0  0  0
    1.4814  -45.6252    8.3167 O   0  0  0  0  0  0  0  0  0  0  0  0
    1.7134  -44.8253   14.8851 C   0  0  2  0  0  0  0  0  0  0  0  0
    2.6552  -44.6288   13.7943 O   0  0  0  0  0  0  0  0  0  0  0  0
   -3.9174  -53.6835    5.3170 C   0  0  0  0  0  0  0  0  0  0  0  0
   -5.0008  -54.2548    4.6347 O   0  0  0  0  0  0  0  0  0  0  0  0
    0.8131  -53.3207    4.5740 C   0  0  1  0  0  0  0  0  0  0  0  0
    0.7091  -54.2086    5.7403 O   0  0  0  0  0  0  0  0  0  0  0  0
    1.9366  -43.4864    9.3227 C   0  0  0  0  0  0  0  0  0  0  0  0
    1.0393  -43.4608   10.5032 N   0  0  0  0  0  0  0  0  0  0  0  0
    1.6467  -43.4730   15.5914 C   0  0  0  0  0  0  0  0  0  0  0  0
    0.4910  -43.4221   16.4836 O   0  0  0  0  0  0  0  0  0  0  0  0
  1  2  1  1  0  0  0
  1  8  1  0  0  0  0
  1 36  1  0  0  0  0
  3  4  1  1  0  0  0
  3 10  1  0  0  0  0
  3 47  1  0  0  0  0
  5 11  1  0  0  0  0
  5 30  1  0  0  0  0
  5 38  1  1  0  0  0
  6 21  1  1  0  0  0
  6 42  1  0  0  0  0
  7 15  1  0  0  0  0
  7 44  1  0  0  0  0
  7 32  1  6  0  0  0
  8  9  1  1  0  0  0
  8 17  1  0  0  0  0
 11 12  1  6  0  0  0
 11 20  1  0  0  0  0
 13  6  1  0  0  0  0
 13 14  1  1  0  0  0
 15 16  1  1  0  0  0
 15 24  1  0  0  0  0
 17 26  1  0  0  0  0
 18 10  1  0  0  0  0
 18 19  1  6  0  0  0
 20 21  1  6  0  0  0
 20 29  1  0  0  0  0
 22 13  1  0  0  0  0
 22 23  1  6  0  0  0
 24 25  1  1  0  0  0
 24 33  1  0  0  0  0
 26 27  1  1  0  0  0
 26 35  1  0  0  0  0
 28  2  1  6  0  0  0
 28 18  1  0  0  0  0
 29 30  1  0  0  0  0
 29 39  1  1  0  0  0
 31 22  1  0  0  0  0
 31 32  1  1  0  0  0
 31 41  1  0  0  0  0
 33 34  1  1  0  0  0
 33 43  1  0  0  0  0
 35 36  1  0  0  0  0
 35 45  1  6  0  0  0
 37 28  1  0  0  0  0
 37 38  1  1  0  0  0
 39 40  1  0  0  0  0
 41 42  1  0  0  0  0
 41 49  1  1  0  0  0
 43 44  1  0  0  0  0
 43 51  1  1  0  0  0
 45 46  1  0  0  0  0
 47 37  1  0  0  0  0
 47 48  1  1  0  0  0
 49 50  1  0  0  0  0
 51 52  1  0  0  0  0
M  END
>  <CHROM.1>
176.09304309,-164.16808428,-44.44356016,-136.75492124,168.50919050,46.85268604
62.47624824,93.84774148,58.49118926,-33.09282924,-60.31824401,-62.21335370
0.38257352,-49.12679562,7.79284580,1.88835314,-0.05751745,-2.14843903

>  <Name>
2fd0_lig

>  <RI>
0

>  <Rbt.Current_Directory>
/home/itssahil/PROJECTS/Mol_Feturizer/New_Systems/rnas/2fd0

>  <Rbt.Executable>
rbdock ($Id: //depot/dev/client3/rdock/2013.1/src/exe/rbdock.cxx#4 $)

>  <Rbt.Library>
libRbt.so (2013.1, Build901 2013/11/27)

>  <Rbt.Parameter_File>
/export/apps/rDock/src/rDock_2013.1_src/data/scripts/dock_solv.prm

>  <Rbt.Receptor>
prm/pocket_docking_6.prm

>  <SCORE>
-12.4585

>  <SCORE.INTER>
-13.1798

>  <SCORE.INTER.CONST>
1

>  <SCORE.INTER.POLAR>
-0.979796

>  <SCORE.INTER.ROT>
12

>  <SCORE.INTER.SOLV>
13.318

>  <SCORE.INTER.VDW>
-21.5599

>  <SCORE.INTER.norm>
-0.253457

>  <SCORE.INTRA>
0.720546

>  <SCORE.INTRA.DIHEDRAL>
-5.45898

>  <SCORE.INTRA.DIHEDRAL.0>
23.9727

>  <SCORE.INTRA.POLAR>
0

>  <SCORE.INTRA.POLAR.0>
0

>  <SCORE.INTRA.REPUL>
0

>  <SCORE.INTRA.REPUL.0>
0

>  <SCORE.INTRA.SOLV>
1.13192

>  <SCORE.INTRA.SOLV.lig_0>
-115.028

>  <SCORE.INTRA.VDW>
2.88407

>  <SCORE.INTRA.VDW.0>
-6.82393

>  <SCORE.INTRA.norm>
0.0138567

>  <SCORE.RESTR>
0.00072501

>  <SCORE.RESTR.CAVITY>
0.00072501

>  <SCORE.RESTR.norm>
1.39425e-05

>  <SCORE.SYSTEM>
0

>  <SCORE.SYSTEM.CONST>
0

>  <SCORE.SYSTEM.DIHEDRAL>
0

>  <SCORE.SYSTEM.SOLV>
0

>  <SCORE.SYSTEM.norm>
0

>  <SCORE.heavy>
52

>  <SCORE.norm>
-0.239587

>  <RMSD>
11.920

$$$$
2fd0_lig
 OpenBabel11021811433D
libRbt.so/2013.1/901 2013/11/27
 52 56  0  0  0  0  0  0  0  0999 V2000
    0.1812  -51.9955    5.4023 C   0  0  2  0  0  0  0  0  0  0  0  0
    0.4590  -53.3782    5.6628 O   0  0  0  0  0  0  0  0  0  0  0  0
    3.3002  -55.2217    8.3871 C   0  0  2  0  0  0  0  0  0  0  0  0
    4.5493  -55.7634    8.9468 N   0  0  0  0  0  0  0  0  0  0  0  0
    2.6314  -50.7157    8.0667 C   0  0  1  0  0  0  0  0  0  0  0  0
    2.3978  -46.4874    9.6322 C   0  0  1  0  0  0  0  0  0  0  0  0
    5.2472  -42.6976   11.6077 C   0  0  1  0  0  0  0  0  0  0  0  0
   -1.3779  -51.7947    5.3783 C   0  0  2  0  0  0  0  0  0  0  0  0
   -2.0005  -52.2326    6.6198 N   0  0  0  0  0  0  0  0  0  0  0  0
    2.9355  -55.9661    7.0285 C   0  0  0  0  0  0  0  0  0  0  0  0
    2.5696  -49.3866    7.3365 C   0  0  2  0  0  0  0  0  0  0  0  0
    3.8670  -48.9829    6.8151 O   0  0  0  0  0  0  0  0  0  0  0  0
    3.1197  -45.1679    9.0869 C   0  0  2  0  0  0  0  0  0  0  0  0
    4.5982  -45.3397    9.0980 N   0  0  0  0  0  0  0  0  0  0  0  0
    6.5663  -43.4960   11.5078 C   0  0  1  0  0  0  0  0  0  0  0  0
    6.6861  -44.0447   10.1719 O   0  0  0  0  0  0  0  0  0  0  0  0
   -2.0051  -52.5255    4.1337 C   0  0  0  0  0  0  0  0  0  0  0  0
    1.5693  -55.3823    6.4267 C   0  0  2  0  0  0  0  0  0  0  0  0
    1.2106  -56.0523    5.1680 N   0  0  0  0  0  0  0  0  0  0  0  0
    1.9472  -48.4608    8.3681 C   0  0  2  0  0  0  0  0  0  0  0  0
    2.8900  -47.5617    8.8856 O   0  0  0  0  0  0  0  0  0  0  0  0
    2.5575  -43.9208    9.9469 C   0  0  1  0  0  0  0  0  0  0  0  0
    1.1247  -43.8996    9.8135 O   0  0  0  0  0  0  0  0  0  0  0  0
    7.8840  -42.7449   11.8404 C   0  0  1  0  0  0  0  0  0  0  0  0
    8.4190  -42.2283   10.6153 O   0  0  0  0  0  0  0  0  0  0  0  0
   -1.2980  -52.0012    2.8415 C   0  0  2  0  0  0  0  0  0  0  0  0
   -1.8513  -52.6266    1.6878 O   0  0  0  0  0  0  0  0  0  0  0  0
    1.7279  -53.8540    6.1925 C   0  0  2  0  0  0  0  0  0  0  0  0
    1.4843  -49.3071    9.5780 C   0  0  2  0  0  0  0  0  0  0  0  0
    1.6858  -50.6361    9.1190 O   0  0  0  0  0  0  0  0  0  0  0  0
    2.8695  -44.0876   11.5245 C   0  0  2  0  0  0  0  0  0  0  0  0
    4.3070  -44.0863   11.6103 O   0  0  0  0  0  0  0  0  0  0  0  0
    7.7685  -41.5883   12.8599 C   0  0  2  0  0  0  0  0  0  0  0  0
    8.9306  -41.6985   13.7107 O   0  0  0  0  0  0  0  0  0  0  0  0
    0.2259  -52.3013    2.9275 C   0  0  2  0  0  0  0  0  0  0  0  0
    0.7634  -51.6217    4.1270 O   0  0  0  0  0  0  0  0  0  0  0  0
    2.1423  -53.0852    7.4841 C   0  0  2  0  0  0  0  0  0  0  0  0
    2.3005  -51.6905    7.1290 O   0  0  0  0  0  0  0  0  0  0  0  0
    0.0155  -49.1478    9.9547 C   0  0  0  0  0  0  0  0  0  0  0  0
   -0.1820  -49.8569   11.1873 O   0  0  0  0  0  0  0  0  0  0  0  0
    2.3646  -45.4686   11.8977 C   0  0  1  0  0  0  0  0  0  0  0  0
    2.6281  -46.6702   11.1435 O   0  0  0  0  0  0  0  0  0  0  0  0
    6.4467  -41.6574   13.6199 C   0  0  2  0  0  0  0  0  0  0  0  0
    5.2657  -41.7728   12.7788 O   0  0  0  0  0  0  0  0  0  0  0  0
    0.9680  -51.7909    1.7334 C   0  0  0  0  0  0  0  0  0  0  0  0
    0.5223  -52.5008    0.6096 O   0  0  0  0  0  0  0  0  0  0  0  0
    3.4756  -53.6834    8.0647 C   0  0  1  0  0  0  0  0  0  0  0  0
    3.8062  -52.9701    9.3062 O   0  0  0  0  0  0  0  0  0  0  0  0
    2.6234  -45.8368   13.4016 C   0  0  0  0  0  0  0  0  0  0  0  0
    2.1118  -47.1756   13.7827 N   0  0  0  0  0  0  0  0  0  0  0  0
    6.0699  -40.6271   14.6823 C   0  0  0  0  0  0  0  0  0  0  0  0
    7.0903  -40.5775   15.7266 O   0  0  0  0  0  0  0  0  0  0  0  0
  1  2  1  6  0  0  0
  1  8  1  0  0  0  0
  1 36  1  0  0  0  0
  3  4  1  6  0  0  0
  3 10  1  0  0  0  0
  3 47  1  0  0  0  0
  5 11  1  0  0  0  0
  5 30  1  0  0  0  0
  5 38  1  6  0  0  0
  6 21  1  6  0  0  0
  6 42  1  0  0  0  0
  7 15  1  0  0  0  0
  7 44  1  0  0  0  0
  7 32  1  1  0  0  0
  8  9  1  1  0  0  0
  8 17  1  0  0  0  0
 11 12  1  1  0  0  0
 11 20  1  0  0  0  0
 13  6  1  0  0  0  0
 13 14  1  1  0  0  0
 15 16  1  6  0  0  0
 15 24  1  0  0  0  0
 17 26  1  0  0  0  0
 18 10  1  0  0  0  0
 18 19  1  6  0  0  0
 20 21  1  1  0  0  0
 20 29  1  0  0  0  0
 22 13  1  0  0  0  0
 22 23  1  1  0  0  0
 24 25  1  6  0  0  0
 24 33  1  0  0  0  0
 26 27  1  6  0  0  0
 26 35  1  0  0  0  0
 28  2  1  1  0  0  0
 28 18  1  0  0  0  0
 29 30  1  0  0  0  0
 29 39  1  6  0  0  0
 31 22  1  0  0  0  0
 31 32  1  6  0  0  0
 31 41  1  0  0  0  0
 33 34  1  1  0  0  0
 33 43  1  0  0  0  0
 35 36  1  0  0  0  0
 35 45  1  6  0  0  0
 37 28  1  0  0  0  0
 37 38  1  6  0  0  0
 39 40  1  0  0  0  0
 41 42  1  0  0  0  0
 41 49  1  1  0  0  0
 43 44  1  0  0  0  0
 43 51  1  6  0  0  0
 45 46  1  0  0  0  0
 47 37  1  0  0  0  0
 47 48  1  1  0  0  0
 49 50  1  0  0  0  0
 51 52  1  0  0  0  0
M  END
>  <CHROM.1>
-158.62908590,-174.65542132,-132.32207050,-172.10745767,167.31354033,175.66380133
-172.44518712,81.45242780,-64.85553732,178.09979525,178.97210442,-56.86723195
2.82011783,-48.49130656,8.75160581,2.26826538,0.95299941,-3.12060432

>  <Name>
2fd0_lig

>  <RI>
3.4301e+07

>  <Rbt.Current_Directory>
/home/itssahil/PROJECTS/Mol_Feturizer/New_Systems/rnas/2fd0

>  <Rbt.Executable>
rbdock ($Id: //depot/dev/client3/rdock/2013.1/src/exe/rbdock.cxx#4 $)

>  <Rbt.Library>
libRbt.so (2013.1, Build901 2013/11/27)

>  <Rbt.Parameter_File>
/export/apps/rDock/src/rDock_2013.1_src/data/scripts/dock_solv.prm

>  <Rbt.Receptor>
prm/pocket_docking_7.prm

>  <SCORE>
-15.2788

>  <SCORE.INTER>
-10.0901

>  <SCORE.INTER.CONST>
1

>  <SCORE.INTER.POLAR>
-2.10145

>  <SCORE.INTER.ROT>
12

>  <SCORE.INTER.SOLV>
13.7915

>  <SCORE.INTER.VDW>
-15.9191

>  <SCORE.INTER.norm>
-0.19404

>  <SCORE.INTRA>
-5.18871

>  <SCORE.INTRA.DIHEDRAL>
-10.2143

>  <SCORE.INTRA.DIHEDRAL.0>
23.9727

>  <SCORE.INTRA.POLAR>
0

>  <SCORE.INTRA.POLAR.0>
0

>  <SCORE.INTRA.REPUL>
0

>  <SCORE.INTRA.REPUL.0>
0

>  <SCORE.INTRA.SOLV>
-3.92654

>  <SCORE.INTRA.SOLV.lig_0>
-115.028

>  <SCORE.INTRA.VDW>
1.8817

>  <SCORE.INTRA.VDW.0>
-6.82393

>  <SCORE.INTRA.norm>
-0.0997828

>  <SCORE.RESTR>
0

>  <SCORE.RESTR.CAVITY>
0

>  <SCORE.RESTR.norm>
0

>  <SCORE.SYSTEM>
0

>  <SCORE.SYSTEM.CONST>
0

>  <SCORE.SYSTEM.DIHEDRAL>
0

>  <SCORE.SYSTEM.SOLV>
0

>  <SCORE.SYSTEM.norm>
0

>  <SCORE.heavy>
52

>  <SCORE.norm>
-0.293823

>  <RMSD>
11.922

$$$$
2fd0_lig
 OpenBabel11021811433D
libRbt.so/2013.1/901 2013/11/27
 52 56  0  0  0  0  0  0  0  0999 V2000
   -1.8379  -52.3191    6.0241 C   0  0  2  0  0  0  0  0  0  0  0  0
   -2.9867  -52.8222    5.3283 O   0  0  0  0  0  0  0  0  0  0  0  0
   -7.1857  -51.8158    5.8269 C   0  0  2  0  0  0  0  0  0  0  0  0
   -8.5707  -51.8077    6.3254 N   0  0  0  0  0  0  0  0  0  0  0  0
   -3.6842  -49.8669    8.1276 C   0  0  1  0  0  0  0  0  0  0  0  0
   -0.8563  -47.7250   10.5794 C   0  0  1  0  0  0  0  0  0  0  0  0
    2.9716  -44.5593   10.7421 C   0  0  1  0  0  0  0  0  0  0  0  0
   -0.5993  -52.3865    5.0583 C   0  0  2  0  0  0  0  0  0  0  0  0
   -0.8328  -51.6493    3.8243 N   0  0  0  0  0  0  0  0  0  0  0  0
   -6.7941  -53.2685    5.3079 C   0  0  0  0  0  0  0  0  0  0  0  0
   -2.3266  -49.8100    8.8039 C   0  0  2  0  0  0  0  0  0  0  0  0
   -2.3925  -50.1941   10.2061 O   0  0  0  0  0  0  0  0  0  0  0  0
   -0.4990  -46.2538   11.0963 C   0  0  2  0  0  0  0  0  0  0  0  0
   -0.2588  -45.3406    9.9459 N   0  0  0  0  0  0  0  0  0  0  0  0
    4.4406  -45.0255   10.8531 C   0  0  1  0  0  0  0  0  0  0  0  0
    4.9332  -45.3532    9.5303 O   0  0  0  0  0  0  0  0  0  0  0  0
   -0.2127  -53.8839    4.7670 C   0  0  0  0  0  0  0  0  0  0  0  0
   -5.2894  -53.2722    4.7554 C   0  0  2  0  0  0  0  0  0  0  0  0
   -4.9012  -54.6052    4.2716 N   0  0  0  0  0  0  0  0  0  0  0  0
   -1.8655  -48.3901    8.5216 C   0  0  2  0  0  0  0  0  0  0  0  0
   -1.9146  -47.5958    9.6755 O   0  0  0  0  0  0  0  0  0  0  0  0
    0.7259  -46.3945   12.1408 C   0  0  1  0  0  0  0  0  0  0  0  0
    0.3177  -47.2968   13.1849 O   0  0  0  0  0  0  0  0  0  0  0  0
    5.4519  -44.0518   11.5166 C   0  0  1  0  0  0  0  0  0  0  0  0
    6.0605  -43.2728   10.4789 O   0  0  0  0  0  0  0  0  0  0  0  0
    0.0315  -54.6081    6.1311 C   0  0  2  0  0  0  0  0  0  0  0  0
    0.4026  -55.9651    5.9098 O   0  0  0  0  0  0  0  0  0  0  0  0
   -4.3295  -52.8143    5.8888 C   0  0  2  0  0  0  0  0  0  0  0  0
   -2.8585  -47.7340    7.5327 C   0  0  2  0  0  0  0  0  0  0  0  0
   -3.6956  -48.8227    7.1698 O   0  0  0  0  0  0  0  0  0  0  0  0
    2.0329  -47.0509   11.4515 C   0  0  2  0  0  0  0  0  0  0  0  0
    2.4135  -46.1097   10.4301 O   0  0  0  0  0  0  0  0  0  0  0  0
    4.8735  -43.0940   12.5837 C   0  0  2  0  0  0  0  0  0  0  0  0
    5.8511  -43.0553   13.6463 O   0  0  0  0  0  0  0  0  0  0  0  0
   -1.2646  -54.5463    6.9890 C   0  0  2  0  0  0  0  0  0  0  0  0
   -1.6052  -53.1232    7.2092 O   0  0  0  0  0  0  0  0  0  0  0  0
   -4.7064  -51.4183    6.4720 C   0  0  2  0  0  0  0  0  0  0  0  0
   -3.7739  -51.1262    7.5403 O   0  0  0  0  0  0  0  0  0  0  0  0
   -2.2298  -47.1693    6.2638 C   0  0  0  0  0  0  0  0  0  0  0  0
   -3.2642  -46.4667    5.5584 O   0  0  0  0  0  0  0  0  0  0  0  0
    1.5469  -48.3216   10.7804 C   0  0  1  0  0  0  0  0  0  0  0  0
    0.3695  -48.4131    9.9512 O   0  0  0  0  0  0  0  0  0  0  0  0
    3.4919  -43.5536   13.0416 C   0  0  2  0  0  0  0  0  0  0  0  0
    2.5495  -43.8159   11.9653 O   0  0  0  0  0  0  0  0  0  0  0  0
   -1.0855  -55.1926    8.3259 C   0  0  0  0  0  0  0  0  0  0  0  0
   -0.1300  -54.4555    9.0396 O   0  0  0  0  0  0  0  0  0  0  0  0
   -6.1895  -51.4334    6.9942 C   0  0  1  0  0  0  0  0  0  0  0  0
   -6.5251  -50.0904    7.4874 O   0  0  0  0  0  0  0  0  0  0  0  0
    2.6798  -49.0860   10.0080 C   0  0  0  0  0  0  0  0  0  0  0  0
    3.2132  -48.3395    8.8428 N   0  0  0  0  0  0  0  0  0  0  0  0
    2.6876  -42.7815   14.0850 C   0  0  0  0  0  0  0  0  0  0  0  0
    3.3995  -42.7583   15.3606 O   0  0  0  0  0  0  0  0  0  0  0  0
  1  2  1  6  0  0  0
  1  8  1  0  0  0  0
  1 36  1  0  0  0  0
  3  4  1  1  0  0  0
  3 10  1  0  0  0  0
  3 47  1  0  0  0  0
  5 11  1  0  0  0  0
  5 30  1  0  0  0  0
  5 38  1  6  0  0  0
  6 21  1  6  0  0  0
  6 42  1  0  0  0  0
  7 15  1  0  0  0  0
  7 44  1  0  0  0  0
  7 32  1  1  0  0  0
  8  9  1  6  0  0  0
  8 17  1  0  0  0  0
 11 12  1  1  0  0  0
 11 20  1  0  0  0  0
 13  6  1  0  0  0  0
 13 14  1  6  0  0  0
 15 16  1  6  0  0  0
 15 24  1  0  0  0  0
 17 26  1  0  0  0  0
 18 10  1  0  0  0  0
 18 19  1  1  0  0  0
 20 21  1  1  0  0  0
 20 29  1  0  0  0  0
 22 13  1  0  0  0  0
 22 23  1  1  0  0  0
 24 25  1  6  0  0  0
 24 33  1  0  0  0  0
 26 27  1  6  0  0  0
 26 35  1  0  0  0  0
 28  2  1  6  0  0  0
 28 18  1  0  0  0  0
 29 30  1  0  0  0  0
 29 39  1  6  0  0  0
 31 22  1  0  0  0  0
 31 32  1  6  0  0  0
 31 41  1  0  0  0  0
 33 34  1  1  0  0  0
 33 43  1  0  0  0  0
 35 36  1  0  0  0  0
 35 45  1  1  0  0  0
 37 28  1  0  0  0  0
 37 38  1  1  0  0  0
 39 40  1  0  0  0  0
 41 42  1  0  0  0  0
 41 49  1  6  0  0  0
 43 44  1  0  0  0  0
 43 51  1  1  0  0  0
 45 46  1  0  0  0  0
 47 37  1  0  0  0  0
 47 48  1  6  0  0  0
 49 50  1  0  0  0  0
 51 52  1  0  0  0  0
M  END
>  <CHROM.1>
-175.30822055,-160.14983172,139.33946655,88.24507292,80.09091318,172.93751868
-173.09958486,66.00922944,64.27288350,169.04447848,-65.62356280,-62.42433476
-0.62255698,-49.01423303,8.75435373,-2.20773118,-0.19112485,0.48711177

>  <Name>
2fd0_lig

>  <RI>
0

>  <Rbt.Current_Directory>
/home/itssahil/PROJECTS/Mol_Feturizer/New_Systems/rnas/2fd0

>  <Rbt.Executable>
rbdock ($Id: //depot/dev/client3/rdock/2013.1/src/exe/rbdock.cxx#4 $)

>  <Rbt.Library>
libRbt.so (2013.1, Build901 2013/11/27)

>  <Rbt.Parameter_File>
/export/apps/rDock/src/rDock_2013.1_src/data/scripts/dock_solv.prm

>  <Rbt.Receptor>
prm/pocket_docking_6.prm

>  <SCORE>
-9.32566

>  <SCORE.INTER>
-5.56475

>  <SCORE.INTER.CONST>
1

>  <SCORE.INTER.POLAR>
-1.54719

>  <SCORE.INTER.ROT>
12

>  <SCORE.INTER.SOLV>
11.0344

>  <SCORE.INTER.VDW>
-13.8306

>  <SCORE.INTER.norm>
-0.107014

>  <SCORE.INTRA>
-3.76092

>  <SCORE.INTRA.DIHEDRAL>
-8.55196

>  <SCORE.INTRA.DIHEDRAL.0>
23.9727

>  <SCORE.INTRA.POLAR>
0

>  <SCORE.INTRA.POLAR.0>
0

>  <SCORE.INTRA.REPUL>
0

>  <SCORE.INTRA.REPUL.0>
0

>  <SCORE.INTRA.SOLV>
-1.6861

>  <SCORE.INTRA.SOLV.lig_0>
-115.028

>  <SCORE.INTRA.VDW>
1.35812

>  <SCORE.INTRA.VDW.0>
-6.82393

>  <SCORE.INTRA.norm>
-0.0723253

>  <SCORE.RESTR>
0

>  <SCORE.RESTR.CAVITY>
0

>  <SCORE.RESTR.norm>
0

>  <SCORE.SYSTEM>
0

>  <SCORE.SYSTEM.CONST>
0

>  <SCORE.SYSTEM.DIHEDRAL>
0

>  <SCORE.SYSTEM.SOLV>
0

>  <SCORE.SYSTEM.norm>
0

>  <SCORE.heavy>
52

>  <SCORE.norm>
-0.17934

>  <RMSD>
11.929

$$$$
2fd0_lig
 OpenBabel11021811433D
libRbt.so/2013.1/901 2013/11/27
 52 56  0  0  0  0  0  0  0  0999 V2000
   -2.5834  -49.7113    7.3552 C   0  0  2  0  0  0  0  0  0  0  0  0
   -1.7047  -50.6275    6.6879 O   0  0  0  0  0  0  0  0  0  0  0  0
   -1.3243  -54.5899    8.4337 C   0  0  2  0  0  0  0  0  0  0  0  0
   -0.7466  -55.7953    9.0503 N   0  0  0  0  0  0  0  0  0  0  0  0
   -0.2818  -50.6804   10.2322 C   0  0  1  0  0  0  0  0  0  0  0  0
    2.1734  -48.2124   13.1812 C   0  0  1  0  0  0  0  0  0  0  0  0
    6.8476  -47.5054   13.7528 C   0  0  1  0  0  0  0  0  0  0  0  0
   -4.0675  -50.1437    7.0691 C   0  0  2  0  0  0  0  0  0  0  0  0
   -4.3225  -51.5159    7.4849 N   0  0  0  0  0  0  0  0  0  0  0  0
   -0.6109  -54.2843    7.0442 C   0  0  0  0  0  0  0  0  0  0  0  0
   -0.2461  -49.2104   10.6079 C   0  0  2  0  0  0  0  0  0  0  0  0
    0.4464  -48.4038    9.6139 O   0  0  0  0  0  0  0  0  0  0  0  0
    3.3750  -47.2275   12.7995 C   0  0  2  0  0  0  0  0  0  0  0  0
    4.3721  -47.9278   11.9448 N   0  0  0  0  0  0  0  0  0  0  0  0
    6.8321  -46.4315   14.8638 C   0  0  1  0  0  0  0  0  0  0  0  0
    7.3840  -46.9996   16.0772 O   0  0  0  0  0  0  0  0  0  0  0  0
   -4.4169  -49.9308    5.5496 C   0  0  0  0  0  0  0  0  0  0  0  0
   -1.2491  -52.9778    6.3695 C   0  0  2  0  0  0  0  0  0  0  0  0
   -0.6048  -52.6716    5.0838 N   0  0  0  0  0  0  0  0  0  0  0  0
    0.3680  -49.2296   11.9976 C   0  0  2  0  0  0  0  0  0  0  0  0
    1.6821  -48.7420   11.9846 O   0  0  0  0  0  0  0  0  0  0  0  0
    3.9502  -46.6124   14.1786 C   0  0  1  0  0  0  0  0  0  0  0  0
    2.8623  -45.9671   14.8648 O   0  0  0  0  0  0  0  0  0  0  0  0
    7.5701  -45.0957   14.5777 C   0  0  1  0  0  0  0  0  0  0  0  0
    8.9061  -45.2124   15.0833 O   0  0  0  0  0  0  0  0  0  0  0  0
   -4.1288  -48.4396    5.1779 C   0  0  2  0  0  0  0  0  0  0  0  0
   -4.4504  -48.2007    3.8113 O   0  0  0  0  0  0  0  0  0  0  0  0
   -1.0974  -51.7759    7.3432 C   0  0  2  0  0  0  0  0  0  0  0  0
    0.4833  -50.6992   12.4680 C   0  0  2  0  0  0  0  0  0  0  0  0
   -0.2108  -51.4039   11.4486 O   0  0  0  0  0  0  0  0  0  0  0  0
    4.4990  -47.7659   15.1699 C   0  0  2  0  0  0  0  0  0  0  0  0
    5.5916  -48.3693   14.4518 O   0  0  0  0  0  0  0  0  0  0  0  0
    7.6351  -44.6586   13.0960 C   0  0  2  0  0  0  0  0  0  0  0  0
    7.4016  -43.2331   13.0975 O   0  0  0  0  0  0  0  0  0  0  0  0
   -2.6269  -48.1239    5.4320 C   0  0  2  0  0  0  0  0  0  0  0  0
   -2.3393  -48.3684    6.8627 O   0  0  0  0  0  0  0  0  0  0  0  0
   -1.7311  -52.0480    8.7415 C   0  0  2  0  0  0  0  0  0  0  0  0
   -1.4871  -50.8823    9.5647 O   0  0  0  0  0  0  0  0  0  0  0  0
   -0.1862  -51.0054   13.8031 C   0  0  0  0  0  0  0  0  0  0  0  0
    0.3651  -50.0969   14.7684 O   0  0  0  0  0  0  0  0  0  0  0  0
    3.3753  -48.7791   15.2803 C   0  0  1  0  0  0  0  0  0  0  0  0
    2.6338  -49.3074   14.1608 O   0  0  0  0  0  0  0  0  0  0  0  0
    6.6342  -45.4403   12.2494 C   0  0  2  0  0  0  0  0  0  0  0  0
    6.7036  -46.8850   12.4032 O   0  0  0  0  0  0  0  0  0  0  0  0
   -2.2929  -46.6979    5.1287 C   0  0  0  0  0  0  0  0  0  0  0  0
   -2.2933  -46.5390    3.7357 O   0  0  0  0  0  0  0  0  0  0  0  0
   -1.1014  -53.3408    9.3778 C   0  0  1  0  0  0  0  0  0  0  0  0
   -1.7581  -53.5942   10.6678 O   0  0  0  0  0  0  0  0  0  0  0  0
    3.7412  -50.0140   16.1777 C   0  0  0  0  0  0  0  0  0  0  0  0
    4.2193  -49.6442   17.5320 N   0  0  0  0  0  0  0  0  0  0  0  0
    6.4964  -45.2142   10.7455 C   0  0  0  0  0  0  0  0  0  0  0  0
    5.7089  -44.0120   10.4824 O   0  0  0  0  0  0  0  0  0  0  0  0
  1  2  1  6  0  0  0
  1  8  1  0  0  0  0
  1 36  1  0  0  0  0
  3  4  1  1  0  0  0
  3 10  1  0  0  0  0
  3 47  1  0  0  0  0
  5 11  1  0  0  0  0
  5 30  1  0  0  0  0
  5 38  1  1  0  0  0
  6 21  1  6  0  0  0
  6 42  1  0  0  0  0
  7 15  1  0  0  0  0
  7 44  1  0  0  0  0
  7 32  1  1  0  0  0
  8  9  1  6  0  0  0
  8 17  1  0  0  0  0
 11 12  1  6  0  0  0
 11 20  1  0  0  0  0
 13  6  1  0  0  0  0
 13 14  1  1  0  0  0
 15 16  1  1  0  0  0
 15 24  1  0  0  0  0
 17 26  1  0  0  0  0
 18 10  1  0  0  0  0
 18 19  1  6  0  0  0
 20 21  1  6  0  0  0
 20 29  1  0  0  0  0
 22 13  1  0  0  0  0
 22 23  1  1  0  0  0
 24 25  1  6  0  0  0
 24 33  1  0  0  0  0
 26 27  1  6  0  0  0
 26 35  1  0  0  0  0
 28  2  1  6  0  0  0
 28 18  1  0  0  0  0
 29 30  1  0  0  0  0
 29 39  1  1  0  0  0
 31 22  1  0  0  0  0
 31 32  1  6  0  0  0
 31 41  1  0  0  0  0
 33 34  1  1  0  0  0
 33 43  1  0  0  0  0
 35 36  1  0  0  0  0
 35 45  1  1  0  0  0
 37 28  1  0  0  0  0
 37 38  1  1  0  0  0
 39 40  1  0  0  0  0
 41 42  1  0  0  0  0
 41 49  1  6  0  0  0
 43 44  1  0  0  0  0
 43 51  1  6  0  0  0
 45 46  1  0  0  0  0
 47 37  1  0  0  0  0
 47 48  1  1  0  0  0
 49 50  1  0  0  0  0
 51 52  1  0  0  0  0
M  END
>  <CHROM.1>
-96.08120789,162.85487475,-157.55420886,34.00080031,155.42192476,135.20995220
-55.34555874,50.56513140,-73.11442646,-82.27772360,53.81534586,-78.96276236
1.45603006,-48.99949683,10.76458496,-2.95938889,0.77584366,2.36917900

>  <Name>
2fd0_lig

>  <RI>
1.29864e+07

>  <Rbt.Current_Directory>
/home/itssahil/PROJECTS/Mol_Feturizer/New_Systems/rnas/2fd0

>  <Rbt.Executable>
rbdock ($Id: //depot/dev/client3/rdock/2013.1/src/exe/rbdock.cxx#4 $)

>  <Rbt.Library>
libRbt.so (2013.1, Build901 2013/11/27)

>  <Rbt.Parameter_File>
/export/apps/rDock/src/rDock_2013.1_src/data/scripts/dock_solv.prm

>  <Rbt.Receptor>
prm/pocket_docking_3.prm

>  <SCORE>
1.75599

>  <SCORE.INTER>
-4.78693

>  <SCORE.INTER.CONST>
1

>  <SCORE.INTER.POLAR>
-0.656471

>  <SCORE.INTER.ROT>
12

>  <SCORE.INTER.SOLV>
15.0353

>  <SCORE.INTER.VDW>
-17.6148

>  <SCORE.INTER.norm>
-0.0920563

>  <SCORE.INTRA>
5.97318

>  <SCORE.INTRA.DIHEDRAL>
1.81057

>  <SCORE.INTRA.DIHEDRAL.0>
23.9727

>  <SCORE.INTRA.POLAR>
0

>  <SCORE.INTRA.POLAR.0>
0

>  <SCORE.INTRA.REPUL>
0

>  <SCORE.INTRA.REPUL.0>
0

>  <SCORE.INTRA.SOLV>
2.09466

>  <SCORE.INTRA.SOLV.lig_0>
-115.028

>  <SCORE.INTRA.VDW>
4.02056

>  <SCORE.INTRA.VDW.0>
-6.82393

>  <SCORE.INTRA.norm>
0.114869

>  <SCORE.RESTR>
0.569745

>  <SCORE.RESTR.CAVITY>
0.569745

>  <SCORE.RESTR.norm>
0.0109566

>  <SCORE.SYSTEM>
0

>  <SCORE.SYSTEM.CONST>
0

>  <SCORE.SYSTEM.DIHEDRAL>
0

>  <SCORE.SYSTEM.SOLV>
0

>  <SCORE.SYSTEM.norm>
0

>  <SCORE.heavy>
52

>  <SCORE.norm>
0.0337691

>  <RMSD>
11.944

$$$$
2fd0_lig
 OpenBabel11021811433D
libRbt.so/2013.1/901 2013/11/27
 52 56  0  0  0  0  0  0  0  0999 V2000
   -1.0726  -50.7787    6.4346 C   0  0  2  0  0  0  0  0  0  0  0  0
   -0.9643  -51.4683    7.6875 O   0  0  0  0  0  0  0  0  0  0  0  0
   -0.1728  -55.4804    9.1601 C   0  0  2  0  0  0  0  0  0  0  0  0
    0.4150  -56.8211    9.3150 N   0  0  0  0  0  0  0  0  0  0  0  0
    2.1310  -51.8187   10.5354 C   0  0  1  0  0  0  0  0  0  0  0  0
    4.4688  -49.3676   13.5329 C   0  0  1  0  0  0  0  0  0  0  0  0
    7.2127  -45.1733   13.6016 C   0  0  1  0  0  0  0  0  0  0  0  0
    0.3477  -50.2320    6.0405 C   0  0  2  0  0  0  0  0  0  0  0  0
    1.3391  -51.2966    5.9722 N   0  0  0  0  0  0  0  0  0  0  0  0
   -0.7454  -55.2955    7.6867 C   0  0  0  0  0  0  0  0  0  0  0  0
    2.9460  -50.5483   10.3757 C   0  0  2  0  0  0  0  0  0  0  0  0
    4.2455  -50.7992    9.7705 O   0  0  0  0  0  0  0  0  0  0  0  0
    4.3411  -47.8249   13.1289 C   0  0  2  0  0  0  0  0  0  0  0  0
    5.2153  -47.5164   11.9645 N   0  0  0  0  0  0  0  0  0  0  0  0
    8.3005  -44.9533   14.6768 C   0  0  1  0  0  0  0  0  0  0  0  0
    9.5151  -45.6275   14.2644 O   0  0  0  0  0  0  0  0  0  0  0  0
    0.7932  -49.0969    7.0353 C   0  0  0  0  0  0  0  0  0  0  0  0
   -1.3948  -53.8391    7.5238 C   0  0  2  0  0  0  0  0  0  0  0  0
   -1.9297  -53.6412    6.1686 N   0  0  0  0  0  0  0  0  0  0  0  0
    2.9643  -49.9771   11.7836 C   0  0  2  0  0  0  0  0  0  0  0  0
    4.2267  -50.1151   12.3768 O   0  0  0  0  0  0  0  0  0  0  0  0
    4.6219  -46.9535   14.4603 C   0  0  1  0  0  0  0  0  0  0  0  0
    3.6860  -47.3717   15.4703 O   0  0  0  0  0  0  0  0  0  0  0  0
    8.6620  -43.4873   15.0390 C   0  0  1  0  0  0  0  0  0  0  0  0
    9.7714  -43.0915   14.2223 O   0  0  0  0  0  0  0  0  0  0  0  0
   -0.3096  -47.9886    7.0501 C   0  0  2  0  0  0  0  0  0  0  0  0
    0.0653  -46.9311    7.9273 O   0  0  0  0  0  0  0  0  0  0  0  0
   -0.3174  -52.7631    7.8356 C   0  0  2  0  0  0  0  0  0  0  0  0
    2.0052  -50.8090   12.6682 C   0  0  2  0  0  0  0  0  0  0  0  0
    1.3730  -51.6587   11.7218 O   0  0  0  0  0  0  0  0  0  0  0  0
    6.0981  -47.2284   15.0599 C   0  0  2  0  0  0  0  0  0  0  0  0
    6.9964  -46.7811   14.0271 O   0  0  0  0  0  0  0  0  0  0  0  0
    7.5290  -42.4478   14.8771 C   0  0  2  0  0  0  0  0  0  0  0  0
    7.6313  -41.5752   16.0236 O   0  0  0  0  0  0  0  0  0  0  0  0
   -1.6594  -48.6078    7.5130 C   0  0  2  0  0  0  0  0  0  0  0  0
   -2.0201  -49.6880    6.5682 O   0  0  0  0  0  0  0  0  0  0  0  0
    0.3172  -52.9362    9.2493 C   0  0  2  0  0  0  0  0  0  0  0  0
    1.3281  -51.9110    9.4015 O   0  0  0  0  0  0  0  0  0  0  0  0
    0.9268  -50.0053   13.3862 C   0  0  0  0  0  0  0  0  0  0  0  0
    0.2256  -50.9163   14.2463 O   0  0  0  0  0  0  0  0  0  0  0  0
    6.2156  -48.7359   15.1825 C   0  0  1  0  0  0  0  0  0  0  0  0
    5.8451  -49.6745   14.1511 O   0  0  0  0  0  0  0  0  0  0  0  0
    6.1708  -43.1325   14.7503 C   0  0  2  0  0  0  0  0  0  0  0  0
    6.1083  -44.1797   13.7428 O   0  0  0  0  0  0  0  0  0  0  0  0
   -2.7678  -47.6035    7.5144 C   0  0  0  0  0  0  0  0  0  0  0  0
   -2.5004  -46.6637    8.5199 O   0  0  0  0  0  0  0  0  0  0  0  0
    0.9346  -54.3753    9.3919 C   0  0  1  0  0  0  0  0  0  0  0  0
    1.4756  -54.5192   10.7505 O   0  0  0  0  0  0  0  0  0  0  0  0
    7.6164  -49.2066   15.7122 C   0  0  0  0  0  0  0  0  0  0  0  0
    7.6085  -50.5777   16.2773 N   0  0  0  0  0  0  0  0  0  0  0  0
    4.8789  -42.3389   14.5688 C   0  0  0  0  0  0  0  0  0  0  0  0
    4.9412  -41.5385   13.3482 O   0  0  0  0  0  0  0  0  0  0  0  0
  1  2  1  1  0  0  0
  1  8  1  0  0  0  0
  1 36  1  0  0  0  0
  3  4  1  6  0  0  0
  3 10  1  0  0  0  0
  3 47  1  0  0  0  0
  5 11  1  0  0  0  0
  5 30  1  0  0  0  0
  5 38  1  6  0  0  0
  6 21  1  6  0  0  0
  6 42  1  0  0  0  0
  7 15  1  0  0  0  0
  7 44  1  0  0  0  0
  7 32  1  1  0  0  0
  8  9  1  1  0  0  0
  8 17  1  0  0  0  0
 11 12  1  1  0  0  0
 11 20  1  0  0  0  0
 13  6  1  0  0  0  0
 13 14  1  6  0  0  0
 15 16  1  6  0  0  0
 15 24  1  0  0  0  0
 17 26  1  0  0  0  0
 18 10  1  0  0  0  0
 18 19  1  6  0  0  0
 20 21  1  1  0  0  0
 20 29  1  0  0  0  0
 22 13  1  0  0  0  0
 22 23  1  1  0  0  0
 24 25  1  6  0  0  0
 24 33  1  0  0  0  0
 26 27  1  1  0  0  0
 26 35  1  0  0  0  0
 28  2  1  1  0  0  0
 28 18  1  0  0  0  0
 29 30  1  0  0  0  0
 29 39  1  6  0  0  0
 31 22  1  0  0  0  0
 31 32  1  6  0  0  0
 31 41  1  0  0  0  0
 33 34  1  1  0  0  0
 33 43  1  0  0  0  0
 35 36  1  0  0  0  0
 35 45  1  6  0  0  0
 37 28  1  0  0  0  0
 37 38  1  6  0  0  0
 39 40  1  0  0  0  0
 41 42  1  0  0  0  0
 41 49  1  6  0  0  0
 43 44  1  0  0  0  0
 43 51  1  6  0  0  0
 45 46  1  0  0  0  0
 47 37  1  0  0  0  0
 47 48  1  1  0  0  0
 49 50  1  0  0  0  0
 51 52  1  0  0  0  0
M  END
>  <CHROM.1>
-72.22270071,-174.25380469,-61.50302804,86.94243109,165.62687337,-86.20274924
-174.61070957,69.57875088,-67.63417657,-177.15379456,159.98613289,59.92591835
3.01258571,-48.93779145,11.36857965,2.58896171,0.77890334,3.02851495

>  <Name>
2fd0_lig

>  <RI>
0

>  <Rbt.Current_Directory>
/home/itssahil/PROJECTS/Mol_Feturizer/New_Systems/rnas/2fd0

>  <Rbt.Executable>
rbdock ($Id: //depot/dev/client3/rdock/2013.1/src/exe/rbdock.cxx#4 $)

>  <Rbt.Library>
libRbt.so (2013.1, Build901 2013/11/27)

>  <Rbt.Parameter_File>
/export/apps/rDock/src/rDock_2013.1_src/data/scripts/dock_solv.prm

>  <Rbt.Receptor>
prm/pocket_docking_6.prm

>  <SCORE>
-20.9274

>  <SCORE.INTER>
-15.8927

>  <SCORE.INTER.CONST>
1

>  <SCORE.INTER.POLAR>
-2.41026

>  <SCORE.INTER.ROT>
12

>  <SCORE.INTER.SOLV>
13.14

>  <SCORE.INTER.VDW>
-18.5409

>  <SCORE.INTER.norm>
-0.305628

>  <SCORE.INTRA>
-5.03476

>  <SCORE.INTRA.DIHEDRAL>
-12.8204

>  <SCORE.INTRA.DIHEDRAL.0>
23.9727

>  <SCORE.INTRA.POLAR>
0

>  <SCORE.INTRA.POLAR.0>
0

>  <SCORE.INTRA.REPUL>
0

>  <SCORE.INTRA.REPUL.0>
0

>  <SCORE.INTRA.SOLV>
-0.847241

>  <SCORE.INTRA.SOLV.lig_0>
-115.028

>  <SCORE.INTRA.VDW>
1.79908

>  <SCORE.INTRA.VDW.0>
-6.82393

>  <SCORE.INTRA.norm>
-0.0968223

>  <SCORE.RESTR>
0

>  <SCORE.RESTR.CAVITY>
0

>  <SCORE.RESTR.norm>
0

>  <SCORE.SYSTEM>
0

>  <SCORE.SYSTEM.CONST>
0

>  <SCORE.SYSTEM.DIHEDRAL>
0

>  <SCORE.SYSTEM.SOLV>
0

>  <SCORE.SYSTEM.norm>
0

>  <SCORE.heavy>
52

>  <SCORE.norm>
-0.40245

>  <RMSD>
11.956

$$$$
2fd0_lig
 OpenBabel11021811433D
libRbt.so/2013.1/901 2013/11/27
 52 56  0  0  0  0  0  0  0  0999 V2000
   -2.1407  -52.6717    6.1421 C   0  0  2  0  0  0  0  0  0  0  0  0
   -1.8551  -51.2785    6.3276 O   0  0  0  0  0  0  0  0  0  0  0  0
   -4.6287  -47.9334    6.4266 C   0  0  2  0  0  0  0  0  0  0  0  0
   -5.6445  -46.9740    6.8900 N   0  0  0  0  0  0  0  0  0  0  0  0
    0.0172  -48.0796    7.5065 C   0  0  1  0  0  0  0  0  0  0  0  0
    2.9975  -45.9498    9.8510 C   0  0  1  0  0  0  0  0  0  0  0  0
    5.6903  -48.2924   13.2900 C   0  0  1  0  0  0  0  0  0  0  0  0
   -0.8205  -53.4896    6.3866 C   0  0  2  0  0  0  0  0  0  0  0  0
   -0.2629  -53.2373    7.7080 N   0  0  0  0  0  0  0  0  0  0  0  0
   -5.2023  -49.4168    6.4861 C   0  0  0  0  0  0  0  0  0  0  0  0
    0.5769  -47.7081    8.8675 C   0  0  2  0  0  0  0  0  0  0  0  0
    0.0739  -46.4266    9.3395 O   0  0  0  0  0  0  0  0  0  0  0  0
    4.5133  -46.3518   10.1680 C   0  0  2  0  0  0  0  0  0  0  0  0
    4.6915  -47.8267   10.0782 N   0  0  0  0  0  0  0  0  0  0  0  0
    5.0499  -49.2475   14.3223 C   0  0  1  0  0  0  0  0  0  0  0  0
    4.3517  -50.3042   13.6181 O   0  0  0  0  0  0  0  0  0  0  0  0
    0.2292  -53.1865    5.2540 C   0  0  0  0  0  0  0  0  0  0  0  0
   -4.0985  -50.4584    5.9705 C   0  0  2  0  0  0  0  0  0  0  0  0
   -4.6030  -51.8387    6.0180 N   0  0  0  0  0  0  0  0  0  0  0  0
    2.0785  -47.7982    8.6536 C   0  0  2  0  0  0  0  0  0  0  0  0
    2.6692  -46.5274    8.6213 O   0  0  0  0  0  0  0  0  0  0  0  0
    4.9001  -45.6892   11.5901 C   0  0  1  0  0  0  0  0  0  0  0  0
    4.6807  -44.2702   11.4932 O   0  0  0  0  0  0  0  0  0  0  0  0
    5.9904  -49.9048   15.3684 C   0  0  1  0  0  0  0  0  0  0  0  0
    6.4050  -51.1760   14.8522 O   0  0  0  0  0  0  0  0  0  0  0  0
   -0.4328  -53.4875    3.8699 C   0  0  2  0  0  0  0  0  0  0  0  0
    0.4935  -53.2426    2.8162 O   0  0  0  0  0  0  0  0  0  0  0  0
   -2.8229  -50.3250    6.8485 C   0  0  2  0  0  0  0  0  0  0  0  0
    2.3441  -48.4066    7.2559 C   0  0  2  0  0  0  0  0  0  0  0  0
    1.0429  -48.7901    6.8349 O   0  0  0  0  0  0  0  0  0  0  0  0
    3.9457  -46.2212   12.7819 C   0  0  2  0  0  0  0  0  0  0  0  0
    4.2108  -47.6348   12.8530 O   0  0  0  0  0  0  0  0  0  0  0  0
    7.2468  -49.0924   15.7585 C   0  0  2  0  0  0  0  0  0  0  0  0
    7.3877  -49.2510   17.1873 O   0  0  0  0  0  0  0  0  0  0  0  0
   -1.6893  -52.5882    3.6907 C   0  0  2  0  0  0  0  0  0  0  0  0
   -2.6306  -52.8850    4.7931 O   0  0  0  0  0  0  0  0  0  0  0  0
   -2.2537  -48.8736    6.8697 C   0  0  2  0  0  0  0  0  0  0  0  0
   -1.1037  -48.8695    7.7491 O   0  0  0  0  0  0  0  0  0  0  0  0
    3.2345  -49.6442    7.2477 C   0  0  0  0  0  0  0  0  0  0  0  0
    4.3802  -49.3436    8.0590 O   0  0  0  0  0  0  0  0  0  0  0  0
    2.5251  -46.0204   12.2890 C   0  0  1  0  0  0  0  0  0  0  0  0
    2.0500  -46.3965   10.9794 O   0  0  0  0  0  0  0  0  0  0  0  0
    7.1182  -47.6375   15.3155 C   0  0  2  0  0  0  0  0  0  0  0  0
    6.7541  -47.4559   13.9191 O   0  0  0  0  0  0  0  0  0  0  0  0
   -2.3913  -52.8539    2.3970 C   0  0  0  0  0  0  0  0  0  0  0  0
   -2.8583  -54.1757    2.4204 O   0  0  0  0  0  0  0  0  0  0  0  0
   -3.3567  -47.8678    7.3641 C   0  0  1  0  0  0  0  0  0  0  0  0
   -2.8019  -46.5078    7.3214 O   0  0  0  0  0  0  0  0  0  0  0  0
    1.4401  -46.5269   13.3042 C   0  0  0  0  0  0  0  0  0  0  0  0
    1.4043  -45.7556   14.5704 N   0  0  0  0  0  0  0  0  0  0  0  0
    8.2242  -46.6149   15.5665 C   0  0  0  0  0  0  0  0  0  0  0  0
    8.4798  -46.4840   16.9989 O   0  0  0  0  0  0  0  0  0  0  0  0
  1  2  1  6  0  0  0
  1  8  1  0  0  0  0
  1 36  1  0  0  0  0
  3  4  1  1  0  0  0
  3 10  1  0  0  0  0
  3 47  1  0  0  0  0
  5 11  1  0  0  0  0
  5 30  1  0  0  0  0
  5 38  1  1  0  0  0
  6 21  1  6  0  0  0
  6 42  1  0  0  0  0
  7 15  1  0  0  0  0
  7 44  1  0  0  0  0
  7 32  1  1  0  0  0
  8  9  1  1  0  0  0
  8 17  1  0  0  0  0
 11 12  1  6  0  0  0
 11 20  1  0  0  0  0
 13  6  1  0  0  0  0
 13 14  1  1  0  0  0
 15 16  1  6  0  0  0
 15 24  1  0  0  0  0
 17 26  1  0  0  0  0
 18 10  1  0  0  0  0
 18 19  1  1  0  0  0
 20 21  1  6  0  0  0
 20 29  1  0  0  0  0
 22 13  1  0  0  0  0
 22 23  1  6  0  0  0
 24 25  1  6  0  0  0
 24 33  1  0  0  0  0
 26 27  1  6  0  0  0
 26 35  1  0  0  0  0
 28  2  1  6  0  0  0
 28 18  1  0  0  0  0
 29 30  1  0  0  0  0
 29 39  1  1  0  0  0
 31 22  1  0  0  0  0
 31 32  1  6  0  0  0
 31 41  1  0  0  0  0
 33 34  1  1  0  0  0
 33 43  1  0  0  0  0
 35 36  1  0  0  0  0
 35 45  1  6  0  0  0
 37 28  1  0  0  0  0
 37 38  1  1  0  0  0
 39 40  1  0  0  0  0
 41 42  1  0  0  0  0
 41 49  1  1  0  0  0
 43 44  1  0  0  0  0
 43 51  1  6  0  0  0
 45 46  1  0  0  0  0
 47 37  1  0  0  0  0
 47 48  1  6  0  0  0
 49 50  1  0  0  0  0
 51 52  1  0  0  0  0
M  END
>  <CHROM.1>
-147.65792456,148.12604049,92.29144409,130.28958867,84.31642875,-53.28513211
-47.93445883,64.90520433,63.41912908,144.82145413,65.87940453,-59.95980594
1.49648960,-49.02003701,9.40846582,-2.48120157,-0.60868750,0.55229806

>  <Name>
2fd0_lig

>  <RI>
2.00683e+07

>  <Rbt.Current_Directory>
/home/itssahil/PROJECTS/Mol_Feturizer/New_Systems/rnas/2fd0

>  <Rbt.Executable>
rbdock ($Id: //depot/dev/client3/rdock/2013.1/src/exe/rbdock.cxx#4 $)

>  <Rbt.Library>
libRbt.so (2013.1, Build901 2013/11/27)

>  <Rbt.Parameter_File>
/export/apps/rDock/src/rDock_2013.1_src/data/scripts/dock_solv.prm

>  <Rbt.Receptor>
prm/pocket_docking_4.prm

>  <SCORE>
-2.39994

>  <SCORE.INTER>
-10.6887

>  <SCORE.INTER.CONST>
1

>  <SCORE.INTER.POLAR>
-2.13338

>  <SCORE.INTER.ROT>
12

>  <SCORE.INTER.SOLV>
10.1674

>  <SCORE.INTER.VDW>
-15.0037

>  <SCORE.INTER.norm>
-0.205553

>  <SCORE.INTRA>
8.28879

>  <SCORE.INTRA.DIHEDRAL>
4.31178

>  <SCORE.INTRA.DIHEDRAL.0>
23.9727

>  <SCORE.INTRA.POLAR>
0

>  <SCORE.INTRA.POLAR.0>
0

>  <SCORE.INTRA.REPUL>
0.377398

>  <SCORE.INTRA.REPUL.0>
0

>  <SCORE.INTRA.SOLV>
1.23311

>  <SCORE.INTRA.SOLV.lig_0>
-115.028

>  <SCORE.INTRA.VDW>
3.62936

>  <SCORE.INTRA.VDW.0>
-6.82393

>  <SCORE.INTRA.norm>
0.1594

>  <SCORE.RESTR>
0

>  <SCORE.RESTR.CAVITY>
0

>  <SCORE.RESTR.norm>
0

>  <SCORE.SYSTEM>
0

>  <SCORE.SYSTEM.CONST>
0

>  <SCORE.SYSTEM.DIHEDRAL>
0

>  <SCORE.SYSTEM.SOLV>
0

>  <SCORE.SYSTEM.norm>
0

>  <SCORE.heavy>
52

>  <SCORE.norm>
-0.0461527

>  <RMSD>
11.986

$$$$
2fd0_lig
 OpenBabel11021811433D
libRbt.so/2013.1/901 2013/11/27
 52 56  0  0  0  0  0  0  0  0999 V2000
    0.3413  -49.3369    7.6490 C   0  0  2  0  0  0  0  0  0  0  0  0
    0.0466  -49.4061    9.0509 O   0  0  0  0  0  0  0  0  0  0  0  0
   -2.5901  -46.0049    9.6611 C   0  0  2  0  0  0  0  0  0  0  0  0
   -3.5216  -45.0545   10.2905 N   0  0  0  0  0  0  0  0  0  0  0  0
    1.0579  -47.6045   11.8543 C   0  0  1  0  0  0  0  0  0  0  0  0
    4.0494  -48.7819   14.5759 C   0  0  1  0  0  0  0  0  0  0  0  0
    6.9728  -49.0414   18.6713 C   0  0  1  0  0  0  0  0  0  0  0  0
    1.3733  -50.4698    7.2986 C   0  0  2  0  0  0  0  0  0  0  0  0
    0.8780  -51.7883    7.6685 N   0  0  0  0  0  0  0  0  0  0  0  0
   -3.2039  -47.4732    9.6785 C   0  0  0  0  0  0  0  0  0  0  0  0
    2.5245  -47.6560   12.2416 C   0  0  2  0  0  0  0  0  0  0  0  0
    3.1136  -48.9644   11.9980 O   0  0  0  0  0  0  0  0  0  0  0  0
    4.1884  -49.6617   15.9049 C   0  0  2  0  0  0  0  0  0  0  0  0
    3.8155  -48.8603   17.1024 N   0  0  0  0  0  0  0  0  0  0  0  0
    8.4951  -48.9130   18.4388 C   0  0  1  0  0  0  0  0  0  0  0  0
    8.8652  -47.5132   18.4977 O   0  0  0  0  0  0  0  0  0  0  0  0
    2.7644  -50.1707    7.9709 C   0  0  0  0  0  0  0  0  0  0  0  0
   -2.1928  -48.5043    8.9828 C   0  0  2  0  0  0  0  0  0  0  0  0
   -2.7356  -49.8707    8.9881 N   0  0  0  0  0  0  0  0  0  0  0  0
    2.5108  -47.1887   13.6873 C   0  0  2  0  0  0  0  0  0  0  0  0
    2.7576  -48.2482   14.5713 O   0  0  0  0  0  0  0  0  0  0  0  0
    5.6809  -50.2808   15.9189 C   0  0  1  0  0  0  0  0  0  0  0  0
    5.8630  -51.0282   14.7026 O   0  0  0  0  0  0  0  0  0  0  0  0
    9.4333  -49.7004   19.3932 C   0  0  1  0  0  0  0  0  0  0  0  0
    9.7977  -48.8296   20.4717 O   0  0  0  0  0  0  0  0  0  0  0  0
    3.2369  -48.7490    7.5232 C   0  0  2  0  0  0  0  0  0  0  0  0
    4.5046  -48.4468    8.0974 O   0  0  0  0  0  0  0  0  0  0  0  0
   -0.8316  -48.4669    9.7320 C   0  0  2  0  0  0  0  0  0  0  0  0
    1.0869  -46.6920   14.0340 C   0  0  2  0  0  0  0  0  0  0  0  0
    0.4345  -46.7237   12.7727 O   0  0  0  0  0  0  0  0  0  0  0  0
    6.8122  -49.1257   15.9219 C   0  0  2  0  0  0  0  0  0  0  0  0
    6.6028  -48.4186   17.1588 O   0  0  0  0  0  0  0  0  0  0  0  0
    8.8601  -51.0098   19.9827 C   0  0  2  0  0  0  0  0  0  0  0  0
    9.9438  -51.9640   19.9442 O   0  0  0  0  0  0  0  0  0  0  0  0
    2.1874  -47.6908    7.9689 C   0  0  2  0  0  0  0  0  0  0  0  0
    0.8924  -48.0309    7.3391 O   0  0  0  0  0  0  0  0  0  0  0  0
   -0.2152  -47.0360    9.7930 C   0  0  2  0  0  0  0  0  0  0  0  0
    1.0171  -47.1244   10.5479 O   0  0  0  0  0  0  0  0  0  0  0  0
    1.0124  -45.2691   14.5764 C   0  0  0  0  0  0  0  0  0  0  0  0
    1.7097  -45.2601   15.8313 O   0  0  0  0  0  0  0  0  0  0  0  0
    6.4572  -48.2024   14.7717 C   0  0  1  0  0  0  0  0  0  0  0  0
    5.1339  -47.6911   14.5081 O   0  0  0  0  0  0  0  0  0  0  0  0
    7.6215  -51.4612   19.2133 C   0  0  2  0  0  0  0  0  0  0  0  0
    6.6019  -50.4376   19.0456 O   0  0  0  0  0  0  0  0  0  0  0  0
    2.5642  -46.3090    7.5380 C   0  0  0  0  0  0  0  0  0  0  0  0
    2.4787  -46.2521    6.1398 O   0  0  0  0  0  0  0  0  0  0  0  0
   -1.2287  -46.0393   10.4652 C   0  0  1  0  0  0  0  0  0  0  0  0
   -0.6360  -44.6946   10.4581 O   0  0  0  0  0  0  0  0  0  0  0  0
    7.4285  -46.9761   14.6398 C   0  0  0  0  0  0  0  0  0  0  0  0
    7.1506  -46.1215   13.4601 N   0  0  0  0  0  0  0  0  0  0  0  0
    6.8492  -52.7228   19.5926 C   0  0  0  0  0  0  0  0  0  0  0  0
    6.3514  -52.6214   20.9624 O   0  0  0  0  0  0  0  0  0  0  0  0
  1  2  1  1  0  0  0
  1  8  1  0  0  0  0
  1 36  1  0  0  0  0
  3  4  1  1  0  0  0
  3 10  1  0  0  0  0
  3 47  1  0  0  0  0
  5 11  1  0  0  0  0
  5 30  1  0  0  0  0
  5 38  1  6  0  0  0
  6 21  1  1  0  0  0
  6 42  1  0  0  0  0
  7 15  1  0  0  0  0
  7 44  1  0  0  0  0
  7 32  1  6  0  0  0
  8  9  1  1  0  0  0
  8 17  1  0  0  0  0
 11 12  1  1  0  0  0
 11 20  1  0  0  0  0
 13  6  1  0  0  0  0
 13 14  1  1  0  0  0
 15 16  1  1  0  0  0
 15 24  1  0  0  0  0
 17 26  1  0  0  0  0
 18 10  1  0  0  0  0
 18 19  1  1  0  0  0
 20 21  1  1  0  0  0
 20 29  1  0  0  0  0
 22 13  1  0  0  0  0
 22 23  1  6  0  0  0
 24 25  1  1  0  0  0
 24 33  1  0  0  0  0
 26 27  1  1  0  0  0
 26 35  1  0  0  0  0
 28  2  1  6  0  0  0
 28 18  1  0  0  0  0
 29 30  1  0  0  0  0
 29 39  1  6  0  0  0
 31 22  1  0  0  0  0
 31 32  1  1  0  0  0
 31 41  1  0  0  0  0
 33 34  1  6  0  0  0
 33 43  1  0  0  0  0
 35 36  1  0  0  0  0
 35 45  1  6  0  0  0
 37 28  1  0  0  0  0
 37 38  1  1  0  0  0
 39 40  1  0  0  0  0
 41 42  1  0  0  0  0
 41 49  1  1  0  0  0
 43 44  1  0  0  0  0
 43 51  1  1  0  0  0
 45 46  1  0  0  0  0
 47 37  1  0  0  0  0
 47 48  1  6  0  0  0
 49 50  1  0  0  0  0
 51 52  1  0  0  0  0
M  END
>  <CHROM.1>
177.31221708,175.00943177,164.69170846,71.67652976,69.64605404,55.90429556
-64.44806466,71.85451575,67.76921574,-57.80985670,175.78741430,59.73477678
3.39445540,-48.45363324,13.25546251,-2.36472580,-0.53756223,1.31844012

>  <Name>
2fd0_lig

>  <RI>
0

>  <Rbt.Current_Directory>
/home/itssahil/PROJECTS/Mol_Feturizer/New_Systems/rnas/2fd0

>  <Rbt.Executable>
rbdock ($Id: //depot/dev/client3/rdock/2013.1/src/exe/rbdock.cxx#4 $)

>  <Rbt.Library>
libRbt.so (2013.1, Build901 2013/11/27)

>  <Rbt.Parameter_File>
/export/apps/rDock/src/rDock_2013.1_src/data/scripts/dock_solv.prm

>  <Rbt.Receptor>
prm/pocket_docking_6.prm

>  <SCORE>
-22.7369

>  <SCORE.INTER>
-12.9573

>  <SCORE.INTER.CONST>
1

>  <SCORE.INTER.POLAR>
-1.58077

>  <SCORE.INTER.ROT>
12

>  <SCORE.INTER.SOLV>
9.52563

>  <SCORE.INTER.VDW>
-18.1442

>  <SCORE.INTER.norm>
-0.249179

>  <SCORE.INTRA>
-9.77953

>  <SCORE.INTRA.DIHEDRAL>
-18.8071

>  <SCORE.INTRA.DIHEDRAL.0>
23.9727

>  <SCORE.INTRA.POLAR>
0

>  <SCORE.INTRA.POLAR.0>
0

>  <SCORE.INTRA.REPUL>
0

>  <SCORE.INTRA.REPUL.0>
0

>  <SCORE.INTRA.SOLV>
-3.3567

>  <SCORE.INTRA.SOLV.lig_0>
-115.028

>  <SCORE.INTRA.VDW>
1.30234

>  <SCORE.INTRA.VDW.0>
-6.82393

>  <SCORE.INTRA.norm>
-0.188068

>  <SCORE.RESTR>
0

>  <SCORE.RESTR.CAVITY>
0

>  <SCORE.RESTR.norm>
0

>  <SCORE.SYSTEM>
0

>  <SCORE.SYSTEM.CONST>
0

>  <SCORE.SYSTEM.DIHEDRAL>
0

>  <SCORE.SYSTEM.SOLV>
0

>  <SCORE.SYSTEM.norm>
0

>  <SCORE.heavy>
52

>  <SCORE.norm>
-0.437247

>  <RMSD>
12.004

$$$$
2fd0_lig
 OpenBabel11021811433D
libRbt.so/2013.1/901 2013/11/27
 52 56  0  0  0  0  0  0  0  0999 V2000
   -0.0394  -55.1239    3.3152 C   0  0  2  0  0  0  0  0  0  0  0  0
    1.0757  -54.6595    4.0885 O   0  0  0  0  0  0  0  0  0  0  0  0
    0.2609  -56.2508    8.0504 C   0  0  2  0  0  0  0  0  0  0  0  0
    0.3832  -56.5581    9.4848 N   0  0  0  0  0  0  0  0  0  0  0  0
    0.9819  -52.0668    6.4494 C   0  0  1  0  0  0  0  0  0  0  0  0
    2.0589  -49.8134    9.8215 C   0  0  1  0  0  0  0  0  0  0  0  0
    3.8571  -50.1289   14.4114 C   0  0  1  0  0  0  0  0  0  0  0  0
    0.2584  -54.8528    1.7956 C   0  0  2  0  0  0  0  0  0  0  0  0
    1.4980  -55.4841    1.3647 N   0  0  0  0  0  0  0  0  0  0  0  0
    1.5535  -56.7489    7.2667 C   0  0  0  0  0  0  0  0  0  0  0  0
    0.7944  -51.7481    7.9214 C   0  0  2  0  0  0  0  0  0  0  0  0
    0.0476  -50.5161    8.1281 O   0  0  0  0  0  0  0  0  0  0  0  0
    3.0024  -48.5828   10.2152 C   0  0  2  0  0  0  0  0  0  0  0  0
    4.3961  -49.0487   10.4515 N   0  0  0  0  0  0  0  0  0  0  0  0
    3.5034  -49.0435   15.4529 C   0  0  1  0  0  0  0  0  0  0  0  0
    2.0635  -48.8875   15.5017 O   0  0  0  0  0  0  0  0  0  0  0  0
    0.2728  -53.3058    1.5077 C   0  0  0  0  0  0  0  0  0  0  0  0
    1.4132  -56.4231    5.7036 C   0  0  2  0  0  0  0  0  0  0  0  0
    2.5973  -56.8715    4.9560 N   0  0  0  0  0  0  0  0  0  0  0  0
    2.2163  -51.7646    8.4566 C   0  0  2  0  0  0  0  0  0  0  0  0
    2.6693  -50.4709    8.7496 O   0  0  0  0  0  0  0  0  0  0  0  0
    2.3044  -47.8183   11.4559 C   0  0  1  0  0  0  0  0  0  0  0  0
    0.9792  -47.4311   11.0500 O   0  0  0  0  0  0  0  0  0  0  0  0
    4.0154  -49.2508   16.9040 C   0  0  1  0  0  0  0  0  0  0  0  0
    2.9842  -49.9152   17.6453 O   0  0  0  0  0  0  0  0  0  0  0  0
   -1.0868  -52.6991    1.9853 C   0  0  2  0  0  0  0  0  0  0  0  0
   -1.1211  -51.2993    1.7249 O   0  0  0  0  0  0  0  0  0  0  0  0
    1.2116  -54.8932    5.5181 C   0  0  2  0  0  0  0  0  0  0  0  0
    3.1583  -52.2840    7.3442 C   0  0  2  0  0  0  0  0  0  0  0  0
    2.2462  -52.6966    6.3366 O   0  0  0  0  0  0  0  0  0  0  0  0
    2.1272  -48.7875   12.7379 C   0  0  2  0  0  0  0  0  0  0  0  0
    3.4725  -49.1338   13.1174 O   0  0  0  0  0  0  0  0  0  0  0  0
    5.3300  -50.0509   17.0534 C   0  0  2  0  0  0  0  0  0  0  0  0
    6.0891  -49.3695   18.0760 O   0  0  0  0  0  0  0  0  0  0  0  0
   -1.2629  -52.9592    3.5088 C   0  0  2  0  0  0  0  0  0  0  0  0
   -1.2382  -54.4216    3.7334 O   0  0  0  0  0  0  0  0  0  0  0  0
   -0.0114  -54.3445    6.3145 C   0  0  2  0  0  0  0  0  0  0  0  0
   -0.0659  -52.9140    6.0981 O   0  0  0  0  0  0  0  0  0  0  0  0
    4.0183  -53.4817    7.7318 C   0  0  0  0  0  0  0  0  0  0  0  0
    4.9420  -53.7025    6.6552 O   0  0  0  0  0  0  0  0  0  0  0  0
    1.4366  -50.0336   12.2165 C   0  0  1  0  0  0  0  0  0  0  0  0
    1.8221  -50.7468   11.0228 O   0  0  0  0  0  0  0  0  0  0  0  0
    6.0619  -50.1569   15.7183 C   0  0  2  0  0  0  0  0  0  0  0  0
    5.2465  -50.6349   14.6128 O   0  0  0  0  0  0  0  0  0  0  0  0
   -2.5653  -52.4329    4.0224 C   0  0  0  0  0  0  0  0  0  0  0  0
   -2.5300  -51.0336    3.9412 O   0  0  0  0  0  0  0  0  0  0  0  0
    0.1401  -54.6877    7.8415 C   0  0  1  0  0  0  0  0  0  0  0  0
   -1.0521  -54.2022    8.5502 O   0  0  0  0  0  0  0  0  0  0  0  0
    1.2158  -51.1270   13.3210 C   0  0  0  0  0  0  0  0  0  0  0  0
    0.9588  -52.4814   12.7741 N   0  0  0  0  0  0  0  0  0  0  0  0
    7.3856  -50.9055   15.5789 C   0  0  0  0  0  0  0  0  0  0  0  0
    7.1577  -52.3485   15.5966 O   0  0  0  0  0  0  0  0  0  0  0  0
  1  2  1  1  0  0  0
  1  8  1  0  0  0  0
  1 36  1  0  0  0  0
  3  4  1  1  0  0  0
  3 10  1  0  0  0  0
  3 47  1  0  0  0  0
  5 11  1  0  0  0  0
  5 30  1  0  0  0  0
  5 38  1  1  0  0  0
  6 21  1  6  0  0  0
  6 42  1  0  0  0  0
  7 15  1  0  0  0  0
  7 44  1  0  0  0  0
  7 32  1  6  0  0  0
  8  9  1  1  0  0  0
  8 17  1  0  0  0  0
 11 12  1  6  0  0  0
 11 20  1  0  0  0  0
 13  6  1  0  0  0  0
 13 14  1  1  0  0  0
 15 16  1  1  0  0  0
 15 24  1  0  0  0  0
 17 26  1  0  0  0  0
 18 10  1  0  0  0  0
 18 19  1  6  0  0  0
 20 21  1  6  0  0  0
 20 29  1  0  0  0  0
 22 13  1  0  0  0  0
 22 23  1  6  0  0  0
 24 25  1  1  0  0  0
 24 33  1  0  0  0  0
 26 27  1  1  0  0  0
 26 35  1  0  0  0  0
 28  2  1  6  0  0  0
 28 18  1  0  0  0  0
 29 30  1  0  0  0  0
 29 39  1  1  0  0  0
 31 22  1  0  0  0  0
 31 32  1  6  0  0  0
 31 41  1  0  0  0  0
 33 34  1  1  0  0  0
 33 43  1  0  0  0  0
 35 36  1  0  0  0  0
 35 45  1  6  0  0  0
 37 28  1  0  0  0  0
 37 38  1  1  0  0  0
 39 40  1  0  0  0  0
 41 42  1  0  0  0  0
 41 49  1  1  0  0  0
 43 44  1  0  0  0  0
 43 51  1  1  0  0  0
 45 46  1  0  0  0  0
 47 37  1  0  0  0  0
 47 48  1  1  0  0  0
 49 50  1  0  0  0  0
 51 52  1  0  0  0  0
M  END
>  <CHROM.1>
-172.48164173,-84.17451354,163.98054634,-73.59838357,68.08226567,67.05394443
-172.33699928,179.76754951,-67.10359829,-59.54742812,-161.33812865,75.35957132
1.89353474,-52.02091588,9.12926978,-2.14955757,-0.91598487,0.73642540

>  <Name>
2fd0_lig

>  <RI>
3.4301e+07

>  <Rbt.Current_Directory>
/home/itssahil/PROJECTS/Mol_Feturizer/New_Systems/rnas/2fd0

>  <Rbt.Executable>
rbdock ($Id: //depot/dev/client3/rdock/2013.1/src/exe/rbdock.cxx#4 $)

>  <Rbt.Library>
libRbt.so (2013.1, Build901 2013/11/27)

>  <Rbt.Parameter_File>
/export/apps/rDock/src/rDock_2013.1_src/data/scripts/dock_solv.prm

>  <Rbt.Receptor>
prm/pocket_docking_7.prm

>  <SCORE>
-22.5859

>  <SCORE.INTER>
-18.0143

>  <SCORE.INTER.CONST>
1

>  <SCORE.INTER.POLAR>
-2.66175

>  <SCORE.INTER.ROT>
12

>  <SCORE.INTER.SOLV>
20.327

>  <SCORE.INTER.VDW>
-21.5127

>  <SCORE.INTER.norm>
-0.346428

>  <SCORE.INTRA>
-4.60699

>  <SCORE.INTRA.DIHEDRAL>
-15.0798

>  <SCORE.INTRA.DIHEDRAL.0>
23.9727

>  <SCORE.INTRA.POLAR>
0

>  <SCORE.INTRA.POLAR.0>
0

>  <SCORE.INTRA.REPUL>
0

>  <SCORE.INTRA.REPUL.0>
0

>  <SCORE.INTRA.SOLV>
-1.96596

>  <SCORE.INTRA.SOLV.lig_0>
-115.028

>  <SCORE.INTRA.VDW>
3.9159

>  <SCORE.INTRA.VDW.0>
-6.82393

>  <SCORE.INTRA.norm>
-0.0885959

>  <SCORE.RESTR>
0.0353237

>  <SCORE.RESTR.CAVITY>
0.0353237

>  <SCORE.RESTR.norm>
0.000679303

>  <SCORE.SYSTEM>
0

>  <SCORE.SYSTEM.CONST>
0

>  <SCORE.SYSTEM.DIHEDRAL>
0

>  <SCORE.SYSTEM.SOLV>
0

>  <SCORE.SYSTEM.norm>
0

>  <SCORE.heavy>
52

>  <SCORE.norm>
-0.434345

>  <RMSD>
12.007

$$$$
2fd0_lig
 OpenBabel11021811433D
libRbt.so/2013.1/901 2013/11/27
 52 56  0  0  0  0  0  0  0  0999 V2000
   -1.7619  -52.5449    5.6688 C   0  0  2  0  0  0  0  0  0  0  0  0
   -1.4209  -51.1533    5.6030 O   0  0  0  0  0  0  0  0  0  0  0  0
   -3.1853  -47.6823    3.6714 C   0  0  2  0  0  0  0  0  0  0  0  0
   -4.1444  -46.6329    3.2894 N   0  0  0  0  0  0  0  0  0  0  0  0
   -1.0167  -47.5437    7.6918 C   0  0  1  0  0  0  0  0  0  0  0  0
    1.4249  -46.7370   11.2036 C   0  0  1  0  0  0  0  0  0  0  0  0
    6.1928  -46.2485   12.6955 C   0  0  1  0  0  0  0  0  0  0  0  0
   -0.9158  -53.2135    6.8127 C   0  0  2  0  0  0  0  0  0  0  0  0
   -1.1255  -52.5583    8.0962 N   0  0  0  0  0  0  0  0  0  0  0  0
   -3.8004  -49.1224    3.3874 C   0  0  0  0  0  0  0  0  0  0  0  0
   -0.2478  -48.0732    8.8885 C   0  0  2  0  0  0  0  0  0  0  0  0
   -1.0467  -48.0648   10.1049 O   0  0  0  0  0  0  0  0  0  0  0  0
    1.7094  -45.4411   12.0975 C   0  0  2  0  0  0  0  0  0  0  0  0
    2.6152  -44.5019   11.3814 N   0  0  0  0  0  0  0  0  0  0  0  0
    6.4983  -45.9476   14.1800 C   0  0  1  0  0  0  0  0  0  0  0  0
    5.9628  -47.0169   14.9984 O   0  0  0  0  0  0  0  0  0  0  0  0
    0.6088  -53.2376    6.4237 C   0  0  0  0  0  0  0  0  0  0  0  0
   -2.7500  -50.2631    3.7937 C   0  0  2  0  0  0  0  0  0  0  0  0
   -3.2955  -51.6053    3.5433 N   0  0  0  0  0  0  0  0  0  0  0  0
    0.9990  -47.2049    8.9026 C   0  0  2  0  0  0  0  0  0  0  0  0
    0.9721  -46.2858    9.9605 O   0  0  0  0  0  0  0  0  0  0  0  0
    2.2356  -45.9544   13.5364 C   0  0  1  0  0  0  0  0  0  0  0  0
    1.2384  -46.8347   14.0856 O   0  0  0  0  0  0  0  0  0  0  0  0
    7.9848  -45.7358   14.5757 C   0  0  1  0  0  0  0  0  0  0  0  0
    8.5120  -46.9982   15.0031 O   0  0  0  0  0  0  0  0  0  0  0  0
    0.7584  -53.9610    5.0456 C   0  0  2  0  0  0  0  0  0  0  0  0
    2.1296  -54.0200    4.6655 O   0  0  0  0  0  0  0  0  0  0  0  0
   -2.3838  -50.1065    5.2960 C   0  0  2  0  0  0  0  0  0  0  0  0
    1.0185  -46.3451    7.6162 C   0  0  2  0  0  0  0  0  0  0  0  0
   -0.0710  -46.8755    6.8751 O   0  0  0  0  0  0  0  0  0  0  0  0
    3.5934  -46.8226   13.4065 C   0  0  2  0  0  0  0  0  0  0  0  0
    4.5618  -45.9005   12.8720 O   0  0  0  0  0  0  0  0  0  0  0  0
    8.9056  -45.1586   13.4759 C   0  0  2  0  0  0  0  0  0  0  0  0
    9.7567  -44.1997   14.1410 O   0  0  0  0  0  0  0  0  0  0  0  0
   -0.0580  -53.1933    3.9669 C   0  0  2  0  0  0  0  0  0  0  0  0
   -1.4755  -53.1693    4.3908 O   0  0  0  0  0  0  0  0  0  0  0  0
   -1.8292  -48.6899    5.6378 C   0  0  2  0  0  0  0  0  0  0  0  0
   -1.5698  -48.6556    7.0617 O   0  0  0  0  0  0  0  0  0  0  0  0
    2.2808  -46.4739    6.7711 C   0  0  0  0  0  0  0  0  0  0  0  0
    3.3825  -46.0629    7.5949 O   0  0  0  0  0  0  0  0  0  0  0  0
    3.3039  -47.8805   12.3584 C   0  0  1  0  0  0  0  0  0  0  0  0
    2.6782  -47.6233   11.0839 O   0  0  0  0  0  0  0  0  0  0  0  0
    8.0876  -44.5605   12.3344 C   0  0  2  0  0  0  0  0  0  0  0  0
    7.0637  -45.4401   11.7927 O   0  0  0  0  0  0  0  0  0  0  0  0
    0.0148  -53.8569    2.6284 C   0  0  0  0  0  0  0  0  0  0  0  0
    1.2713  -53.5768    2.0731 O   0  0  0  0  0  0  0  0  0  0  0  0
   -2.8685  -47.5871    5.2179 C   0  0  1  0  0  0  0  0  0  0  0  0
   -2.2913  -46.2669    5.5066 O   0  0  0  0  0  0  0  0  0  0  0  0
    4.5354  -48.8060   12.0563 C   0  0  0  0  0  0  0  0  0  0  0  0
    4.3789  -49.6220   10.8279 N   0  0  0  0  0  0  0  0  0  0  0  0
    8.7480  -43.9301   11.1103 C   0  0  0  0  0  0  0  0  0  0  0  0
    7.7435  -43.2910   10.2635 O   0  0  0  0  0  0  0  0  0  0  0  0
  1  2  1  6  0  0  0
  1  8  1  0  0  0  0
  1 36  1  0  0  0  0
  3  4  1  1  0  0  0
  3 10  1  0  0  0  0
  3 47  1  0  0  0  0
  5 11  1  0  0  0  0
  5 30  1  0  0  0  0
  5 38  1  6  0  0  0
  6 21  1  6  0  0  0
  6 42  1  0  0  0  0
  7 15  1  0  0  0  0
  7 44  1  0  0  0  0
  7 32  1  6  0  0  0
  8  9  1  1  0  0  0
  8 17  1  0  0  0  0
 11 12  1  1  0  0  0
 11 20  1  0  0  0  0
 13  6  1  0  0  0  0
 13 14  1  6  0  0  0
 15 16  1  1  0  0  0
 15 24  1  0  0  0  0
 17 26  1  0  0  0  0
 18 10  1  0  0  0  0
 18 19  1  1  0  0  0
 20 21  1  1  0  0  0
 20 29  1  0  0  0  0
 22 13  1  0  0  0  0
 22 23  1  6  0  0  0
 24 25  1  6  0  0  0
 24 33  1  0  0  0  0
 26 27  1  6  0  0  0
 26 35  1  0  0  0  0
 28  2  1  6  0  0  0
 28 18  1  0  0  0  0
 29 30  1  0  0  0  0
 29 39  1  6  0  0  0
 31 22  1  0  0  0  0
 31 32  1  6  0  0  0
 31 41  1  0  0  0  0
 33 34  1  1  0  0  0
 33 43  1  0  0  0  0
 35 36  1  0  0  0  0
 35 45  1  6  0  0  0
 37 28  1  0  0  0  0
 37 38  1  1  0  0  0
 39 40  1  0  0  0  0
 41 42  1  0  0  0  0
 41 49  1  6  0  0  0
 43 44  1  0  0  0  0
 43 51  1  6  0  0  0
 45 46  1  0  0  0  0
 47 37  1  0  0  0  0
 47 48  1  6  0  0  0
 49 50  1  0  0  0  0
 51 52  1  0  0  0  0
M  END
>  <CHROM.1>
-144.02860807,-150.85801023,163.38729427,-81.13817147,84.71949325,-70.44468929
-60.02298255,173.13542047,-75.98596958,177.50620562,-166.32121479,-172.83378651
1.85377093,-48.22888758,8.78163097,-2.39176503,-0.54869452,0.49674136

>  <Name>
2fd0_lig

>  <RI>
0

>  <Rbt.Current_Directory>
/home/itssahil/PROJECTS/Mol_Feturizer/New_Systems/rnas/2fd0

>  <Rbt.Executable>
rbdock ($Id: //depot/dev/client3/rdock/2013.1/src/exe/rbdock.cxx#4 $)

>  <Rbt.Library>
libRbt.so (2013.1, Build901 2013/11/27)

>  <Rbt.Parameter_File>
/export/apps/rDock/src/rDock_2013.1_src/data/scripts/dock_solv.prm

>  <Rbt.Receptor>
prm/pocket_docking_5.prm

>  <SCORE>
-6.57514

>  <SCORE.INTER>
-6.09997

>  <SCORE.INTER.CONST>
1

>  <SCORE.INTER.POLAR>
-0.609937

>  <SCORE.INTER.ROT>
12

>  <SCORE.INTER.SOLV>
11.8534

>  <SCORE.INTER.VDW>
-17.5847

>  <SCORE.INTER.norm>
-0.117307

>  <SCORE.INTRA>
-0.475168

>  <SCORE.INTRA.DIHEDRAL>
-6.12033

>  <SCORE.INTRA.DIHEDRAL.0>
23.9727

>  <SCORE.INTRA.POLAR>
0

>  <SCORE.INTRA.POLAR.0>
0

>  <SCORE.INTRA.REPUL>
0

>  <SCORE.INTRA.REPUL.0>
0

>  <SCORE.INTRA.SOLV>
-1.42096

>  <SCORE.INTRA.SOLV.lig_0>
-115.028

>  <SCORE.INTRA.VDW>
3.29548

>  <SCORE.INTRA.VDW.0>
-6.82393

>  <SCORE.INTRA.norm>
-0.00913784

>  <SCORE.RESTR>
0

>  <SCORE.RESTR.CAVITY>
0

>  <SCORE.RESTR.norm>
0

>  <SCORE.SYSTEM>
0

>  <SCORE.SYSTEM.CONST>
0

>  <SCORE.SYSTEM.DIHEDRAL>
0

>  <SCORE.SYSTEM.SOLV>
0

>  <SCORE.SYSTEM.norm>
0

>  <SCORE.heavy>
52

>  <SCORE.norm>
-0.126445

>  <RMSD>
12.016

$$$$
2fd0_lig
 OpenBabel11021811433D
libRbt.so/2013.1/901 2013/11/27
 52 56  0  0  0  0  0  0  0  0999 V2000
   -1.0330  -50.4257    7.8216 C   0  0  2  0  0  0  0  0  0  0  0  0
   -1.1736  -51.6968    7.1725 O   0  0  0  0  0  0  0  0  0  0  0  0
    0.0676  -55.3108    9.2440 C   0  0  2  0  0  0  0  0  0  0  0  0
    0.8100  -56.5301    9.6034 N   0  0  0  0  0  0  0  0  0  0  0  0
    1.6463  -51.0472   10.1068 C   0  0  1  0  0  0  0  0  0  0  0  0
    3.0691  -47.6575   12.6431 C   0  0  1  0  0  0  0  0  0  0  0  0
    5.8800  -47.5401   16.9284 C   0  0  1  0  0  0  0  0  0  0  0  0
   -2.1731  -50.2835    8.8947 C   0  0  2  0  0  0  0  0  0  0  0  0
   -2.1487  -51.3737    9.8598 N   0  0  0  0  0  0  0  0  0  0  0  0
   -0.4936  -55.4236    7.7590 C   0  0  0  0  0  0  0  0  0  0  0  0
    2.4244  -49.8126    9.6898 C   0  0  2  0  0  0  0  0  0  0  0  0
    3.8352  -50.0969    9.4733 O   0  0  0  0  0  0  0  0  0  0  0  0
    4.3850  -46.7482   12.6093 C   0  0  2  0  0  0  0  0  0  0  0  0
    5.6065  -47.5950   12.6874 N   0  0  0  0  0  0  0  0  0  0  0  0
    7.3543  -47.5607   16.4661 C   0  0  1  0  0  0  0  0  0  0  0  0
    7.8291  -46.1973   16.3415 O   0  0  0  0  0  0  0  0  0  0  0  0
   -3.5764  -50.1718    8.1913 C   0  0  0  0  0  0  0  0  0  0  0  0
   -1.3109  -54.0996    7.3738 C   0  0  2  0  0  0  0  0  0  0  0  0
   -1.8387  -54.1772    6.0036 N   0  0  0  0  0  0  0  0  0  0  0  0
    2.1054  -48.8204   10.7954 C   0  0  2  0  0  0  0  0  0  0  0  0
    3.2083  -48.6169   11.6362 O   0  0  0  0  0  0  0  0  0  0  0  0
    4.2328  -45.6371   13.7726 C   0  0  1  0  0  0  0  0  0  0  0  0
    3.0142  -44.9094   13.5349 O   0  0  0  0  0  0  0  0  0  0  0  0
    8.3677  -48.3460   17.3420 C   0  0  1  0  0  0  0  0  0  0  0  0
    8.9540  -47.4257   18.2713 O   0  0  0  0  0  0  0  0  0  0  0  0
   -3.5318  -48.9799    7.1804 C   0  0  2  0  0  0  0  0  0  0  0  0
   -4.7925  -48.8334    6.5343 O   0  0  0  0  0  0  0  0  0  0  0  0
   -0.3780  -52.8650    7.5182 C   0  0  2  0  0  0  0  0  0  0  0  0
    1.0076  -49.4256   11.7026 C   0  0  2  0  0  0  0  0  0  0  0  0
    0.6371  -50.6003   10.9953 O   0  0  0  0  0  0  0  0  0  0  0  0
    4.0870  -46.3120   15.2347 C   0  0  2  0  0  0  0  0  0  0  0  0
    5.3297  -47.0112   15.4351 O   0  0  0  0  0  0  0  0  0  0  0  0
    7.7980  -49.5504   18.1266 C   0  0  2  0  0  0  0  0  0  0  0  0
    8.7915  -50.5934   18.0187 O   0  0  0  0  0  0  0  0  0  0  0  0
   -2.4212  -49.2398    6.1226 C   0  0  2  0  0  0  0  0  0  0  0  0
   -1.1291  -49.3690    6.8320 O   0  0  0  0  0  0  0  0  0  0  0  0
    0.2445  -52.7420    8.9424 C   0  0  2  0  0  0  0  0  0  0  0  0
    1.1208  -51.5895    8.9368 O   0  0  0  0  0  0  0  0  0  0  0  0
   -0.2353  -48.5604   11.8791 C   0  0  0  0  0  0  0  0  0  0  0  0
   -1.0562  -49.2001   12.8682 O   0  0  0  0  0  0  0  0  0  0  0  0
    2.9733  -47.3338   15.1044 C   0  0  1  0  0  0  0  0  0  0  0  0
    2.8594  -48.2910   14.0306 O   0  0  0  0  0  0  0  0  0  0  0  0
    6.4274  -49.9550   17.5905 C   0  0  2  0  0  0  0  0  0  0  0  0
    5.4707  -48.8651   17.4796 O   0  0  0  0  0  0  0  0  0  0  0  0
   -2.3027  -48.1152    5.1437 C   0  0  0  0  0  0  0  0  0  0  0  0
   -3.4314  -48.1428    4.3124 O   0  0  0  0  0  0  0  0  0  0  0  0
    1.0284  -54.0560    9.3048 C   0  0  1  0  0  0  0  0  0  0  0  0
    1.5556  -53.9243   10.6702 O   0  0  0  0  0  0  0  0  0  0  0  0
    2.7113  -48.1360   16.4281 C   0  0  0  0  0  0  0  0  0  0  0  0
    1.5465  -49.0505   16.3486 N   0  0  0  0  0  0  0  0  0  0  0  0
    5.6329  -51.1118   18.1926 C   0  0  0  0  0  0  0  0  0  0  0  0
    6.4695  -52.3054   18.2923 O   0  0  0  0  0  0  0  0  0  0  0  0
  1  2  1  6  0  0  0
  1  8  1  0  0  0  0
  1 36  1  0  0  0  0
  3  4  1  6  0  0  0
  3 10  1  0  0  0  0
  3 47  1  0  0  0  0
  5 11  1  0  0  0  0
  5 30  1  0  0  0  0
  5 38  1  6  0  0  0
  6 21  1  6  0  0  0
  6 42  1  0  0  0  0
  7 15  1  0  0  0  0
  7 44  1  0  0  0  0
  7 32  1  6  0  0  0
  8  9  1  1  0  0  0
  8 17  1  0  0  0  0
 11 12  1  1  0  0  0
 11 20  1  0  0  0  0
 13  6  1  0  0  0  0
 13 14  1  1  0  0  0
 15 16  1  1  0  0  0
 15 24  1  0  0  0  0
 17 26  1  0  0  0  0
 18 10  1  0  0  0  0
 18 19  1  6  0  0  0
 20 21  1  1  0  0  0
 20 29  1  0  0  0  0
 22 13  1  0  0  0  0
 22 23  1  6  0  0  0
 24 25  1  1  0  0  0
 24 33  1  0  0  0  0
 26 27  1  6  0  0  0
 26 35  1  0  0  0  0
 28  2  1  1  0  0  0
 28 18  1  0  0  0  0
 29 30  1  0  0  0  0
 29 39  1  6  0  0  0
 31 22  1  0  0  0  0
 31 32  1  6  0  0  0
 31 41  1  0  0  0  0
 33 34  1  6  0  0  0
 33 43  1  0  0  0  0
 35 36  1  0  0  0  0
 35 45  1  6  0  0  0
 37 28  1  0  0  0  0
 37 38  1  6  0  0  0
 39 40  1  0  0  0  0
 41 42  1  0  0  0  0
 41 49  1  1  0  0  0
 43 44  1  0  0  0  0
 43 51  1  1  0  0  0
 45 46  1  0  0  0  0
 47 37  1  0  0  0  0
 47 48  1  1  0  0  0
 49 50  1  0  0  0  0
 51 52  1  0  0  0  0
M  END
>  <CHROM.1>
-99.59463397,-176.22328862,-133.27101627,-156.69541437,175.93120096,143.97744014
-173.06596213,162.98003556,-71.15245078,167.94564721,174.82215862,-50.50333642
2.04975696,-49.81776065,11.82086357,2.82337789,0.84051147,-3.02274743

>  <Name>
2fd0_lig

>  <RI>
2.00683e+07

>  <Rbt.Current_Directory>
/home/itssahil/PROJECTS/Mol_Feturizer/New_Systems/rnas/2fd0

>  <Rbt.Executable>
rbdock ($Id: //depot/dev/client3/rdock/2013.1/src/exe/rbdock.cxx#4 $)

>  <Rbt.Library>
libRbt.so (2013.1, Build901 2013/11/27)

>  <Rbt.Parameter_File>
/export/apps/rDock/src/rDock_2013.1_src/data/scripts/dock_solv.prm

>  <Rbt.Receptor>
prm/pocket_docking_4.prm

>  <SCORE>
-8.95671

>  <SCORE.INTER>
-9.95887

>  <SCORE.INTER.CONST>
1

>  <SCORE.INTER.POLAR>
-1.86845

>  <SCORE.INTER.ROT>
12

>  <SCORE.INTER.SOLV>
15.4672

>  <SCORE.INTER.VDW>
-17.1668

>  <SCORE.INTER.norm>
-0.191517

>  <SCORE.INTRA>
1.00216

>  <SCORE.INTRA.DIHEDRAL>
-0.480747

>  <SCORE.INTRA.DIHEDRAL.0>
23.9727

>  <SCORE.INTRA.POLAR>
0

>  <SCORE.INTRA.POLAR.0>
0

>  <SCORE.INTRA.REPUL>
0

>  <SCORE.INTRA.REPUL.0>
0

>  <SCORE.INTRA.SOLV>
-0.652995

>  <SCORE.INTRA.SOLV.lig_0>
-115.028

>  <SCORE.INTRA.VDW>
1.56904

>  <SCORE.INTRA.VDW.0>
-6.82393

>  <SCORE.INTRA.norm>
0.0192724

>  <SCORE.RESTR>
0

>  <SCORE.RESTR.CAVITY>
0

>  <SCORE.RESTR.norm>
0

>  <SCORE.SYSTEM>
0

>  <SCORE.SYSTEM.CONST>
0

>  <SCORE.SYSTEM.DIHEDRAL>
0

>  <SCORE.SYSTEM.SOLV>
0

>  <SCORE.SYSTEM.norm>
0

>  <SCORE.heavy>
52

>  <SCORE.norm>
-0.172244

>  <RMSD>
12.021

$$$$
2fd0_lig
 OpenBabel11021811433D
libRbt.so/2013.1/901 2013/11/27
 52 56  0  0  0  0  0  0  0  0999 V2000
   -0.2008  -50.0256   12.0893 C   0  0  2  0  0  0  0  0  0  0  0  0
   -0.3286  -51.4196   11.7770 O   0  0  0  0  0  0  0  0  0  0  0  0
    2.6124  -54.3230   10.4306 C   0  0  2  0  0  0  0  0  0  0  0  0
    3.5103  -55.1025    9.5628 N   0  0  0  0  0  0  0  0  0  0  0  0
    3.5720  -50.0070   11.7208 C   0  0  1  0  0  0  0  0  0  0  0  0
    5.1912  -46.1085   12.4409 C   0  0  1  0  0  0  0  0  0  0  0  0
    7.2179  -41.9232   14.9808 C   0  0  1  0  0  0  0  0  0  0  0  0
   -0.9194  -49.7525   13.4606 C   0  0  2  0  0  0  0  0  0  0  0  0
   -0.3824  -50.5834   14.5293 N   0  0  0  0  0  0  0  0  0  0  0  0
    1.1076  -54.4560    9.9297 C   0  0  0  0  0  0  0  0  0  0  0  0
    3.3750  -48.5035   11.7842 C   0  0  2  0  0  0  0  0  0  0  0  0
    3.8429  -47.8346   10.5792 O   0  0  0  0  0  0  0  0  0  0  0  0
    6.6835  -45.5895   12.1899 C   0  0  2  0  0  0  0  0  0  0  0  0
    7.5385  -45.8659   13.3765 N   0  0  0  0  0  0  0  0  0  0  0  0
    8.2475  -41.4091   13.9497 C   0  0  1  0  0  0  0  0  0  0  0  0
    7.5406  -40.8339   12.8230 O   0  0  0  0  0  0  0  0  0  0  0  0
   -2.4743  -49.9439   13.3119 C   0  0  0  0  0  0  0  0  0  0  0  0
    0.1305  -53.6155   10.8827 C   0  0  2  0  0  0  0  0  0  0  0  0
   -1.2676  -53.7196   10.4395 N   0  0  0  0  0  0  0  0  0  0  0  0
    4.0794  -48.1226   13.0755 C   0  0  2  0  0  0  0  0  0  0  0  0
    5.2830  -47.4496   12.8241 O   0  0  0  0  0  0  0  0  0  0  0  0
    6.5861  -44.0382   11.7485 C   0  0  1  0  0  0  0  0  0  0  0  0
    5.7379  -43.9590   10.5886 O   0  0  0  0  0  0  0  0  0  0  0  0
    9.2956  -40.3739   14.4406 C   0  0  1  0  0  0  0  0  0  0  0  0
    8.7795  -39.0634   14.1755 O   0  0  0  0  0  0  0  0  0  0  0  0
   -2.9805  -49.0184   12.1579 C   0  0  2  0  0  0  0  0  0  0  0  0
   -4.3902  -49.1489   12.0030 O   0  0  0  0  0  0  0  0  0  0  0  0
    0.5802  -52.1278   10.8884 C   0  0  2  0  0  0  0  0  0  0  0  0
    4.4843  -49.4175   13.8195 C   0  0  2  0  0  0  0  0  0  0  0  0
    3.8548  -50.4275   13.0441 O   0  0  0  0  0  0  0  0  0  0  0  0
    5.8892  -43.1297   12.8900 C   0  0  2  0  0  0  0  0  0  0  0  0
    6.7774  -43.2249   14.0195 O   0  0  0  0  0  0  0  0  0  0  0  0
    9.6898  -40.4610   15.9331 C   0  0  2  0  0  0  0  0  0  0  0  0
   11.1189  -40.2544   15.9735 O   0  0  0  0  0  0  0  0  0  0  0  0
   -2.2637  -49.4048   10.8325 C   0  0  2  0  0  0  0  0  0  0  0  0
   -0.8066  -49.2399   11.0305 O   0  0  0  0  0  0  0  0  0  0  0  0
    2.0683  -51.9485   11.3176 C   0  0  2  0  0  0  0  0  0  0  0  0
    2.3769  -50.5361   11.2402 O   0  0  0  0  0  0  0  0  0  0  0  0
    3.9750  -49.5264   15.2524 C   0  0  0  0  0  0  0  0  0  0  0  0
    4.5225  -50.7340   15.8030 O   0  0  0  0  0  0  0  0  0  0  0  0
    4.5904  -43.8330   13.2363 C   0  0  1  0  0  0  0  0  0  0  0  0
    4.4660  -45.2477   13.4915 O   0  0  0  0  0  0  0  0  0  0  0  0
    9.2477  -41.7897   16.5403 C   0  0  2  0  0  0  0  0  0  0  0  0
    7.8505  -42.1265   16.3170 O   0  0  0  0  0  0  0  0  0  0  0  0
   -2.6790  -48.5298    9.6927 C   0  0  0  0  0  0  0  0  0  0  0  0
   -2.4141  -47.1997   10.0480 O   0  0  0  0  0  0  0  0  0  0  0  0
    3.0067  -52.7923   10.3794 C   0  0  1  0  0  0  0  0  0  0  0  0
    4.3921  -52.6403   10.8451 O   0  0  0  0  0  0  0  0  0  0  0  0
    3.7826  -43.1157   14.3754 C   0  0  0  0  0  0  0  0  0  0  0  0
    2.4234  -43.6720   14.5813 N   0  0  0  0  0  0  0  0  0  0  0  0
    9.5025  -42.1336   18.0061 C   0  0  0  0  0  0  0  0  0  0  0  0
    9.9330  -43.5238   18.1346 O   0  0  0  0  0  0  0  0  0  0  0  0
  1  2  1  6  0  0  0
  1  8  1  0  0  0  0
  1 36  1  0  0  0  0
  3  4  1  6  0  0  0
  3 10  1  0  0  0  0
  3 47  1  0  0  0  0
  5 11  1  0  0  0  0
  5 30  1  0  0  0  0
  5 38  1  1  0  0  0
  6 21  1  1  0  0  0
  6 42  1  0  0  0  0
  7 15  1  0  0  0  0
  7 44  1  0  0  0  0
  7 32  1  6  0  0  0
  8  9  1  1  0  0  0
  8 17  1  0  0  0  0
 11 12  1  6  0  0  0
 11 20  1  0  0  0  0
 13  6  1  0  0  0  0
 13 14  1  1  0  0  0
 15 16  1  6  0  0  0
 15 24  1  0  0  0  0
 17 26  1  0  0  0  0
 18 10  1  0  0  0  0
 18 19  1  6  0  0  0
 20 21  1  6  0  0  0
 20 29  1  0  0  0  0
 22 13  1  0  0  0  0
 22 23  1  6  0  0  0
 24 25  1  1  0  0  0
 24 33  1  0  0  0  0
 26 27  1  6  0  0  0
 26 35  1  0  0  0  0
 28  2  1  1  0  0  0
 28 18  1  0  0  0  0
 29 30  1  0  0  0  0
 29 39  1  1  0  0  0
 31 22  1  0  0  0  0
 31 32  1  1  0  0  0
 31 41  1  0  0  0  0
 33 34  1  6  0  0  0
 33 43  1  0  0  0  0
 35 36  1  0  0  0  0
 35 45  1  6  0  0  0
 37 28  1  0  0  0  0
 37 38  1  6  0  0  0
 39 40  1  0  0  0  0
 41 42  1  0  0  0  0
 41 49  1  1  0  0  0
 43 44  1  0  0  0  0
 43 51  1  1  0  0  0
 45 46  1  0  0  0  0
 47 37  1  0  0  0  0
 47 48  1  1  0  0  0
 49 50  1  0  0  0  0
 51 52  1  0  0  0  0
M  END
>  <CHROM.1>
-156.83433416,-165.99852913,-178.90723243,-78.65099950,76.84141568,177.22104828
-176.07270128,137.07510225,56.92477390,171.51850176,171.28946244,-138.29665701
3.75068157,-47.24887628,12.87951801,2.26843860,0.21616409,-2.94879989

>  <Name>
2fd0_lig

>  <RI>
3.4301e+07

>  <Rbt.Current_Directory>
/home/itssahil/PROJECTS/Mol_Feturizer/New_Systems/rnas/2fd0

>  <Rbt.Executable>
rbdock ($Id: //depot/dev/client3/rdock/2013.1/src/exe/rbdock.cxx#4 $)

>  <Rbt.Library>
libRbt.so (2013.1, Build901 2013/11/27)

>  <Rbt.Parameter_File>
/export/apps/rDock/src/rDock_2013.1_src/data/scripts/dock_solv.prm

>  <Rbt.Receptor>
prm/pocket_docking_7.prm

>  <SCORE>
-24.179

>  <SCORE.INTER>
-20.7553

>  <SCORE.INTER.CONST>
1

>  <SCORE.INTER.POLAR>
-2.54964

>  <SCORE.INTER.ROT>
12

>  <SCORE.INTER.SOLV>
19.2344

>  <SCORE.INTER.VDW>
-23.3495

>  <SCORE.INTER.norm>
-0.39914

>  <SCORE.INTRA>
-3.79728

>  <SCORE.INTRA.DIHEDRAL>
-6.24042

>  <SCORE.INTRA.DIHEDRAL.0>
23.9727

>  <SCORE.INTRA.POLAR>
0

>  <SCORE.INTRA.POLAR.0>
0

>  <SCORE.INTRA.REPUL>
0

>  <SCORE.INTRA.REPUL.0>
0

>  <SCORE.INTRA.SOLV>
-5.46342

>  <SCORE.INTRA.SOLV.lig_0>
-115.028

>  <SCORE.INTRA.VDW>
2.05464

>  <SCORE.INTRA.VDW.0>
-6.82393

>  <SCORE.INTRA.norm>
-0.0730246

>  <SCORE.RESTR>
0.37352

>  <SCORE.RESTR.CAVITY>
0.37352

>  <SCORE.RESTR.norm>
0.00718308

>  <SCORE.SYSTEM>
0

>  <SCORE.SYSTEM.CONST>
0

>  <SCORE.SYSTEM.DIHEDRAL>
0

>  <SCORE.SYSTEM.SOLV>
0

>  <SCORE.SYSTEM.norm>
0

>  <SCORE.heavy>
52

>  <SCORE.norm>
-0.464981

>  <RMSD>
12.045

$$$$
2fd0_lig
 OpenBabel11021811433D
libRbt.so/2013.1/901 2013/11/27
 52 56  0  0  0  0  0  0  0  0999 V2000
   -1.5473  -48.7002    6.1018 C   0  0  2  0  0  0  0  0  0  0  0  0
   -1.9927  -50.0457    6.3211 O   0  0  0  0  0  0  0  0  0  0  0  0
   -0.2765  -54.0388    6.3617 C   0  0  2  0  0  0  0  0  0  0  0  0
    0.4172  -55.2657    5.9368 N   0  0  0  0  0  0  0  0  0  0  0  0
    1.5159  -49.7950    7.7635 C   0  0  1  0  0  0  0  0  0  0  0  0
    4.2302  -47.2786    9.9660 C   0  0  1  0  0  0  0  0  0  0  0  0
    5.3172  -47.5902   15.1272 C   0  0  1  0  0  0  0  0  0  0  0  0
   -2.3062  -47.7531    7.1011 C   0  0  2  0  0  0  0  0  0  0  0  0
   -2.1071  -48.1549    8.4866 N   0  0  0  0  0  0  0  0  0  0  0  0
   -1.4997  -53.7317    5.3909 C   0  0  0  0  0  0  0  0  0  0  0  0
    2.9407  -49.5135    7.3225 C   0  0  2  0  0  0  0  0  0  0  0  0
    3.8432  -50.6100    7.6407 O   0  0  0  0  0  0  0  0  0  0  0  0
    5.6165  -47.4478   10.7464 C   0  0  2  0  0  0  0  0  0  0  0  0
    5.7230  -48.8125   11.3308 N   0  0  0  0  0  0  0  0  0  0  0  0
    6.7485  -47.2777   14.6358 C   0  0  1  0  0  0  0  0  0  0  0  0
    6.8315  -45.8741   14.2854 O   0  0  0  0  0  0  0  0  0  0  0  0
   -3.8359  -47.6863    6.7377 C   0  0  0  0  0  0  0  0  0  0  0  0
   -2.2601  -52.4016    5.8621 C   0  0  2  0  0  0  0  0  0  0  0  0
   -3.3946  -52.0936    4.9790 N   0  0  0  0  0  0  0  0  0  0  0  0
    3.2460  -48.1826    7.9888 C   0  0  2  0  0  0  0  0  0  0  0  0
    4.1398  -48.3370    9.0574 O   0  0  0  0  0  0  0  0  0  0  0  0
    5.7276  -46.2285   11.8009 C   0  0  1  0  0  0  0  0  0  0  0  0
    5.6178  -44.9955   11.0671 O   0  0  0  0  0  0  0  0  0  0  0  0
    7.9225  -47.6047   15.5980 C   0  0  1  0  0  0  0  0  0  0  0  0
    8.2149  -46.4233   16.3550 O   0  0  0  0  0  0  0  0  0  0  0  0
   -3.9729  -47.2413    5.2451 C   0  0  2  0  0  0  0  0  0  0  0  0
   -5.3468  -47.1508    4.8813 O   0  0  0  0  0  0  0  0  0  0  0  0
   -1.2544  -51.2168    5.8734 C   0  0  2  0  0  0  0  0  0  0  0  0
    1.9445  -47.6354    8.6220 C   0  0  2  0  0  0  0  0  0  0  0  0
    0.9644  -48.5474    8.1474 O   0  0  0  0  0  0  0  0  0  0  0  0
    4.5104  -46.2397   12.8651 C   0  0  2  0  0  0  0  0  0  0  0  0
    4.6707  -47.4772   13.5839 O   0  0  0  0  0  0  0  0  0  0  0  0
    7.6921  -48.7788   16.5773 C   0  0  2  0  0  0  0  0  0  0  0  0
    8.9364  -49.5118   16.6096 O   0  0  0  0  0  0  0  0  0  0  0  0
   -3.2489  -48.2700    4.3300 C   0  0  2  0  0  0  0  0  0  0  0  0
   -1.8250  -48.3212    4.7290 O   0  0  0  0  0  0  0  0  0  0  0  0
   -0.0067  -51.4924    6.7669 C   0  0  2  0  0  0  0  0  0  0  0  0
    0.8682  -50.3439    6.6597 O   0  0  0  0  0  0  0  0  0  0  0  0
    1.5487  -46.2321    8.1766 C   0  0  0  0  0  0  0  0  0  0  0  0
    0.1991  -46.0161    8.6161 O   0  0  0  0  0  0  0  0  0  0  0  0
    3.2428  -46.3235   12.0359 C   0  0  1  0  0  0  0  0  0  0  0  0
    3.0383  -47.2394   10.9398 O   0  0  0  0  0  0  0  0  0  0  0  0
    6.4964  -49.6245   16.1475 C   0  0  2  0  0  0  0  0  0  0  0  0
    5.2787  -48.8717   15.8909 O   0  0  0  0  0  0  0  0  0  0  0  0
   -3.3127  -47.8816    2.8870 C   0  0  0  0  0  0  0  0  0  0  0  0
   -4.6521  -47.9494    2.4782 O   0  0  0  0  0  0  0  0  0  0  0  0
    0.7147  -52.8081    6.2965 C   0  0  1  0  0  0  0  0  0  0  0  0
    1.8519  -53.0631    7.1916 O   0  0  0  0  0  0  0  0  0  0  0  0
    1.9376  -46.3920   12.9055 C   0  0  0  0  0  0  0  0  0  0  0  0
    0.6890  -46.3899   12.1053 N   0  0  0  0  0  0  0  0  0  0  0  0
    6.0404  -50.8444   16.9450 C   0  0  0  0  0  0  0  0  0  0  0  0
    5.8933  -50.5021   18.3577 O   0  0  0  0  0  0  0  0  0  0  0  0
  1  2  1  6  0  0  0
  1  8  1  0  0  0  0
  1 36  1  0  0  0  0
  3  4  1  6  0  0  0
  3 10  1  0  0  0  0
  3 47  1  0  0  0  0
  5 11  1  0  0  0  0
  5 30  1  0  0  0  0
  5 38  1  6  0  0  0
  6 21  1  6  0  0  0
  6 42  1  0  0  0  0
  7 15  1  0  0  0  0
  7 44  1  0  0  0  0
  7 32  1  6  0  0  0
  8  9  1  1  0  0  0
  8 17  1  0  0  0  0
 11 12  1  1  0  0  0
 11 20  1  0  0  0  0
 13  6  1  0  0  0  0
 13 14  1  1  0  0  0
 15 16  1  1  0  0  0
 15 24  1  0  0  0  0
 17 26  1  0  0  0  0
 18 10  1  0  0  0  0
 18 19  1  6  0  0  0
 20 21  1  1  0  0  0
 20 29  1  0  0  0  0
 22 13  1  0  0  0  0
 22 23  1  6  0  0  0
 24 25  1  1  0  0  0
 24 33  1  0  0  0  0
 26 27  1  6  0  0  0
 26 35  1  0  0  0  0
 28  2  1  1  0  0  0
 28 18  1  0  0  0  0
 29 30  1  0  0  0  0
 29 39  1  6  0  0  0
 31 22  1  0  0  0  0
 31 32  1  1  0  0  0
 31 41  1  0  0  0  0
 33 34  1  6  0  0  0
 33 43  1  0  0  0  0
 35 36  1  0  0  0  0
 35 45  1  6  0  0  0
 37 28  1  0  0  0  0
 37 38  1  6  0  0  0
 39 40  1  0  0  0  0
 41 42  1  0  0  0  0
 41 49  1  1  0  0  0
 43 44  1  0  0  0  0
 43 51  1  1  0  0  0
 45 46  1  0  0  0  0
 47 37  1  0  0  0  0
 47 48  1  1  0  0  0
 49 50  1  0  0  0  0
 51 52  1  0  0  0  0
M  END
>  <CHROM.1>
-161.44431813,136.29442935,-160.48914110,-71.83766297,-163.51123338,-161.17331703
167.36754336,102.63912614,-66.06945265,137.68261827,176.44071133,50.35703925
1.97582258,-48.79094963,9.63820756,2.83426840,0.80578651,-2.90822989

>  <Name>
2fd0_lig

>  <RI>
1.29864e+07

>  <Rbt.Current_Directory>
/home/itssahil/PROJECTS/Mol_Feturizer/New_Systems/rnas/2fd0

>  <Rbt.Executable>
rbdock ($Id: //depot/dev/client3/rdock/2013.1/src/exe/rbdock.cxx#4 $)

>  <Rbt.Library>
libRbt.so (2013.1, Build901 2013/11/27)

>  <Rbt.Parameter_File>
/export/apps/rDock/src/rDock_2013.1_src/data/scripts/dock_solv.prm

>  <Rbt.Receptor>
prm/pocket_docking_3.prm

>  <SCORE>
-1.07737

>  <SCORE.INTER>
-7.01017

>  <SCORE.INTER.CONST>
1

>  <SCORE.INTER.POLAR>
-0.894427

>  <SCORE.INTER.ROT>
12

>  <SCORE.INTER.SOLV>
11.544

>  <SCORE.INTER.VDW>
-17.14

>  <SCORE.INTER.norm>
-0.134811

>  <SCORE.INTRA>
5.67861

>  <SCORE.INTRA.DIHEDRAL>
2.68243

>  <SCORE.INTRA.DIHEDRAL.0>
23.9727

>  <SCORE.INTRA.POLAR>
0

>  <SCORE.INTRA.POLAR.0>
0

>  <SCORE.INTRA.REPUL>
0

>  <SCORE.INTRA.REPUL.0>
0

>  <SCORE.INTRA.SOLV>
1.14898

>  <SCORE.INTRA.SOLV.lig_0>
-115.028

>  <SCORE.INTRA.VDW>
3.7629

>  <SCORE.INTRA.VDW.0>
-6.82393

>  <SCORE.INTRA.norm>
0.109204

>  <SCORE.RESTR>
0.254189

>  <SCORE.RESTR.CAVITY>
0.254189

>  <SCORE.RESTR.norm>
0.00488826

>  <SCORE.SYSTEM>
0

>  <SCORE.SYSTEM.CONST>
0

>  <SCORE.SYSTEM.DIHEDRAL>
0

>  <SCORE.SYSTEM.SOLV>
0

>  <SCORE.SYSTEM.norm>
0

>  <SCORE.heavy>
52

>  <SCORE.norm>
-0.0207187

>  <RMSD>
12.059

$$$$
2fd0_lig
 OpenBabel11021811433D
libRbt.so/2013.1/901 2013/11/27
 52 56  0  0  0  0  0  0  0  0999 V2000
   -3.6238  -49.2288    5.9469 C   0  0  2  0  0  0  0  0  0  0  0  0
   -4.1457  -50.1342    4.9646 O   0  0  0  0  0  0  0  0  0  0  0  0
   -2.7304  -53.6746    2.8777 C   0  0  2  0  0  0  0  0  0  0  0  0
   -1.9427  -54.5604    2.0049 N   0  0  0  0  0  0  0  0  0  0  0  0
   -0.5508  -50.9433    5.6361 C   0  0  1  0  0  0  0  0  0  0  0  0
    2.0759  -48.0595    7.3576 C   0  0  1  0  0  0  0  0  0  0  0  0
    4.1430  -47.9637   11.9971 C   0  0  1  0  0  0  0  0  0  0  0  0
   -4.7931  -48.8073    6.9095 C   0  0  2  0  0  0  0  0  0  0  0  0
   -5.4215  -49.9612    7.5375 N   0  0  0  0  0  0  0  0  0  0  0  0
   -3.3453  -52.4729    2.0346 C   0  0  0  0  0  0  0  0  0  0  0  0
   -0.1831  -50.0435    6.8017 C   0  0  2  0  0  0  0  0  0  0  0  0
   -0.5888  -48.6632    6.5822 O   0  0  0  0  0  0  0  0  0  0  0  0
    3.5354  -47.9868    8.0087 C   0  0  2  0  0  0  0  0  0  0  0  0
    3.8831  -49.2814    8.6558 N   0  0  0  0  0  0  0  0  0  0  0  0
    3.5492  -49.1345   12.8122 C   0  0  1  0  0  0  0  0  0  0  0  0
    3.6745  -50.3564   12.0433 O   0  0  0  0  0  0  0  0  0  0  0  0
   -5.8474  -47.9291    6.1390 C   0  0  0  0  0  0  0  0  0  0  0  0
   -4.2116  -51.5160    2.9849 C   0  0  2  0  0  0  0  0  0  0  0  0
   -4.7896  -50.3945    2.2299 N   0  0  0  0  0  0  0  0  0  0  0  0
    1.3089  -50.2839    6.9591 C   0  0  2  0  0  0  0  0  0  0  0  0
    2.0551  -49.1805    6.5229 O   0  0  0  0  0  0  0  0  0  0  0  0
    3.5669  -46.6940    8.9775 C   0  0  1  0  0  0  0  0  0  0  0  0
    3.2213  -45.5403    8.1897 O   0  0  0  0  0  0  0  0  0  0  0  0
    4.1367  -49.3921   14.2262 C   0  0  1  0  0  0  0  0  0  0  0  0
    5.1814  -50.3652   14.0995 O   0  0  0  0  0  0  0  0  0  0  0  0
   -5.1062  -46.7089    5.5013 C   0  0  2  0  0  0  0  0  0  0  0  0
   -6.0312  -45.8770    4.8081 O   0  0  0  0  0  0  0  0  0  0  0  0
   -3.3067  -50.9801    4.1293 C   0  0  2  0  0  0  0  0  0  0  0  0
    1.7237  -51.4495    6.0297 C   0  0  2  0  0  0  0  0  0  0  0  0
    0.4726  -51.9195    5.5486 O   0  0  0  0  0  0  0  0  0  0  0  0
    2.4616  -46.7952   10.1532 C   0  0  2  0  0  0  0  0  0  0  0  0
    2.8563  -47.9474   10.9215 O   0  0  0  0  0  0  0  0  0  0  0  0
    4.6960  -48.1549   14.9658 C   0  0  2  0  0  0  0  0  0  0  0  0
    4.2739  -48.2962   16.3400 O   0  0  0  0  0  0  0  0  0  0  0  0
   -4.0153  -47.2221    4.5185 C   0  0  2  0  0  0  0  0  0  0  0  0
   -3.0680  -48.0663    5.2798 O   0  0  0  0  0  0  0  0  0  0  0  0
   -2.6332  -52.1212    4.9511 C   0  0  2  0  0  0  0  0  0  0  0  0
   -1.7886  -51.4993    5.9490 O   0  0  0  0  0  0  0  0  0  0  0  0
    2.4362  -52.6063    6.7215 C   0  0  0  0  0  0  0  0  0  0  0  0
    1.5259  -53.1391    7.6955 O   0  0  0  0  0  0  0  0  0  0  0  0
    1.1503  -47.1054    9.4564 C   0  0  1  0  0  0  0  0  0  0  0  0
    0.9805  -48.1138    8.4383 O   0  0  0  0  0  0  0  0  0  0  0  0
    4.2184  -46.8620   14.3102 C   0  0  2  0  0  0  0  0  0  0  0  0
    4.4343  -46.7915   12.8736 O   0  0  0  0  0  0  0  0  0  0  0  0
   -3.2431  -46.1005    3.8997 C   0  0  0  0  0  0  0  0  0  0  0  0
   -2.3626  -46.6485    2.9563 O   0  0  0  0  0  0  0  0  0  0  0  0
   -1.8014  -53.0550    3.9978 C   0  0  1  0  0  0  0  0  0  0  0  0
   -1.2256  -54.1453    4.7973 O   0  0  0  0  0  0  0  0  0  0  0  0
   -0.0508  -47.2885   10.4505 C   0  0  0  0  0  0  0  0  0  0  0  0
   -1.3362  -47.5994    9.7793 N   0  0  0  0  0  0  0  0  0  0  0  0
    4.6317  -45.4887   14.8348 C   0  0  0  0  0  0  0  0  0  0  0  0
    6.0307  -45.2205   14.5098 O   0  0  0  0  0  0  0  0  0  0  0  0
  1  2  1  6  0  0  0
  1  8  1  0  0  0  0
  1 36  1  0  0  0  0
  3  4  1  6  0  0  0
  3 10  1  0  0  0  0
  3 47  1  0  0  0  0
  5 11  1  0  0  0  0
  5 30  1  0  0  0  0
  5 38  1  1  0  0  0
  6 21  1  1  0  0  0
  6 42  1  0  0  0  0
  7 15  1  0  0  0  0
  7 44  1  0  0  0  0
  7 32  1  6  0  0  0
  8  9  1  6  0  0  0
  8 17  1  0  0  0  0
 11 12  1  6  0  0  0
 11 20  1  0  0  0  0
 13  6  1  0  0  0  0
 13 14  1  1  0  0  0
 15 16  1  6  0  0  0
 15 24  1  0  0  0  0
 17 26  1  0  0  0  0
 18 10  1  0  0  0  0
 18 19  1  6  0  0  0
 20 21  1  6  0  0  0
 20 29  1  0  0  0  0
 22 13  1  0  0  0  0
 22 23  1  6  0  0  0
 24 25  1  6  0  0  0
 24 33  1  0  0  0  0
 26 27  1  6  0  0  0
 26 35  1  0  0  0  0
 28  2  1  1  0  0  0
 28 18  1  0  0  0  0
 29 30  1  0  0  0  0
 29 39  1  1  0  0  0
 31 22  1  0  0  0  0
 31 32  1  1  0  0  0
 31 41  1  0  0  0  0
 33 34  1  1  0  0  0
 33 43  1  0  0  0  0
 35 36  1  0  0  0  0
 35 45  1  1  0  0  0
 37 28  1  0  0  0  0
 37 38  1  1  0  0  0
 39 40  1  0  0  0  0
 41 42  1  0  0  0  0
 41 49  1  1  0  0  0
 43 44  1  0  0  0  0
 43 51  1  1  0  0  0
 45 46  1  0  0  0  0
 47 37  1  0  0  0  0
 47 48  1  1  0  0  0
 49 50  1  0  0  0  0
 51 52  1  0  0  0  0
M  END
>  <CHROM.1>
-164.07487715,163.04541125,107.90174241,155.68331326,74.88057952,-165.90567963
60.80860968,75.71053438,-175.37094350,-76.52797480,-179.68800541,72.97547908
0.11376196,-49.21239417,7.84588109,2.52129797,0.67488263,-2.58133751

>  <Name>
2fd0_lig

>  <RI>
2.00683e+07

>  <Rbt.Current_Directory>
/home/itssahil/PROJECTS/Mol_Feturizer/New_Systems/rnas/2fd0

>  <Rbt.Executable>
rbdock ($Id: //depot/dev/client3/rdock/2013.1/src/exe/rbdock.cxx#4 $)

>  <Rbt.Library>
libRbt.so (2013.1, Build901 2013/11/27)

>  <Rbt.Parameter_File>
/export/apps/rDock/src/rDock_2013.1_src/data/scripts/dock_solv.prm

>  <Rbt.Receptor>
prm/pocket_docking_4.prm

>  <SCORE>
-6.98929

>  <SCORE.INTER>
-5.65412

>  <SCORE.INTER.CONST>
1

>  <SCORE.INTER.POLAR>
-1.71576

>  <SCORE.INTER.ROT>
12

>  <SCORE.INTER.SOLV>
10.4199

>  <SCORE.INTER.VDW>
-13.1235

>  <SCORE.INTER.norm>
-0.108733

>  <SCORE.INTRA>
-1.37131

>  <SCORE.INTRA.DIHEDRAL>
-5.83204

>  <SCORE.INTRA.DIHEDRAL.0>
23.9727

>  <SCORE.INTRA.POLAR>
0

>  <SCORE.INTRA.POLAR.0>
0

>  <SCORE.INTRA.REPUL>
0.014708

>  <SCORE.INTRA.REPUL.0>
0

>  <SCORE.INTRA.SOLV>
-0.721119

>  <SCORE.INTRA.SOLV.lig_0>
-115.028

>  <SCORE.INTRA.VDW>
1.83173

>  <SCORE.INTRA.VDW.0>
-6.82393

>  <SCORE.INTRA.norm>
-0.0263714

>  <SCORE.RESTR>
0.0361487

>  <SCORE.RESTR.CAVITY>
0.0361487

>  <SCORE.RESTR.norm>
0.000695167

>  <SCORE.SYSTEM>
0

>  <SCORE.SYSTEM.CONST>
0

>  <SCORE.SYSTEM.DIHEDRAL>
0

>  <SCORE.SYSTEM.SOLV>
0

>  <SCORE.SYSTEM.norm>
0

>  <SCORE.heavy>
52

>  <SCORE.norm>
-0.134409

>  <RMSD>
12.064

$$$$
2fd0_lig
 OpenBabel11021811433D
libRbt.so/2013.1/901 2013/11/27
 52 56  0  0  0  0  0  0  0  0999 V2000
   -3.0842  -51.2109    5.0895 C   0  0  2  0  0  0  0  0  0  0  0  0
   -1.6733  -51.3546    5.3031 O   0  0  0  0  0  0  0  0  0  0  0  0
   -1.2763  -54.7252    8.0186 C   0  0  2  0  0  0  0  0  0  0  0  0
   -0.7208  -55.6684    9.0029 N   0  0  0  0  0  0  0  0  0  0  0  0
   -1.0600  -50.4627    9.0759 C   0  0  1  0  0  0  0  0  0  0  0  0
    2.4407  -48.2012   10.4579 C   0  0  1  0  0  0  0  0  0  0  0  0
    5.3595  -48.7784   14.5396 C   0  0  1  0  0  0  0  0  0  0  0  0
   -3.3435  -51.0615    3.5461 C   0  0  2  0  0  0  0  0  0  0  0  0
   -2.8089  -52.1884    2.7946 N   0  0  0  0  0  0  0  0  0  0  0  0
   -0.3384  -54.6505    6.7350 C   0  0  0  0  0  0  0  0  0  0  0  0
    0.2410  -50.2839    8.3151 C   0  0  2  0  0  0  0  0  0  0  0  0
    1.0916  -51.4623    8.3925 O   0  0  0  0  0  0  0  0  0  0  0  0
    4.0146  -48.1726   10.1728 C   0  0  2  0  0  0  0  0  0  0  0  0
    4.6206  -49.5020   10.4574 N   0  0  0  0  0  0  0  0  0  0  0  0
    6.4026  -47.6680   14.7978 C   0  0  1  0  0  0  0  0  0  0  0  0
    5.7201  -46.3938   14.9005 O   0  0  0  0  0  0  0  0  0  0  0  0
   -2.7623  -49.6959    3.0227 C   0  0  0  0  0  0  0  0  0  0  0  0
   -0.9510  -53.6314    5.6601 C   0  0  2  0  0  0  0  0  0  0  0  0
   -0.1008  -53.5418    4.4638 N   0  0  0  0  0  0  0  0  0  0  0  0
    0.8114  -49.0085    8.9123 C   0  0  2  0  0  0  0  0  0  0  0  0
    1.9132  -49.2759    9.7365 O   0  0  0  0  0  0  0  0  0  0  0  0
    4.6326  -46.9334   11.0055 C   0  0  1  0  0  0  0  0  0  0  0  0
    3.9440  -45.7373   10.5981 O   0  0  0  0  0  0  0  0  0  0  0  0
    7.3213  -47.8244   16.0398 C   0  0  1  0  0  0  0  0  0  0  0  0
    6.7085  -47.1284   17.1326 O   0  0  0  0  0  0  0  0  0  0  0  0
   -3.3849  -48.5355    3.8656 C   0  0  2  0  0  0  0  0  0  0  0  0
   -2.8968  -47.2776    3.4098 O   0  0  0  0  0  0  0  0  0  0  0  0
   -1.1016  -52.2300    6.3151 C   0  0  2  0  0  0  0  0  0  0  0  0
   -0.2516  -48.3795    9.8445 C   0  0  2  0  0  0  0  0  0  0  0  0
   -1.3928  -49.1890    9.6001 O   0  0  0  0  0  0  0  0  0  0  0  0
    4.3801  -47.0900   12.5948 C   0  0  2  0  0  0  0  0  0  0  0  0
    5.0983  -48.2840   12.9585 O   0  0  0  0  0  0  0  0  0  0  0  0
    7.6263  -49.2744   16.4816 C   0  0  2  0  0  0  0  0  0  0  0  0
    9.0259  -49.2888   16.8387 O   0  0  0  0  0  0  0  0  0  0  0  0
   -3.0219  -48.7329    5.3653 C   0  0  2  0  0  0  0  0  0  0  0  0
   -3.5600  -50.0402    5.8025 O   0  0  0  0  0  0  0  0  0  0  0  0
   -1.9665  -52.2595    7.6120 C   0  0  2  0  0  0  0  0  0  0  0  0
   -1.9945  -50.9148    8.1477 O   0  0  0  0  0  0  0  0  0  0  0  0
   -0.6139  -46.9326    9.5288 C   0  0  0  0  0  0  0  0  0  0  0  0
   -0.7977  -46.8454    8.1076 O   0  0  0  0  0  0  0  0  0  0  0  0
    2.8943  -47.3543   12.7489 C   0  0  1  0  0  0  0  0  0  0  0  0
    2.1444  -48.3059   11.9651 O   0  0  0  0  0  0  0  0  0  0  0  0
    7.2665  -50.2697   15.3819 C   0  0  2  0  0  0  0  0  0  0  0  0
    5.9218  -50.1263   14.8466 O   0  0  0  0  0  0  0  0  0  0  0  0
   -3.6197  -47.6715    6.2331 C   0  0  0  0  0  0  0  0  0  0  0  0
   -3.1444  -47.8598    7.5386 O   0  0  0  0  0  0  0  0  0  0  0  0
   -1.3560  -53.2754    8.6455 C   0  0  1  0  0  0  0  0  0  0  0  0
   -2.2240  -53.3148    9.8306 O   0  0  0  0  0  0  0  0  0  0  0  0
    2.4574  -47.5824   14.2394 C   0  0  0  0  0  0  0  0  0  0  0  0
    2.4164  -46.3374   15.0443 N   0  0  0  0  0  0  0  0  0  0  0  0
    7.4576  -51.7744   15.5589 C   0  0  0  0  0  0  0  0  0  0  0  0
    6.8985  -52.2109   16.8361 O   0  0  0  0  0  0  0  0  0  0  0  0
  1  2  1  6  0  0  0
  1  8  1  0  0  0  0
  1 36  1  0  0  0  0
  3  4  1  1  0  0  0
  3 10  1  0  0  0  0
  3 47  1  0  0  0  0
  5 11  1  0  0  0  0
  5 30  1  0  0  0  0
  5 38  1  6  0  0  0
  6 21  1  6  0  0  0
  6 42  1  0  0  0  0
  7 15  1  0  0  0  0
  7 44  1  0  0  0  0
  7 32  1  6  0  0  0
  8  9  1  6  0  0  0
  8 17  1  0  0  0  0
 11 12  1  1  0  0  0
 11 20  1  0  0  0  0
 13  6  1  0  0  0  0
 13 14  1  1  0  0  0
 15 16  1  1  0  0  0
 15 24  1  0  0  0  0
 17 26  1  0  0  0  0
 18 10  1  0  0  0  0
 18 19  1  6  0  0  0
 20 21  1  1  0  0  0
 20 29  1  0  0  0  0
 22 13  1  0  0  0  0
 22 23  1  6  0  0  0
 24 25  1  1  0  0  0
 24 33  1  0  0  0  0
 26 27  1  6  0  0  0
 26 35  1  0  0  0  0
 28  2  1  6  0  0  0
 28 18  1  0  0  0  0
 29 30  1  0  0  0  0
 29 39  1  6  0  0  0
 31 22  1  0  0  0  0
 31 32  1  6  0  0  0
 31 41  1  0  0  0  0
 33 34  1  6  0  0  0
 33 43  1  0  0  0  0
 35 36  1  0  0  0  0
 35 45  1  1  0  0  0
 37 28  1  0  0  0  0
 37 38  1  1  0  0  0
 39 40  1  0  0  0  0
 41 42  1  0  0  0  0
 41 49  1  1  0  0  0
 43 44  1  0  0  0  0
 43 51  1  1  0  0  0
 45 46  1  0  0  0  0
 47 37  1  0  0  0  0
 47 48  1  1  0  0  0
 49 50  1  0  0  0  0
 51 52  1  0  0  0  0
M  END
>  <CHROM.1>
-142.70847353,72.62986966,-128.65678775,-72.74241320,-173.41827960,87.47643985
45.38499344,170.33749566,-174.78977265,-91.06946592,74.69723952,48.29757175
1.34941437,-49.69989621,9.91679252,-2.91803549,-0.82902743,0.06926864

>  <Name>
2fd0_lig

>  <RI>
1.29864e+07

>  <Rbt.Current_Directory>
/home/itssahil/PROJECTS/Mol_Feturizer/New_Systems/rnas/2fd0

>  <Rbt.Executable>
rbdock ($Id: //depot/dev/client3/rdock/2013.1/src/exe/rbdock.cxx#4 $)

>  <Rbt.Library>
libRbt.so (2013.1, Build901 2013/11/27)

>  <Rbt.Parameter_File>
/export/apps/rDock/src/rDock_2013.1_src/data/scripts/dock_solv.prm

>  <Rbt.Receptor>
prm/pocket_docking_3.prm

>  <SCORE>
1.44237

>  <SCORE.INTER>
-2.5989

>  <SCORE.INTER.CONST>
1

>  <SCORE.INTER.POLAR>
-1.27933

>  <SCORE.INTER.ROT>
12

>  <SCORE.INTER.SOLV>
13.7351

>  <SCORE.INTER.VDW>
-13.6465

>  <SCORE.INTER.norm>
-0.0499788

>  <SCORE.INTRA>
3.2489

>  <SCORE.INTRA.DIHEDRAL>
0.14781

>  <SCORE.INTRA.DIHEDRAL.0>
23.9727

>  <SCORE.INTRA.POLAR>
0

>  <SCORE.INTRA.POLAR.0>
0

>  <SCORE.INTRA.REPUL>
0.121141

>  <SCORE.INTRA.REPUL.0>
0

>  <SCORE.INTRA.SOLV>
0.622817

>  <SCORE.INTRA.SOLV.lig_0>
-115.028

>  <SCORE.INTRA.VDW>
2.25788

>  <SCORE.INTRA.VDW.0>
-6.82393

>  <SCORE.INTRA.norm>
0.0624788

>  <SCORE.RESTR>
0.792377

>  <SCORE.RESTR.CAVITY>
0.792377

>  <SCORE.RESTR.norm>
0.015238

>  <SCORE.SYSTEM>
0

>  <SCORE.SYSTEM.CONST>
0

>  <SCORE.SYSTEM.DIHEDRAL>
0

>  <SCORE.SYSTEM.SOLV>
0

>  <SCORE.SYSTEM.norm>
0

>  <SCORE.heavy>
52

>  <SCORE.norm>
0.027738

>  <RMSD>
12.083

$$$$
2fd0_lig
 OpenBabel11021811433D
libRbt.so/2013.1/901 2013/11/27
 52 56  0  0  0  0  0  0  0  0999 V2000
   10.3324  -37.4301   15.4761 C   0  0  2  0  0  0  0  0  0  0  0  0
   10.8746  -38.7428   15.6762 O   0  0  0  0  0  0  0  0  0  0  0  0
   10.2474  -42.4961   17.7766 C   0  0  2  0  0  0  0  0  0  0  0  0
    9.6300  -43.5536   18.5936 N   0  0  0  0  0  0  0  0  0  0  0  0
    8.3672  -41.7016   13.8479 C   0  0  1  0  0  0  0  0  0  0  0  0
    5.7880  -43.8326   12.1467 C   0  0  1  0  0  0  0  0  0  0  0  0
    6.8632  -48.4244   14.2043 C   0  0  1  0  0  0  0  0  0  0  0  0
   11.1082  -36.7437   14.2936 C   0  0  2  0  0  0  0  0  0  0  0  0
   11.0428  -37.5328   13.0714 N   0  0  0  0  0  0  0  0  0  0  0  0
   10.3697  -41.1499   18.6167 C   0  0  0  0  0  0  0  0  0  0  0  0
    6.9306  -41.2907   14.1141 C   0  0  2  0  0  0  0  0  0  0  0  0
    6.3740  -41.9564   15.2825 O   0  0  0  0  0  0  0  0  0  0  0  0
    4.5844  -44.8816   12.2478 C   0  0  2  0  0  0  0  0  0  0  0  0
    4.2233  -45.1258   13.6710 N   0  0  0  0  0  0  0  0  0  0  0  0
    5.5769  -49.1617   14.6397 C   0  0  1  0  0  0  0  0  0  0  0  0
    5.0360  -49.8789   13.5026 O   0  0  0  0  0  0  0  0  0  0  0  0
   12.5980  -36.4549   14.7104 C   0  0  0  0  0  0  0  0  0  0  0  0
   11.0522  -40.0031   17.7287 C   0  0  2  0  0  0  0  0  0  0  0  0
   11.1747  -38.7462   18.4817 N   0  0  0  0  0  0  0  0  0  0  0  0
    6.2434  -41.5801   12.7903 C   0  0  2  0  0  0  0  0  0  0  0  0
    5.4103  -42.7039   12.8796 O   0  0  0  0  0  0  0  0  0  0  0  0
    5.0144  -46.1910   11.4044 C   0  0  1  0  0  0  0  0  0  0  0  0
    5.3140  -45.7745   10.0599 O   0  0  0  0  0  0  0  0  0  0  0  0
    5.6893  -50.1554   15.8275 C   0  0  1  0  0  0  0  0  0  0  0  0
    5.9324  -51.4613   15.2891 O   0  0  0  0  0  0  0  0  0  0  0  0
   12.5906  -35.5994   16.0191 C   0  0  2  0  0  0  0  0  0  0  0  0
   13.9238  -35.3002   16.4206 O   0  0  0  0  0  0  0  0  0  0  0  0
   10.2025  -39.7779   16.4469 C   0  0  2  0  0  0  0  0  0  0  0  0
    7.3207  -41.9537   11.7441 C   0  0  2  0  0  0  0  0  0  0  0  0
    8.5302  -41.6894   12.4404 O   0  0  0  0  0  0  0  0  0  0  0  0
    6.3627  -46.8669   11.9871 C   0  0  2  0  0  0  0  0  0  0  0  0
    6.0114  -47.2815   13.3206 O   0  0  0  0  0  0  0  0  0  0  0  0
    6.7793  -49.8393   16.8776 C   0  0  2  0  0  0  0  0  0  0  0  0
    6.1778  -50.1150   18.1616 O   0  0  0  0  0  0  0  0  0  0  0  0
   11.8611  -36.3846   17.1465 C   0  0  2  0  0  0  0  0  0  0  0  0
   10.4785  -36.6601   16.6972 O   0  0  0  0  0  0  0  0  0  0  0  0
   10.0044  -41.0828   15.6169 C   0  0  2  0  0  0  0  0  0  0  0  0
    9.1668  -40.7546   14.4826 O   0  0  0  0  0  0  0  0  0  0  0  0
    7.3063  -41.1129   10.4724 C   0  0  0  0  0  0  0  0  0  0  0  0
    5.9777  -41.1876    9.9336 O   0  0  0  0  0  0  0  0  0  0  0  0
    7.3761  -45.7420   12.0822 C   0  0  1  0  0  0  0  0  0  0  0  0
    7.1089  -44.4427   12.6502 O   0  0  0  0  0  0  0  0  0  0  0  0
    7.2799  -48.4047   16.7333 C   0  0  2  0  0  0  0  0  0  0  0  0
    7.6855  -48.0336   15.3867 O   0  0  0  0  0  0  0  0  0  0  0  0
   11.7882  -35.6031   18.4197 C   0  0  0  0  0  0  0  0  0  0  0  0
   13.0894  -35.4766   18.9262 O   0  0  0  0  0  0  0  0  0  0  0  0
    9.3476  -42.1973   16.5108 C   0  0  1  0  0  0  0  0  0  0  0  0
    9.2246  -43.4247   15.7121 O   0  0  0  0  0  0  0  0  0  0  0  0
    8.7544  -46.1993   12.6785 C   0  0  0  0  0  0  0  0  0  0  0  0
    8.7993  -46.1727   14.1606 N   0  0  0  0  0  0  0  0  0  0  0  0
    8.3673  -47.8326   17.6399 C   0  0  0  0  0  0  0  0  0  0  0  0
    8.6381  -46.4396   17.2923 O   0  0  0  0  0  0  0  0  0  0  0  0
  1  2  1  1  0  0  0
  1  8  1  0  0  0  0
  1 36  1  0  0  0  0
  3  4  1  1  0  0  0
  3 10  1  0  0  0  0
  3 47  1  0  0  0  0
  5 11  1  0  0  0  0
  5 30  1  0  0  0  0
  5 38  1  1  0  0  0
  6 21  1  1  0  0  0
  6 42  1  0  0  0  0
  7 15  1  0  0  0  0
  7 44  1  0  0  0  0
  7 32  1  1  0  0  0
  8  9  1  6  0  0  0
  8 17  1  0  0  0  0
 11 12  1  1  0  0  0
 11 20  1  0  0  0  0
 13  6  1  0  0  0  0
 13 14  1  1  0  0  0
 15 16  1  6  0  0  0
 15 24  1  0  0  0  0
 17 26  1  0  0  0  0
 18 10  1  0  0  0  0
 18 19  1  1  0  0  0
 20 21  1  1  0  0  0
 20 29  1  0  0  0  0
 22 13  1  0  0  0  0
 22 23  1  6  0  0  0
 24 25  1  6  0  0  0
 24 33  1  0  0  0  0
 26 27  1  1  0  0  0
 26 35  1  0  0  0  0
 28  2  1  6  0  0  0
 28 18  1  0  0  0  0
 29 30  1  0  0  0  0
 29 39  1  6  0  0  0
 31 22  1  0  0  0  0
 31 32  1  1  0  0  0
 31 41  1  0  0  0  0
 33 34  1  1  0  0  0
 33 43  1  0  0  0  0
 35 36  1  0  0  0  0
 35 45  1  1  0  0  0
 37 28  1  0  0  0  0
 37 38  1  6  0  0  0
 39 40  1  0  0  0  0
 41 42  1  0  0  0  0
 41 49  1  1  0  0  0
 43 44  1  0  0  0  0
 43 51  1  1  0  0  0
 45 46  1  0  0  0  0
 47 37  1  0  0  0  0
 47 48  1  6  0  0  0
 49 50  1  0  0  0  0
 51 52  1  0  0  0  0
M  END
>  <CHROM.1>
-164.28319106,113.39410671,-172.04506811,-133.83375984,-112.88364817,-111.73544769
-54.53224025,160.92834307,-67.63475442,-153.94992392,-85.78149989,-179.29079415
8.37539490,-42.95056397,14.84845229,0.66071338,-0.98410588,-0.62771666

>  <Name>
2fd0_lig

>  <RI>
2.85265e+07

>  <Rbt.Current_Directory>
/home/itssahil/PROJECTS/Mol_Feturizer/New_Systems/rnas/2fd0

>  <Rbt.Executable>
rbdock ($Id: //depot/dev/client3/rdock/2013.1/src/exe/rbdock.cxx#4 $)

>  <Rbt.Library>
libRbt.so (2013.1, Build901 2013/11/27)

>  <Rbt.Parameter_File>
/export/apps/rDock/src/rDock_2013.1_src/data/scripts/dock_solv.prm

>  <Rbt.Receptor>
prm/blind_docking_60.prm

>  <SCORE>
-3.75651

>  <SCORE.INTER>
-24.8398

>  <SCORE.INTER.CONST>
1

>  <SCORE.INTER.POLAR>
-1.68923

>  <SCORE.INTER.ROT>
12

>  <SCORE.INTER.SOLV>
23.5392

>  <SCORE.INTER.VDW>
-30.3755

>  <SCORE.INTER.norm>
-0.477688

>  <SCORE.INTRA>
21.0214

>  <SCORE.INTRA.DIHEDRAL>
12.2214

>  <SCORE.INTRA.DIHEDRAL.0>
23.9727

>  <SCORE.INTRA.POLAR>
0

>  <SCORE.INTRA.POLAR.0>
0

>  <SCORE.INTRA.REPUL>
0.370696

>  <SCORE.INTRA.REPUL.0>
0

>  <SCORE.INTRA.SOLV>
6.65899

>  <SCORE.INTRA.SOLV.lig_0>
-115.028

>  <SCORE.INTRA.VDW>
9.72774

>  <SCORE.INTRA.VDW.0>
-6.82393

>  <SCORE.INTRA.norm>
0.404258

>  <SCORE.RESTR>
0.0618272

>  <SCORE.RESTR.CAVITY>
0.0618272

>  <SCORE.RESTR.norm>
0.00118898

>  <SCORE.SYSTEM>
0

>  <SCORE.SYSTEM.CONST>
0

>  <SCORE.SYSTEM.DIHEDRAL>
0

>  <SCORE.SYSTEM.SOLV>
0

>  <SCORE.SYSTEM.norm>
0

>  <SCORE.heavy>
52

>  <SCORE.norm>
-0.0722406

>  <RMSD>
12.092

$$$$
2fd0_lig
 OpenBabel11021811433D
libRbt.so/2013.1/901 2013/11/27
 52 56  0  0  0  0  0  0  0  0999 V2000
   -2.3670  -47.9181    6.3714 C   0  0  2  0  0  0  0  0  0  0  0  0
   -3.1448  -49.0725    6.7169 O   0  0  0  0  0  0  0  0  0  0  0  0
   -3.1331  -53.3783    6.1239 C   0  0  2  0  0  0  0  0  0  0  0  0
   -3.0631  -54.6995    5.4784 N   0  0  0  0  0  0  0  0  0  0  0  0
    0.3354  -50.2193    7.3609 C   0  0  1  0  0  0  0  0  0  0  0  0
    2.3972  -50.3202   10.0312 C   0  0  1  0  0  0  0  0  0  0  0  0
    5.2479  -48.8135   13.4287 C   0  0  1  0  0  0  0  0  0  0  0  0
   -3.0011  -46.6605    7.0699 C   0  0  2  0  0  0  0  0  0  0  0  0
   -3.0846  -46.8267    8.5143 N   0  0  0  0  0  0  0  0  0  0  0  0
   -4.3036  -52.5117    5.4823 C   0  0  0  0  0  0  0  0  0  0  0  0
    1.0064  -51.5582    7.6074 C   0  0  2  0  0  0  0  0  0  0  0  0
    0.3846  -52.2941    8.6982 O   0  0  0  0  0  0  0  0  0  0  0  0
    3.6408  -49.3645   10.3467 C   0  0  2  0  0  0  0  0  0  0  0  0
    4.8083  -50.1632   10.8097 N   0  0  0  0  0  0  0  0  0  0  0  0
    5.5239  -49.4192   14.8232 C   0  0  1  0  0  0  0  0  0  0  0  0
    5.7595  -50.8420   14.6817 O   0  0  0  0  0  0  0  0  0  0  0  0
   -4.4105  -46.3406    6.4473 C   0  0  0  0  0  0  0  0  0  0  0  0
   -4.3850  -51.0778    6.1941 C   0  0  2  0  0  0  0  0  0  0  0  0
   -5.4584  -50.2551    5.6172 N   0  0  0  0  0  0  0  0  0  0  0  0
    2.4638  -51.1767    7.8047 C   0  0  2  0  0  0  0  0  0  0  0  0
    2.8500  -51.3028    9.1462 O   0  0  0  0  0  0  0  0  0  0  0  0
    3.1258  -48.2263   11.3715 C   0  0  1  0  0  0  0  0  0  0  0  0
    2.0110  -47.5510   10.7614 O   0  0  0  0  0  0  0  0  0  0  0  0
    6.6945  -48.8161   15.6460 C   0  0  1  0  0  0  0  0  0  0  0  0
    7.8696  -49.5907   15.3751 O   0  0  0  0  0  0  0  0  0  0  0  0
   -4.2430  -46.1664    4.9025 C   0  0  2  0  0  0  0  0  0  0  0  0
   -5.4967  -45.8568    4.3020 O   0  0  0  0  0  0  0  0  0  0  0  0
   -3.0174  -50.3553    6.0423 C   0  0  2  0  0  0  0  0  0  0  0  0
    2.6323  -49.6749    7.4717 C   0  0  2  0  0  0  0  0  0  0  0  0
    1.3587  -49.3320    6.9446 O   0  0  0  0  0  0  0  0  0  0  0  0
    2.5772  -48.8630   12.7527 C   0  0  2  0  0  0  0  0  0  0  0  0
    3.7253  -49.5100   13.3331 O   0  0  0  0  0  0  0  0  0  0  0  0
    7.0106  -47.3250   15.3865 C   0  0  2  0  0  0  0  0  0  0  0  0
    7.2819  -46.7506   16.6838 O   0  0  0  0  0  0  0  0  0  0  0  0
   -3.6729  -47.4789    4.2925 C   0  0  2  0  0  0  0  0  0  0  0  0
   -2.3662  -47.7548    4.9297 O   0  0  0  0  0  0  0  0  0  0  0  0
   -1.8274  -51.1909    6.6050 C   0  0  2  0  0  0  0  0  0  0  0  0
   -0.6145  -50.4373    6.3662 O   0  0  0  0  0  0  0  0  0  0  0  0
    3.6878  -49.3606    6.4174 C   0  0  0  0  0  0  0  0  0  0  0  0
    3.1141  -49.6780    5.1401 O   0  0  0  0  0  0  0  0  0  0  0  0
    1.5778  -49.9285   12.3435 C   0  0  1  0  0  0  0  0  0  0  0  0
    1.8081  -50.9202   11.3210 O   0  0  0  0  0  0  0  0  0  0  0  0
    5.8646  -46.6428   14.6444 C   0  0  2  0  0  0  0  0  0  0  0  0
    5.4219  -47.3314   13.4421 O   0  0  0  0  0  0  0  0  0  0  0  0
   -3.4549  -47.3651    2.8172 C   0  0  0  0  0  0  0  0  0  0  0  0
   -2.9913  -48.6032    2.3504 O   0  0  0  0  0  0  0  0  0  0  0  0
   -1.7755  -52.5974    5.9038 C   0  0  1  0  0  0  0  0  0  0  0  0
   -0.6768  -53.3740    6.4948 O   0  0  0  0  0  0  0  0  0  0  0  0
    0.9619  -50.7007   13.5636 C   0  0  0  0  0  0  0  0  0  0  0  0
   -0.2641  -51.4641   13.2267 N   0  0  0  0  0  0  0  0  0  0  0  0
    5.9198  -45.1682   14.2515 C   0  0  0  0  0  0  0  0  0  0  0  0
    7.0817  -44.9113   13.4038 O   0  0  0  0  0  0  0  0  0  0  0  0
  1  2  1  6  0  0  0
  1  8  1  0  0  0  0
  1 36  1  0  0  0  0
  3  4  1  6  0  0  0
  3 10  1  0  0  0  0
  3 47  1  0  0  0  0
  5 11  1  0  0  0  0
  5 30  1  0  0  0  0
  5 38  1  6  0  0  0
  6 21  1  6  0  0  0
  6 42  1  0  0  0  0
  7 15  1  0  0  0  0
  7 44  1  0  0  0  0
  7 32  1  1  0  0  0
  8  9  1  1  0  0  0
  8 17  1  0  0  0  0
 11 12  1  1  0  0  0
 11 20  1  0  0  0  0
 13  6  1  0  0  0  0
 13 14  1  1  0  0  0
 15 16  1  6  0  0  0
 15 24  1  0  0  0  0
 17 26  1  0  0  0  0
 18 10  1  0  0  0  0
 18 19  1  6  0  0  0
 20 21  1  1  0  0  0
 20 29  1  0  0  0  0
 22 13  1  0  0  0  0
 22 23  1  6  0  0  0
 24 25  1  6  0  0  0
 24 33  1  0  0  0  0
 26 27  1  6  0  0  0
 26 35  1  0  0  0  0
 28  2  1  1  0  0  0
 28 18  1  0  0  0  0
 29 30  1  0  0  0  0
 29 39  1  6  0  0  0
 31 22  1  0  0  0  0
 31 32  1  6  0  0  0
 31 41  1  0  0  0  0
 33 34  1  1  0  0  0
 33 43  1  0  0  0  0
 35 36  1  0  0  0  0
 35 45  1  6  0  0  0
 37 28  1  0  0  0  0
 37 38  1  6  0  0  0
 39 40  1  0  0  0  0
 41 42  1  0  0  0  0
 41 49  1  1  0  0  0
 43 44  1  0  0  0  0
 43 51  1  6  0  0  0
 45 46  1  0  0  0  0
 47 37  1  0  0  0  0
 47 48  1  1  0  0  0
 49 50  1  0  0  0  0
 51 52  1  0  0  0  0
M  END
>  <CHROM.1>
167.10301879,70.92088358,-104.70387869,142.21540226,-74.76917908,-153.67737083
77.26017302,45.36561227,-177.79450776,131.46588322,164.01085612,58.06905616
0.95449272,-49.35623727,9.18611575,3.00327699,0.78117432,-3.07985673

>  <Name>
2fd0_lig

>  <RI>
2.00683e+07

>  <Rbt.Current_Directory>
/home/itssahil/PROJECTS/Mol_Feturizer/New_Systems/rnas/2fd0

>  <Rbt.Executable>
rbdock ($Id: //depot/dev/client3/rdock/2013.1/src/exe/rbdock.cxx#4 $)

>  <Rbt.Library>
libRbt.so (2013.1, Build901 2013/11/27)

>  <Rbt.Parameter_File>
/export/apps/rDock/src/rDock_2013.1_src/data/scripts/dock_solv.prm

>  <Rbt.Receptor>
prm/pocket_docking_4.prm

>  <SCORE>
-1.29455

>  <SCORE.INTER>
-5.94903

>  <SCORE.INTER.CONST>
1

>  <SCORE.INTER.POLAR>
-1.37419

>  <SCORE.INTER.ROT>
12

>  <SCORE.INTER.SOLV>
19.3423

>  <SCORE.INTER.VDW>
-17.4328

>  <SCORE.INTER.norm>
-0.114404

>  <SCORE.INTRA>
4.60964

>  <SCORE.INTRA.DIHEDRAL>
3.19351

>  <SCORE.INTRA.DIHEDRAL.0>
23.9727

>  <SCORE.INTRA.POLAR>
0

>  <SCORE.INTRA.POLAR.0>
0

>  <SCORE.INTRA.REPUL>
0

>  <SCORE.INTRA.REPUL.0>
0

>  <SCORE.INTRA.SOLV>
-1.53395

>  <SCORE.INTRA.SOLV.lig_0>
-115.028

>  <SCORE.INTRA.VDW>
3.77986

>  <SCORE.INTRA.VDW.0>
-6.82393

>  <SCORE.INTRA.norm>
0.0886469

>  <SCORE.RESTR>
0.0448447

>  <SCORE.RESTR.CAVITY>
0.0448447

>  <SCORE.RESTR.norm>
0.000862398

>  <SCORE.SYSTEM>
0

>  <SCORE.SYSTEM.CONST>
0

>  <SCORE.SYSTEM.DIHEDRAL>
0

>  <SCORE.SYSTEM.SOLV>
0

>  <SCORE.SYSTEM.norm>
0

>  <SCORE.heavy>
52

>  <SCORE.norm>
-0.0248952

>  <RMSD>
12.100

$$$$
2fd0_lig
 OpenBabel11021811433D
libRbt.so/2013.1/901 2013/11/27
 52 56  0  0  0  0  0  0  0  0999 V2000
   -2.7014  -51.4778    1.7629 C   0  0  2  0  0  0  0  0  0  0  0  0
   -3.6373  -51.1529    2.8000 O   0  0  0  0  0  0  0  0  0  0  0  0
   -3.1561  -46.8609    3.2892 C   0  0  2  0  0  0  0  0  0  0  0  0
   -3.4110  -45.4601    3.6632 N   0  0  0  0  0  0  0  0  0  0  0  0
   -1.9940  -49.8706    6.4755 C   0  0  1  0  0  0  0  0  0  0  0  0
    0.3635  -51.3188   10.0488 C   0  0  1  0  0  0  0  0  0  0  0  0
    1.8475  -49.7819   14.8274 C   0  0  1  0  0  0  0  0  0  0  0  0
   -2.6930  -53.0377    1.5677 C   0  0  2  0  0  0  0  0  0  0  0  0
   -4.0199  -53.5532    1.2606 N   0  0  0  0  0  0  0  0  0  0  0  0
   -4.3300  -47.4079    2.3642 C   0  0  0  0  0  0  0  0  0  0  0  0
   -2.2579  -50.9978    7.4570 C   0  0  2  0  0  0  0  0  0  0  0  0
   -3.2754  -50.6486    8.4373 O   0  0  0  0  0  0  0  0  0  0  0  0
   -0.1474  -51.6588   11.5262 C   0  0  2  0  0  0  0  0  0  0  0  0
   -0.8548  -50.4894   12.1157 N   0  0  0  0  0  0  0  0  0  0  0  0
    1.7773  -48.2422   14.7163 C   0  0  1  0  0  0  0  0  0  0  0  0
    0.4210  -47.8542   14.3847 O   0  0  0  0  0  0  0  0  0  0  0  0
   -2.0823  -53.7449    2.8340 C   0  0  0  0  0  0  0  0  0  0  0  0
   -4.0447  -48.9296    1.9492 C   0  0  2  0  0  0  0  0  0  0  0  0
   -5.1173  -49.4606    1.0952 N   0  0  0  0  0  0  0  0  0  0  0  0
   -0.8747  -51.2989    8.0087 C   0  0  2  0  0  0  0  0  0  0  0  0
   -0.7413  -50.8522    9.3307 O   0  0  0  0  0  0  0  0  0  0  0  0
    1.1251  -52.1971   12.3640 C   0  0  1  0  0  0  0  0  0  0  0  0
    1.6733  -53.3272   11.6616 O   0  0  0  0  0  0  0  0  0  0  0  0
    2.2273  -47.4147   15.9507 C   0  0  1  0  0  0  0  0  0  0  0  0
    1.0664  -47.1404   16.7453 O   0  0  0  0  0  0  0  0  0  0  0  0
   -0.6601  -53.1508    3.0970 C   0  0  2  0  0  0  0  0  0  0  0  0
   -0.0641  -53.7793    4.2274 O   0  0  0  0  0  0  0  0  0  0  0  0
   -3.9093  -49.7915    3.2355 C   0  0  2  0  0  0  0  0  0  0  0  0
    0.1682  -50.4920    7.1988 C   0  0  2  0  0  0  0  0  0  0  0  0
   -0.6163  -49.9395    6.1515 O   0  0  0  0  0  0  0  0  0  0  0  0
    2.3028  -51.0923   12.4468 C   0  0  2  0  0  0  0  0  0  0  0  0
    1.7165  -49.9930   13.1689 O   0  0  0  0  0  0  0  0  0  0  0  0
    3.3034  -48.0657   16.8500 C   0  0  2  0  0  0  0  0  0  0  0  0
    4.2114  -47.0008   17.2078 O   0  0  0  0  0  0  0  0  0  0  0  0
   -0.7764  -51.6191    3.3423 C   0  0  2  0  0  0  0  0  0  0  0  0
   -1.3833  -51.0038    2.1411 O   0  0  0  0  0  0  0  0  0  0  0  0
   -2.8086  -49.2615    4.2043 C   0  0  2  0  0  0  0  0  0  0  0  0
   -2.8106  -50.1144    5.3742 O   0  0  0  0  0  0  0  0  0  0  0  0
    1.2849  -51.3213    6.5747 C   0  0  0  0  0  0  0  0  0  0  0  0
    2.0172  -51.9212    7.6542 O   0  0  0  0  0  0  0  0  0  0  0  0
    2.5524  -50.6525   11.0165 C   0  0  1  0  0  0  0  0  0  0  0  0
    1.5181  -50.3005   10.0739 O   0  0  0  0  0  0  0  0  0  0  0  0
    3.9815  -49.2323   16.1366 C   0  0  2  0  0  0  0  0  0  0  0  0
    3.0691  -50.2123   15.5687 O   0  0  0  0  0  0  0  0  0  0  0  0
    0.5584  -50.9823    3.5656 C   0  0  0  0  0  0  0  0  0  0  0  0
    1.3293  -51.1740    2.4103 O   0  0  0  0  0  0  0  0  0  0  0  0
   -3.1003  -47.7643    4.5862 C   0  0  1  0  0  0  0  0  0  0  0  0
   -2.0174  -47.2844    5.4560 O   0  0  0  0  0  0  0  0  0  0  0  0
    3.6467  -49.5335   10.8950 C   0  0  0  0  0  0  0  0  0  0  0  0
    4.1969  -49.3860    9.5257 N   0  0  0  0  0  0  0  0  0  0  0  0
    5.0781  -50.0603   16.8028 C   0  0  0  0  0  0  0  0  0  0  0  0
    4.5238  -50.8483   17.9010 O   0  0  0  0  0  0  0  0  0  0  0  0
  1  2  1  1  0  0  0
  1  8  1  0  0  0  0
  1 36  1  0  0  0  0
  3  4  1  1  0  0  0
  3 10  1  0  0  0  0
  3 47  1  0  0  0  0
  5 11  1  0  0  0  0
  5 30  1  0  0  0  0
  5 38  1  6  0  0  0
  6 21  1  6  0  0  0
  6 42  1  0  0  0  0
  7 15  1  0  0  0  0
  7 44  1  0  0  0  0
  7 32  1  6  0  0  0
  8  9  1  1  0  0  0
  8 17  1  0  0  0  0
 11 12  1  1  0  0  0
 11 20  1  0  0  0  0
 13  6  1  0  0  0  0
 13 14  1  1  0  0  0
 15 16  1  1  0  0  0
 15 24  1  0  0  0  0
 17 26  1  0  0  0  0
 18 10  1  0  0  0  0
 18 19  1  6  0  0  0
 20 21  1  1  0  0  0
 20 29  1  0  0  0  0
 22 13  1  0  0  0  0
 22 23  1  6  0  0  0
 24 25  1  1  0  0  0
 24 33  1  0  0  0  0
 26 27  1  1  0  0  0
 26 35  1  0  0  0  0
 28  2  1  6  0  0  0
 28 18  1  0  0  0  0
 29 30  1  0  0  0  0
 29 39  1  6  0  0  0
 31 22  1  0  0  0  0
 31 32  1  1  0  0  0
 31 41  1  0  0  0  0
 33 34  1  6  0  0  0
 33 43  1  0  0  0  0
 35 36  1  0  0  0  0
 35 45  1  6  0  0  0
 37 28  1  0  0  0  0
 37 38  1  1  0  0  0
 39 40  1  0  0  0  0
 41 42  1  0  0  0  0
 41 49  1  1  0  0  0
 43 44  1  0  0  0  0
 43 51  1  1  0  0  0
 45 46  1  0  0  0  0
 47 37  1  0  0  0  0
 47 48  1  1  0  0  0
 49 50  1  0  0  0  0
 51 52  1  0  0  0  0
M  END
>  <CHROM.1>
-179.44905658,-178.31335743,-138.67484813,149.75003648,166.42837671,44.10877444
-63.07845705,93.79747937,61.37978789,-176.23865606,162.35248645,68.46883278
-0.11056574,-50.19849909,8.39041585,-2.27161045,-0.89791027,0.89384309

>  <Name>
2fd0_lig

>  <RI>
0

>  <Rbt.Current_Directory>
/home/itssahil/PROJECTS/Mol_Feturizer/New_Systems/rnas/2fd0

>  <Rbt.Executable>
rbdock ($Id: //depot/dev/client3/rdock/2013.1/src/exe/rbdock.cxx#4 $)

>  <Rbt.Library>
libRbt.so (2013.1, Build901 2013/11/27)

>  <Rbt.Parameter_File>
/export/apps/rDock/src/rDock_2013.1_src/data/scripts/dock_solv.prm

>  <Rbt.Receptor>
prm/pocket_docking_8.prm

>  <SCORE>
-14.586

>  <SCORE.INTER>
-10.6249

>  <SCORE.INTER.CONST>
1

>  <SCORE.INTER.POLAR>
-0.881851

>  <SCORE.INTER.ROT>
12

>  <SCORE.INTER.SOLV>
16.5466

>  <SCORE.INTER.VDW>
-21.2593

>  <SCORE.INTER.norm>
-0.204325

>  <SCORE.INTRA>
-3.96115

>  <SCORE.INTRA.DIHEDRAL>
-5.78141

>  <SCORE.INTRA.DIHEDRAL.0>
23.9727

>  <SCORE.INTRA.POLAR>
0

>  <SCORE.INTRA.POLAR.0>
0

>  <SCORE.INTRA.REPUL>
0

>  <SCORE.INTRA.REPUL.0>
0

>  <SCORE.INTRA.SOLV>
-2.49425

>  <SCORE.INTRA.SOLV.lig_0>
-115.028

>  <SCORE.INTRA.VDW>
0.17668

>  <SCORE.INTRA.VDW.0>
-6.82393

>  <SCORE.INTRA.norm>
-0.076176

>  <SCORE.RESTR>
0

>  <SCORE.RESTR.CAVITY>
0

>  <SCORE.RESTR.norm>
0

>  <SCORE.SYSTEM>
0

>  <SCORE.SYSTEM.CONST>
0

>  <SCORE.SYSTEM.DIHEDRAL>
0

>  <SCORE.SYSTEM.SOLV>
0

>  <SCORE.SYSTEM.norm>
0

>  <SCORE.heavy>
52

>  <SCORE.norm>
-0.280501

>  <RMSD>
12.102

$$$$
2fd0_lig
 OpenBabel11021811433D
libRbt.so/2013.1/901 2013/11/27
 52 56  0  0  0  0  0  0  0  0999 V2000
   -3.0234  -51.2482    7.5400 C   0  0  2  0  0  0  0  0  0  0  0  0
   -2.7331  -49.8577    7.3418 O   0  0  0  0  0  0  0  0  0  0  0  0
   -5.1545  -46.2508    7.4828 C   0  0  2  0  0  0  0  0  0  0  0  0
   -6.0226  -45.1693    7.9766 N   0  0  0  0  0  0  0  0  0  0  0  0
   -0.6993  -46.4115    8.5401 C   0  0  1  0  0  0  0  0  0  0  0  0
    2.3876  -45.1555   11.0587 C   0  0  1  0  0  0  0  0  0  0  0  0
    6.7502  -43.6669   12.7879 C   0  0  1  0  0  0  0  0  0  0  0  0
   -2.7235  -51.6127    9.0395 C   0  0  2  0  0  0  0  0  0  0  0  0
   -3.4815  -50.7793    9.9624 N   0  0  0  0  0  0  0  0  0  0  0  0
   -5.8562  -47.6632    7.6964 C   0  0  0  0  0  0  0  0  0  0  0  0
    0.2596  -46.7093    9.6782 C   0  0  2  0  0  0  0  0  0  0  0  0
   -0.1405  -46.0639   10.9197 O   0  0  0  0  0  0  0  0  0  0  0  0
    3.1993  -43.8197   11.3994 C   0  0  2  0  0  0  0  0  0  0  0  0
    4.3461  -43.6535   10.4652 N   0  0  0  0  0  0  0  0  0  0  0  0
    7.9116  -44.3751   12.0548 C   0  0  1  0  0  0  0  0  0  0  0  0
    7.6277  -44.4001   10.6340 O   0  0  0  0  0  0  0  0  0  0  0  0
   -1.1785  -51.5262    9.3258 C   0  0  0  0  0  0  0  0  0  0  0  0
   -4.9140  -48.8383    7.1480 C   0  0  2  0  0  0  0  0  0  0  0  0
   -5.5388  -50.1559    7.3361 N   0  0  0  0  0  0  0  0  0  0  0  0
    1.6038  -46.2871    9.1093 C   0  0  2  0  0  0  0  0  0  0  0  0
    2.0615  -45.1015    9.7005 O   0  0  0  0  0  0  0  0  0  0  0  0
    3.5821  -43.8755   12.9683 C   0  0  1  0  0  0  0  0  0  0  0  0
    2.3626  -44.0245   13.7178 O   0  0  0  0  0  0  0  0  0  0  0  0
    9.3395  -43.7975   12.2511 C   0  0  1  0  0  0  0  0  0  0  0  0
    9.5909  -42.8708   11.1871 O   0  0  0  0  0  0  0  0  0  0  0  0
   -0.4323  -52.4492    8.3080 C   0  0  2  0  0  0  0  0  0  0  0  0
    0.9713  -52.4131    8.5462 O   0  0  0  0  0  0  0  0  0  0  0  0
   -3.5485  -48.7836    7.8883 C   0  0  2  0  0  0  0  0  0  0  0  0
    1.4236  -45.9513    7.6095 C   0  0  2  0  0  0  0  0  0  0  0  0
    0.0857  -46.3590    7.3616 O   0  0  0  0  0  0  0  0  0  0  0  0
    4.4972  -45.1613   13.3196 C   0  0  2  0  0  0  0  0  0  0  0  0
    5.7068  -44.9607   12.5645 O   0  0  0  0  0  0  0  0  0  0  0  0
    9.6076  -43.0911   13.6001 C   0  0  2  0  0  0  0  0  0  0  0  0
   10.9320  -43.5042   14.0021 O   0  0  0  0  0  0  0  0  0  0  0  0
   -0.7364  -51.9732    6.8586 C   0  0  2  0  0  0  0  0  0  0  0  0
   -2.1993  -52.0417    6.6474 O   0  0  0  0  0  0  0  0  0  0  0  0
   -2.8459  -47.3979    7.7575 C   0  0  2  0  0  0  0  0  0  0  0  0
   -1.6167  -47.4589    8.5200 O   0  0  0  0  0  0  0  0  0  0  0  0
    2.3408  -46.7150    6.6609 C   0  0  0  0  0  0  0  0  0  0  0  0
    2.0609  -48.1119    6.8386 O   0  0  0  0  0  0  0  0  0  0  0  0
    3.7613  -46.3567   12.7444 C   0  0  1  0  0  0  0  0  0  0  0  0
    3.2001  -46.4135   11.4163 O   0  0  0  0  0  0  0  0  0  0  0  0
    8.5256  -43.4311   14.6215 C   0  0  2  0  0  0  0  0  0  0  0  0
    7.1627  -43.2318   14.1545 O   0  0  0  0  0  0  0  0  0  0  0  0
   -0.0785  -52.8399    5.8324 C   0  0  0  0  0  0  0  0  0  0  0  0
   -0.5188  -54.1563    6.0294 O   0  0  0  0  0  0  0  0  0  0  0  0
   -3.7928  -46.2598    8.2872 C   0  0  1  0  0  0  0  0  0  0  0  0
   -3.1196  -44.9670    8.1004 O   0  0  0  0  0  0  0  0  0  0  0  0
    4.5272  -47.7118   12.9482 C   0  0  0  0  0  0  0  0  0  0  0  0
    4.6455  -48.1202   14.3690 N   0  0  0  0  0  0  0  0  0  0  0  0
    8.5408  -42.8579   16.0368 C   0  0  0  0  0  0  0  0  0  0  0  0
    9.7921  -43.1983   16.7097 O   0  0  0  0  0  0  0  0  0  0  0  0
  1  2  1  1  0  0  0
  1  8  1  0  0  0  0
  1 36  1  0  0  0  0
  3  4  1  1  0  0  0
  3 10  1  0  0  0  0
  3 47  1  0  0  0  0
  5 11  1  0  0  0  0
  5 30  1  0  0  0  0
  5 38  1  6  0  0  0
  6 21  1  6  0  0  0
  6 42  1  0  0  0  0
  7 15  1  0  0  0  0
  7 44  1  0  0  0  0
  7 32  1  1  0  0  0
  8  9  1  1  0  0  0
  8 17  1  0  0  0  0
 11 12  1  1  0  0  0
 11 20  1  0  0  0  0
 13  6  1  0  0  0  0
 13 14  1  6  0  0  0
 15 16  1  6  0  0  0
 15 24  1  0  0  0  0
 17 26  1  0  0  0  0
 18 10  1  0  0  0  0
 18 19  1  1  0  0  0
 20 21  1  1  0  0  0
 20 29  1  0  0  0  0
 22 13  1  0  0  0  0
 22 23  1  1  0  0  0
 24 25  1  6  0  0  0
 24 33  1  0  0  0  0
 26 27  1  1  0  0  0
 26 35  1  0  0  0  0
 28  2  1  6  0  0  0
 28 18  1  0  0  0  0
 29 30  1  0  0  0  0
 29 39  1  6  0  0  0
 31 22  1  0  0  0  0
 31 32  1  6  0  0  0
 31 41  1  0  0  0  0
 33 34  1  1  0  0  0
 33 43  1  0  0  0  0
 35 36  1  0  0  0  0
 35 45  1  6  0  0  0
 37 28  1  0  0  0  0
 37 38  1  1  0  0  0
 39 40  1  0  0  0  0
 41 42  1  0  0  0  0
 41 49  1  6  0  0  0
 43 44  1  0  0  0  0
 43 51  1  1  0  0  0
 45 46  1  0  0  0  0
 47 37  1  0  0  0  0
 47 48  1  6  0  0  0
 49 50  1  0  0  0  0
 51 52  1  0  0  0  0
M  END
>  <CHROM.1>
-71.18571070,166.93789643,166.58006709,162.22867220,66.24529402,-67.63575144
60.01137097,62.28757091,57.51690716,175.53231223,65.94877414,-57.16530158
1.76179343,-46.90245199,10.10448092,-2.55690805,-0.33545262,0.32867960

>  <Name>
2fd0_lig

>  <RI>
0

>  <Rbt.Current_Directory>
/home/itssahil/PROJECTS/Mol_Feturizer/New_Systems/rnas/2fd0

>  <Rbt.Executable>
rbdock ($Id: //depot/dev/client3/rdock/2013.1/src/exe/rbdock.cxx#4 $)

>  <Rbt.Library>
libRbt.so (2013.1, Build901 2013/11/27)

>  <Rbt.Parameter_File>
/export/apps/rDock/src/rDock_2013.1_src/data/scripts/dock_solv.prm

>  <Rbt.Receptor>
prm/pocket_docking_6.prm

>  <SCORE>
-9.98635

>  <SCORE.INTER>
-4.54638

>  <SCORE.INTER.CONST>
1

>  <SCORE.INTER.POLAR>
-0.916515

>  <SCORE.INTER.ROT>
12

>  <SCORE.INTER.SOLV>
7.35584

>  <SCORE.INTER.VDW>
-14.0278

>  <SCORE.INTER.norm>
-0.0874304

>  <SCORE.INTRA>
-5.43997

>  <SCORE.INTRA.DIHEDRAL>
-17.8578

>  <SCORE.INTRA.DIHEDRAL.0>
23.9727

>  <SCORE.INTRA.POLAR>
0

>  <SCORE.INTRA.POLAR.0>
0

>  <SCORE.INTRA.REPUL>
0

>  <SCORE.INTRA.REPUL.0>
0

>  <SCORE.INTRA.SOLV>
0.818125

>  <SCORE.INTRA.SOLV.lig_0>
-115.028

>  <SCORE.INTRA.VDW>
3.07989

>  <SCORE.INTRA.VDW.0>
-6.82393

>  <SCORE.INTRA.norm>
-0.104615

>  <SCORE.RESTR>
0

>  <SCORE.RESTR.CAVITY>
0

>  <SCORE.RESTR.norm>
0

>  <SCORE.SYSTEM>
0

>  <SCORE.SYSTEM.CONST>
0

>  <SCORE.SYSTEM.DIHEDRAL>
0

>  <SCORE.SYSTEM.SOLV>
0

>  <SCORE.SYSTEM.norm>
0

>  <SCORE.heavy>
52

>  <SCORE.norm>
-0.192045

>  <RMSD>
12.105

$$$$
2fd0_lig
 OpenBabel11021811433D
libRbt.so/2013.1/901 2013/11/27
 52 56  0  0  0  0  0  0  0  0999 V2000
   11.3047  -35.9554   14.0191 C   0  0  2  0  0  0  0  0  0  0  0  0
   11.8277  -36.9927   14.8601 O   0  0  0  0  0  0  0  0  0  0  0  0
   10.7190  -40.3275   17.4180 C   0  0  2  0  0  0  0  0  0  0  0  0
    9.9186  -41.2665   18.2208 N   0  0  0  0  0  0  0  0  0  0  0  0
    9.4710  -39.9959   13.2582 C   0  0  1  0  0  0  0  0  0  0  0  0
    7.9355  -44.0646   13.2031 C   0  0  1  0  0  0  0  0  0  0  0  0
    4.4342  -47.2200   13.1391 C   0  0  1  0  0  0  0  0  0  0  0  0
   12.5030  -35.2704   13.2663 C   0  0  2  0  0  0  0  0  0  0  0  0
   13.2804  -36.2314   12.4964 N   0  0  0  0  0  0  0  0  0  0  0  0
   10.5345  -38.8421   17.9589 C   0  0  0  0  0  0  0  0  0  0  0  0
    9.6651  -41.4625   13.5976 C   0  0  2  0  0  0  0  0  0  0  0  0
   10.1968  -42.2224   12.4761 O   0  0  0  0  0  0  0  0  0  0  0  0
    6.8819  -44.8010   12.2506 C   0  0  2  0  0  0  0  0  0  0  0  0
    5.4903  -44.4338   12.6297 N   0  0  0  0  0  0  0  0  0  0  0  0
    5.0369  -48.6019   12.8003 C   0  0  1  0  0  0  0  0  0  0  0  0
    4.9168  -49.4659   13.9575 O   0  0  0  0  0  0  0  0  0  0  0  0
   13.4099  -34.4826   14.2829 C   0  0  0  0  0  0  0  0  0  0  0  0
   11.4155  -37.8230   17.0903 C   0  0  2  0  0  0  0  0  0  0  0  0
   11.2606  -36.4413   17.5685 N   0  0  0  0  0  0  0  0  0  0  0  0
    8.2920  -41.8805   14.0962 C   0  0  2  0  0  0  0  0  0  0  0  0
    7.6363  -42.6997   13.1669 O   0  0  0  0  0  0  0  0  0  0  0  0
    7.2199  -46.3806   12.2888 C   0  0  1  0  0  0  0  0  0  0  0  0
    8.5906  -46.5513   11.8849 O   0  0  0  0  0  0  0  0  0  0  0  0
    4.4544  -49.3550   11.5737 C   0  0  1  0  0  0  0  0  0  0  0  0
    3.4151  -50.2239   12.0420 O   0  0  0  0  0  0  0  0  0  0  0  0
   12.5137  -33.4670   15.0641 C   0  0  2  0  0  0  0  0  0  0  0  0
   13.3025  -32.7190   15.9842 O   0  0  0  0  0  0  0  0  0  0  0  0
   10.9885  -37.9237   15.5992 C   0  0  2  0  0  0  0  0  0  0  0  0
    7.4058  -40.6184   14.2235 C   0  0  2  0  0  0  0  0  0  0  0  0
    8.3304  -39.5676   13.9816 O   0  0  0  0  0  0  0  0  0  0  0  0
    7.1029  -46.9857   13.7836 C   0  0  2  0  0  0  0  0  0  0  0  0
    5.7180  -46.8094   14.1370 O   0  0  0  0  0  0  0  0  0  0  0  0
    3.8897  -48.4706   10.4382 C   0  0  2  0  0  0  0  0  0  0  0  0
    4.3160  -49.0944    9.2071 O   0  0  0  0  0  0  0  0  0  0  0  0
   11.3999  -34.2399   15.8269 C   0  0  2  0  0  0  0  0  0  0  0  0
   10.5955  -34.9882   14.8357 O   0  0  0  0  0  0  0  0  0  0  0  0
   11.0964  -39.3740   15.0369 C   0  0  2  0  0  0  0  0  0  0  0  0
   10.6327  -39.3452   13.6657 O   0  0  0  0  0  0  0  0  0  0  0  0
    6.7828  -40.4015   15.5980 C   0  0  0  0  0  0  0  0  0  0  0  0
    7.6231  -41.0698   16.5511 O   0  0  0  0  0  0  0  0  0  0  0  0
    7.9443  -46.0770   14.6598 C   0  0  1  0  0  0  0  0  0  0  0  0
    7.8951  -44.6351   14.6326 O   0  0  0  0  0  0  0  0  0  0  0  0
    4.3581  -47.0254   10.5845 C   0  0  2  0  0  0  0  0  0  0  0  0
    4.1382  -46.4438   11.8993 O   0  0  0  0  0  0  0  0  0  0  0  0
   10.4834  -33.3193   16.5683 C   0  0  0  0  0  0  0  0  0  0  0  0
    9.4970  -34.0975   17.1904 O   0  0  0  0  0  0  0  0  0  0  0  0
   10.2371  -40.3580   15.9120 C   0  0  1  0  0  0  0  0  0  0  0  0
   10.4042  -41.7195   15.3848 O   0  0  0  0  0  0  0  0  0  0  0  0
    7.9183  -46.4818   16.1764 C   0  0  0  0  0  0  0  0  0  0  0  0
    8.7933  -47.6348   16.4993 N   0  0  0  0  0  0  0  0  0  0  0  0
    3.9380  -45.9356    9.6006 C   0  0  0  0  0  0  0  0  0  0  0  0
    4.8065  -44.7684    9.7338 O   0  0  0  0  0  0  0  0  0  0  0  0
  1  2  1  1  0  0  0
  1  8  1  0  0  0  0
  1 36  1  0  0  0  0
  3  4  1  1  0  0  0
  3 10  1  0  0  0  0
  3 47  1  0  0  0  0
  5 11  1  0  0  0  0
  5 30  1  0  0  0  0
  5 38  1  1  0  0  0
  6 21  1  1  0  0  0
  6 42  1  0  0  0  0
  7 15  1  0  0  0  0
  7 44  1  0  0  0  0
  7 32  1  1  0  0  0
  8  9  1  1  0  0  0
  8 17  1  0  0  0  0
 11 12  1  6  0  0  0
 11 20  1  0  0  0  0
 13  6  1  0  0  0  0
 13 14  1  1  0  0  0
 15 16  1  1  0  0  0
 15 24  1  0  0  0  0
 17 26  1  0  0  0  0
 18 10  1  0  0  0  0
 18 19  1  1  0  0  0
 20 21  1  6  0  0  0
 20 29  1  0  0  0  0
 22 13  1  0  0  0  0
 22 23  1  1  0  0  0
 24 25  1  1  0  0  0
 24 33  1  0  0  0  0
 26 27  1  1  0  0  0
 26 35  1  0  0  0  0
 28  2  1  6  0  0  0
 28 18  1  0  0  0  0
 29 30  1  0  0  0  0
 29 39  1  1  0  0  0
 31 22  1  0  0  0  0
 31 32  1  1  0  0  0
 31 41  1  0  0  0  0
 33 34  1  6  0  0  0
 33 43  1  0  0  0  0
 35 36  1  0  0  0  0
 35 45  1  6  0  0  0
 37 28  1  0  0  0  0
 37 38  1  6  0  0  0
 39 40  1  0  0  0  0
 41 42  1  0  0  0  0
 41 49  1  1  0  0  0
 43 44  1  0  0  0  0
 43 51  1  6  0  0  0
 45 46  1  0  0  0  0
 47 37  1  0  0  0  0
 47 48  1  6  0  0  0
 49 50  1  0  0  0  0
 51 52  1  0  0  0  0
M  END
>  <CHROM.1>
-173.51954999,-58.69070743,169.89166930,46.75495089,84.31166459,-124.91234152
25.00615293,47.32824158,178.39092980,-113.51859296,78.29780106,-163.73802864
8.47294990,-41.87687988,14.06836064,0.37364705,-1.06201630,-0.87147260

>  <Name>
2fd0_lig

>  <RI>
2.60878e+07

>  <Rbt.Current_Directory>
/home/itssahil/PROJECTS/Mol_Feturizer/New_Systems/rnas/2fd0

>  <Rbt.Executable>
rbdock ($Id: //depot/dev/client3/rdock/2013.1/src/exe/rbdock.cxx#4 $)

>  <Rbt.Library>
libRbt.so (2013.1, Build901 2013/11/27)

>  <Rbt.Parameter_File>
/export/apps/rDock/src/rDock_2013.1_src/data/scripts/dock_solv.prm

>  <Rbt.Receptor>
prm/blind_docking_80.prm

>  <SCORE>
18.2062

>  <SCORE.INTER>
-11.2766

>  <SCORE.INTER.CONST>
1

>  <SCORE.INTER.POLAR>
-0.937868

>  <SCORE.INTER.ROT>
12

>  <SCORE.INTER.SOLV>
22.8831

>  <SCORE.INTER.VDW>
-23.6192

>  <SCORE.INTER.norm>
-0.216857

>  <SCORE.INTRA>
27.1978

>  <SCORE.INTRA.DIHEDRAL>
1.26078

>  <SCORE.INTRA.DIHEDRAL.0>
23.9727

>  <SCORE.INTRA.POLAR>
0

>  <SCORE.INTRA.POLAR.0>
0

>  <SCORE.INTRA.REPUL>
0.0111604

>  <SCORE.INTRA.REPUL.0>
0

>  <SCORE.INTRA.SOLV>
6.50464

>  <SCORE.INTRA.SOLV.lig_0>
-115.028

>  <SCORE.INTRA.VDW>
23.2593

>  <SCORE.INTRA.VDW.0>
-6.82393

>  <SCORE.INTRA.norm>
0.523034

>  <SCORE.RESTR>
2.28502

>  <SCORE.RESTR.CAVITY>
2.28502

>  <SCORE.RESTR.norm>
0.0439426

>  <SCORE.SYSTEM>
0

>  <SCORE.SYSTEM.CONST>
0

>  <SCORE.SYSTEM.DIHEDRAL>
0

>  <SCORE.SYSTEM.SOLV>
0

>  <SCORE.SYSTEM.norm>
0

>  <SCORE.heavy>
52

>  <SCORE.norm>
0.350119

>  <RMSD>
12.119

$$$$
2fd0_lig
 OpenBabel11021811433D
libRbt.so/2013.1/901 2013/11/27
 52 56  0  0  0  0  0  0  0  0999 V2000
   -2.5760  -50.6369    4.5952 C   0  0  2  0  0  0  0  0  0  0  0  0
   -2.1679  -50.8173    5.9583 O   0  0  0  0  0  0  0  0  0  0  0  0
   -0.5844  -53.9363    8.5384 C   0  0  2  0  0  0  0  0  0  0  0  0
    0.1952  -55.0877    9.0216 N   0  0  0  0  0  0  0  0  0  0  0  0
    0.7074  -49.3309    7.9221 C   0  0  1  0  0  0  0  0  0  0  0  0
    1.7021  -48.5489   11.9197 C   0  0  1  0  0  0  0  0  0  0  0  0
    4.9299  -47.7560   14.3367 C   0  0  1  0  0  0  0  0  0  0  0  0
   -3.0274  -49.1435    4.4020 C   0  0  2  0  0  0  0  0  0  0  0  0
   -1.9730  -48.2068    4.7648 N   0  0  0  0  0  0  0  0  0  0  0  0
   -1.4458  -54.3481    7.2651 C   0  0  0  0  0  0  0  0  0  0  0  0
    1.1804  -49.8360    9.2729 C   0  0  2  0  0  0  0  0  0  0  0  0
    0.0924  -49.9428   10.2336 O   0  0  0  0  0  0  0  0  0  0  0  0
    1.3258  -47.3479   12.9073 C   0  0  2  0  0  0  0  0  0  0  0  0
    2.3484  -46.2692   12.8304 N   0  0  0  0  0  0  0  0  0  0  0  0
    5.6347  -47.3699   15.6565 C   0  0  1  0  0  0  0  0  0  0  0  0
    5.5756  -48.4937   16.5695 O   0  0  0  0  0  0  0  0  0  0  0  0
   -4.3478  -48.8614    5.2102 C   0  0  0  0  0  0  0  0  0  0  0  0
   -2.3023  -53.0959    6.7474 C   0  0  2  0  0  0  0  0  0  0  0  0
   -3.1063  -53.4494    5.5683 N   0  0  0  0  0  0  0  0  0  0  0  0
    2.2924  -48.8638    9.6290 C   0  0  2  0  0  0  0  0  0  0  0  0
    1.9020  -47.9909   10.6538 O   0  0  0  0  0  0  0  0  0  0  0  0
    1.0951  -47.9849   14.3743 C   0  0  1  0  0  0  0  0  0  0  0  0
    0.0735  -48.9926   14.2652 O   0  0  0  0  0  0  0  0  0  0  0  0
    7.1113  -46.8981   15.5674 C   0  0  1  0  0  0  0  0  0  0  0  0
    7.9527  -48.0410   15.7674 O   0  0  0  0  0  0  0  0  0  0  0  0
   -5.4335  -49.8942    4.7639 C   0  0  2  0  0  0  0  0  0  0  0  0
   -6.6532  -49.6605    5.4611 O   0  0  0  0  0  0  0  0  0  0  0  0
   -1.3382  -51.9257    6.4058 C   0  0  2  0  0  0  0  0  0  0  0  0
    2.5690  -47.9578    8.4054 C   0  0  2  0  0  0  0  0  0  0  0  0
    1.7677  -48.5528    7.3947 O   0  0  0  0  0  0  0  0  0  0  0  0
    2.4204  -48.7318   14.9219 C   0  0  2  0  0  0  0  0  0  0  0  0
    3.4049  -47.6865   15.0310 O   0  0  0  0  0  0  0  0  0  0  0  0
    7.5240  -46.2007   14.2506 C   0  0  2  0  0  0  0  0  0  0  0  0
    8.3666  -45.0942   14.6408 O   0  0  0  0  0  0  0  0  0  0  0  0
   -4.9259  -51.3360    5.0526 C   0  0  2  0  0  0  0  0  0  0  0  0
   -3.6697  -51.5430    4.2985 O   0  0  0  0  0  0  0  0  0  0  0  0
   -0.4294  -51.5220    7.6067 C   0  0  2  0  0  0  0  0  0  0  0  0
    0.4464  -50.4621    7.1532 O   0  0  0  0  0  0  0  0  0  0  0  0
    4.0156  -47.9447    7.9241 C   0  0  0  0  0  0  0  0  0  0  0  0
    4.7669  -47.1695    8.8706 O   0  0  0  0  0  0  0  0  0  0  0  0
    2.8427  -49.6795   13.8151 C   0  0  1  0  0  0  0  0  0  0  0  0
    2.9357  -49.3224   12.4201 O   0  0  0  0  0  0  0  0  0  0  0  0
    6.2975  -45.7798   13.4456 C   0  0  2  0  0  0  0  0  0  0  0  0
    5.3193  -46.8343   13.2295 O   0  0  0  0  0  0  0  0  0  0  0  0
   -5.9071  -52.3761    4.6139 C   0  0  0  0  0  0  0  0  0  0  0  0
   -6.9790  -52.3700    5.5177 O   0  0  0  0  0  0  0  0  0  0  0  0
    0.3898  -52.7675    8.1070 C   0  0  1  0  0  0  0  0  0  0  0  0
    1.1933  -52.3625    9.2688 O   0  0  0  0  0  0  0  0  0  0  0  0
    4.1564  -50.4723   14.1468 C   0  0  0  0  0  0  0  0  0  0  0  0
    5.3411  -50.0047   13.3870 N   0  0  0  0  0  0  0  0  0  0  0  0
    6.4187  -45.0774   12.0951 C   0  0  0  0  0  0  0  0  0  0  0  0
    7.4569  -44.0508   12.1475 O   0  0  0  0  0  0  0  0  0  0  0  0
  1  2  1  1  0  0  0
  1  8  1  0  0  0  0
  1 36  1  0  0  0  0
  3  4  1  6  0  0  0
  3 10  1  0  0  0  0
  3 47  1  0  0  0  0
  5 11  1  0  0  0  0
  5 30  1  0  0  0  0
  5 38  1  6  0  0  0
  6 21  1  6  0  0  0
  6 42  1  0  0  0  0
  7 15  1  0  0  0  0
  7 44  1  0  0  0  0
  7 32  1  1  0  0  0
  8  9  1  1  0  0  0
  8 17  1  0  0  0  0
 11 12  1  1  0  0  0
 11 20  1  0  0  0  0
 13  6  1  0  0  0  0
 13 14  1  1  0  0  0
 15 16  1  1  0  0  0
 15 24  1  0  0  0  0
 17 26  1  0  0  0  0
 18 10  1  0  0  0  0
 18 19  1  6  0  0  0
 20 21  1  1  0  0  0
 20 29  1  0  0  0  0
 22 13  1  0  0  0  0
 22 23  1  6  0  0  0
 24 25  1  6  0  0  0
 24 33  1  0  0  0  0
 26 27  1  1  0  0  0
 26 35  1  0  0  0  0
 28  2  1  1  0  0  0
 28 18  1  0  0  0  0
 29 30  1  0  0  0  0
 29 39  1  6  0  0  0
 31 22  1  0  0  0  0
 31 32  1  6  0  0  0
 31 41  1  0  0  0  0
 33 34  1  1  0  0  0
 33 43  1  0  0  0  0
 35 36  1  0  0  0  0
 35 45  1  6  0  0  0
 37 28  1  0  0  0  0
 37 38  1  6  0  0  0
 39 40  1  0  0  0  0
 41 42  1  0  0  0  0
 41 49  1  1  0  0  0
 43 44  1  0  0  0  0
 43 51  1  6  0  0  0
 45 46  1  0  0  0  0
 47 37  1  0  0  0  0
 47 48  1  1  0  0  0
 49 50  1  0  0  0  0
 51 52  1  0  0  0  0
M  END
>  <CHROM.1>
-161.37867325,53.41190093,177.77202677,-129.78748609,67.76837162,-87.77267617
-74.18478989,-127.11488374,-73.50493177,136.44483651,-106.63862849,-43.13236793
1.27444225,-49.35867638,9.98898335,-2.90499227,0.77618905,2.34316067

>  <Name>
2fd0_lig

>  <RI>
2.89522e+07

>  <Rbt.Current_Directory>
/home/itssahil/PROJECTS/Mol_Feturizer/New_Systems/rnas/2fd0

>  <Rbt.Executable>
rbdock ($Id: //depot/dev/client3/rdock/2013.1/src/exe/rbdock.cxx#4 $)

>  <Rbt.Library>
libRbt.so (2013.1, Build901 2013/11/27)

>  <Rbt.Parameter_File>
/export/apps/rDock/src/rDock_2013.1_src/data/scripts/dock_solv.prm

>  <Rbt.Receptor>
prm/pocket_docking_2.prm

>  <SCORE>
20.6756

>  <SCORE.INTER>
1.1206

>  <SCORE.INTER.CONST>
1

>  <SCORE.INTER.POLAR>
-1.0827

>  <SCORE.INTER.ROT>
12

>  <SCORE.INTER.SOLV>
11.4234

>  <SCORE.INTER.VDW>
-11.0517

>  <SCORE.INTER.norm>
0.02155

>  <SCORE.INTRA>
16.2487

>  <SCORE.INTRA.DIHEDRAL>
7.5649

>  <SCORE.INTRA.DIHEDRAL.0>
23.9727

>  <SCORE.INTRA.POLAR>
0

>  <SCORE.INTRA.POLAR.0>
0

>  <SCORE.INTRA.REPUL>
0

>  <SCORE.INTRA.REPUL.0>
0

>  <SCORE.INTRA.SOLV>
6.92053

>  <SCORE.INTRA.SOLV.lig_0>
-115.028

>  <SCORE.INTRA.VDW>
9.00598

>  <SCORE.INTRA.VDW.0>
-6.82393

>  <SCORE.INTRA.norm>
0.312475

>  <SCORE.RESTR>
3.30626

>  <SCORE.RESTR.CAVITY>
3.30626

>  <SCORE.RESTR.norm>
0.063582

>  <SCORE.SYSTEM>
0

>  <SCORE.SYSTEM.CONST>
0

>  <SCORE.SYSTEM.DIHEDRAL>
0

>  <SCORE.SYSTEM.SOLV>
0

>  <SCORE.SYSTEM.norm>
0

>  <SCORE.heavy>
52

>  <SCORE.norm>
0.397607

>  <RMSD>
12.126

$$$$
2fd0_lig
 OpenBabel11021811433D
libRbt.so/2013.1/901 2013/11/27
 52 56  0  0  0  0  0  0  0  0999 V2000
   -1.6038  -50.3474    5.6735 C   0  0  2  0  0  0  0  0  0  0  0  0
   -0.3106  -50.2673    5.0587 O   0  0  0  0  0  0  0  0  0  0  0  0
    1.9238  -53.4149    7.0569 C   0  0  2  0  0  0  0  0  0  0  0  0
    3.0163  -54.3214    7.4463 N   0  0  0  0  0  0  0  0  0  0  0  0
    1.7915  -49.0268    8.4248 C   0  0  1  0  0  0  0  0  0  0  0  0
    2.8576  -45.8773   11.3137 C   0  0  1  0  0  0  0  0  0  0  0  0
    6.2091  -43.4038   14.0445 C   0  0  1  0  0  0  0  0  0  0  0  0
   -2.6515  -50.7716    4.5807 C   0  0  2  0  0  0  0  0  0  0  0  0
   -2.2917  -52.0309    3.9441 N   0  0  0  0  0  0  0  0  0  0  0  0
    1.6259  -53.5462    5.4991 C   0  0  0  0  0  0  0  0  0  0  0  0
    2.8668  -47.9704    8.2482 C   0  0  2  0  0  0  0  0  0  0  0  0
    4.2028  -48.4992    8.4801 O   0  0  0  0  0  0  0  0  0  0  0  0
    3.1925  -44.4154   10.7569 C   0  0  2  0  0  0  0  0  0  0  0  0
    4.6105  -44.3391   10.3109 N   0  0  0  0  0  0  0  0  0  0  0  0
    7.1415  -42.5785   13.1295 C   0  0  1  0  0  0  0  0  0  0  0  0
    6.6874  -41.2025   13.1106 O   0  0  0  0  0  0  0  0  0  0  0  0
   -2.8313  -49.6236    3.5195 C   0  0  0  0  0  0  0  0  0  0  0  0
    0.4287  -52.5664    5.0796 C   0  0  2  0  0  0  0  0  0  0  0  0
    0.1349  -52.6666    3.6425 N   0  0  0  0  0  0  0  0  0  0  0  0
    2.4143  -46.8645    9.1867 C   0  0  2  0  0  0  0  0  0  0  0  0
    3.2323  -46.7889   10.3225 O   0  0  0  0  0  0  0  0  0  0  0  0
    2.7640  -43.3552   11.8986 C   0  0  1  0  0  0  0  0  0  0  0  0
    1.3711  -43.5615   12.1958 O   0  0  0  0  0  0  0  0  0  0  0  0
    8.6577  -42.5813   13.4640 C   0  0  1  0  0  0  0  0  0  0  0  0
    8.9267  -41.4509   14.3033 O   0  0  0  0  0  0  0  0  0  0  0  0
   -3.2245  -48.3099    4.2708 C   0  0  2  0  0  0  0  0  0  0  0  0
   -3.4149  -47.2479    3.3411 O   0  0  0  0  0  0  0  0  0  0  0  0
    0.8136  -51.1059    5.4461 C   0  0  2  0  0  0  0  0  0  0  0  0
    1.0053  -47.2146    9.7219 C   0  0  2  0  0  0  0  0  0  0  0  0
    0.6595  -48.3578    8.9531 O   0  0  0  0  0  0  0  0  0  0  0  0
    3.5693  -43.5987   13.2794 C   0  0  2  0  0  0  0  0  0  0  0  0
    4.9488  -43.3655   12.9387 O   0  0  0  0  0  0  0  0  0  0  0  0
    9.1992  -43.8541   14.1549 C   0  0  2  0  0  0  0  0  0  0  0  0
   10.4770  -44.1218   13.5369 O   0  0  0  0  0  0  0  0  0  0  0  0
   -2.1020  -47.9355    5.2805 C   0  0  2  0  0  0  0  0  0  0  0  0
   -1.9480  -49.0549    6.2358 O   0  0  0  0  0  0  0  0  0  0  0  0
    1.1715  -50.9361    6.9541 C   0  0  2  0  0  0  0  0  0  0  0  0
    1.5525  -49.5544    7.1585 O   0  0  0  0  0  0  0  0  0  0  0  0
   -0.0572  -46.1450    9.4944 C   0  0  0  0  0  0  0  0  0  0  0  0
   -1.2371  -46.5685   10.1943 O   0  0  0  0  0  0  0  0  0  0  0  0
    3.3934  -45.0707   13.6015 C   0  0  1  0  0  0  0  0  0  0  0  0
    3.5674  -46.1446   12.6536 O   0  0  0  0  0  0  0  0  0  0  0  0
    8.2080  -45.0082   14.0322 C   0  0  2  0  0  0  0  0  0  0  0  0
    6.8496  -44.6910   14.4442 O   0  0  0  0  0  0  0  0  0  0  0  0
   -2.4348  -46.7030    6.0598 C   0  0  0  0  0  0  0  0  0  0  0  0
   -1.3189  -46.3685    6.8400 O   0  0  0  0  0  0  0  0  0  0  0  0
    2.3369  -51.9160    7.3466 C   0  0  1  0  0  0  0  0  0  0  0  0
    2.6107  -51.7652    8.7824 O   0  0  0  0  0  0  0  0  0  0  0  0
    4.1525  -45.5148   14.9018 C   0  0  0  0  0  0  0  0  0  0  0  0
    3.9258  -46.9340   15.2674 N   0  0  0  0  0  0  0  0  0  0  0  0
    8.4881  -46.3824   14.6364 C   0  0  0  0  0  0  0  0  0  0  0  0
    7.4473  -47.3308   14.2465 O   0  0  0  0  0  0  0  0  0  0  0  0
  1  2  1  6  0  0  0
  1  8  1  0  0  0  0
  1 36  1  0  0  0  0
  3  4  1  6  0  0  0
  3 10  1  0  0  0  0
  3 47  1  0  0  0  0
  5 11  1  0  0  0  0
  5 30  1  0  0  0  0
  5 38  1  6  0  0  0
  6 21  1  6  0  0  0
  6 42  1  0  0  0  0
  7 15  1  0  0  0  0
  7 44  1  0  0  0  0
  7 32  1  6  0  0  0
  8  9  1  6  0  0  0
  8 17  1  0  0  0  0
 11 12  1  1  0  0  0
 11 20  1  0  0  0  0
 13  6  1  0  0  0  0
 13 14  1  1  0  0  0
 15 16  1  1  0  0  0
 15 24  1  0  0  0  0
 17 26  1  0  0  0  0
 18 10  1  0  0  0  0
 18 19  1  6  0  0  0
 20 21  1  1  0  0  0
 20 29  1  0  0  0  0
 22 13  1  0  0  0  0
 22 23  1  1  0  0  0
 24 25  1  1  0  0  0
 24 33  1  0  0  0  0
 26 27  1  6  0  0  0
 26 35  1  0  0  0  0
 28  2  1  1  0  0  0
 28 18  1  0  0  0  0
 29 30  1  0  0  0  0
 29 39  1  6  0  0  0
 31 22  1  0  0  0  0
 31 32  1  6  0  0  0
 31 41  1  0  0  0  0
 33 34  1  6  0  0  0
 33 43  1  0  0  0  0
 35 36  1  0  0  0  0
 35 45  1  1  0  0  0
 37 28  1  0  0  0  0
 37 38  1  6  0  0  0
 39 40  1  0  0  0  0
 41 42  1  0  0  0  0
 41 49  1  1  0  0  0
 43 44  1  0  0  0  0
 43 51  1  1  0  0  0
 45 46  1  0  0  0  0
 47 37  1  0  0  0  0
 47 48  1  1  0  0  0
 49 50  1  0  0  0  0
 51 52  1  0  0  0  0
M  END
>  <CHROM.1>
-117.82011573,147.59108111,-73.40439664,-159.76054967,-175.20812308,65.39207072
-173.00422401,176.44128836,-174.17573950,172.76037114,176.78138622,-173.82531990
2.57779385,-47.31734686,9.54245115,2.33232793,0.55599514,-2.69583242

>  <Name>
2fd0_lig

>  <RI>
0

>  <Rbt.Current_Directory>
/home/itssahil/PROJECTS/Mol_Feturizer/New_Systems/rnas/2fd0

>  <Rbt.Executable>
rbdock ($Id: //depot/dev/client3/rdock/2013.1/src/exe/rbdock.cxx#4 $)

>  <Rbt.Library>
libRbt.so (2013.1, Build901 2013/11/27)

>  <Rbt.Parameter_File>
/export/apps/rDock/src/rDock_2013.1_src/data/scripts/dock_solv.prm

>  <Rbt.Receptor>
prm/pocket_docking_6.prm

>  <SCORE>
-9.15262

>  <SCORE.INTER>
-9.62796

>  <SCORE.INTER.CONST>
1

>  <SCORE.INTER.POLAR>
-1.7685

>  <SCORE.INTER.ROT>
12

>  <SCORE.INTER.SOLV>
9.04832

>  <SCORE.INTER.VDW>
-15.1398

>  <SCORE.INTER.norm>
-0.185153

>  <SCORE.INTRA>
0.475343

>  <SCORE.INTRA.DIHEDRAL>
-7.38328

>  <SCORE.INTRA.DIHEDRAL.0>
23.9727

>  <SCORE.INTRA.POLAR>
0

>  <SCORE.INTRA.POLAR.0>
0

>  <SCORE.INTRA.REPUL>
0.170554

>  <SCORE.INTRA.REPUL.0>
0

>  <SCORE.INTRA.SOLV>
1.43138

>  <SCORE.INTRA.SOLV.lig_0>
-115.028

>  <SCORE.INTRA.VDW>
2.59853

>  <SCORE.INTRA.VDW.0>
-6.82393

>  <SCORE.INTRA.norm>
0.00914122

>  <SCORE.RESTR>
0

>  <SCORE.RESTR.CAVITY>
0

>  <SCORE.RESTR.norm>
0

>  <SCORE.SYSTEM>
0

>  <SCORE.SYSTEM.CONST>
0

>  <SCORE.SYSTEM.DIHEDRAL>
0

>  <SCORE.SYSTEM.SOLV>
0

>  <SCORE.SYSTEM.norm>
0

>  <SCORE.heavy>
52

>  <SCORE.norm>
-0.176012

>  <RMSD>
12.135

$$$$
2fd0_lig
 OpenBabel11021811433D
libRbt.so/2013.1/901 2013/11/27
 52 56  0  0  0  0  0  0  0  0999 V2000
   -3.6735  -50.6454    3.3993 C   0  0  2  0  0  0  0  0  0  0  0  0
   -2.5391  -50.9769    2.5868 O   0  0  0  0  0  0  0  0  0  0  0  0
    0.4478  -54.0781    3.1815 C   0  0  2  0  0  0  0  0  0  0  0  0
    1.6578  -54.7841    3.6336 N   0  0  0  0  0  0  0  0  0  0  0  0
   -1.9105  -52.0551    6.2967 C   0  0  1  0  0  0  0  0  0  0  0  0
    0.4115  -48.7071    7.8142 C   0  0  1  0  0  0  0  0  0  0  0  0
    4.6396  -47.5388   10.3370 C   0  0  1  0  0  0  0  0  0  0  0  0
   -4.8692  -50.2590    2.4546 C   0  0  2  0  0  0  0  0  0  0  0  0
   -5.1867  -51.3269    1.5168 N   0  0  0  0  0  0  0  0  0  0  0  0
    0.8440  -52.7669    2.3711 C   0  0  0  0  0  0  0  0  0  0  0  0
   -1.2787  -50.6964    6.0550 C   0  0  2  0  0  0  0  0  0  0  0  0
    0.1235  -50.7993    5.6789 O   0  0  0  0  0  0  0  0  0  0  0  0
    1.9230  -49.2202    7.9214 C   0  0  2  0  0  0  0  0  0  0  0  0
    2.1637  -49.8618    9.2427 N   0  0  0  0  0  0  0  0  0  0  0  0
    4.2388  -47.9120   11.7819 C   0  0  1  0  0  0  0  0  0  0  0  0
    3.6045  -49.2149   11.7744 O   0  0  0  0  0  0  0  0  0  0  0  0
   -4.5610  -48.9103    1.7045 C   0  0  0  0  0  0  0  0  0  0  0  0
   -0.4749  -52.0058    1.8703 C   0  0  2  0  0  0  0  0  0  0  0  0
   -0.1363  -50.7876    1.1200 N   0  0  0  0  0  0  0  0  0  0  0  0
   -1.5705  -49.9513    7.3466 C   0  0  2  0  0  0  0  0  0  0  0  0
   -0.4126  -49.7937    8.1208 O   0  0  0  0  0  0  0  0  0  0  0  0
    2.8827  -47.9685    7.5705 C   0  0  1  0  0  0  0  0  0  0  0  0
    2.5219  -47.4850    6.2639 O   0  0  0  0  0  0  0  0  0  0  0  0
    5.3618  -47.9286   12.8541 C   0  0  1  0  0  0  0  0  0  0  0  0
    5.8721  -49.2654   12.9381 O   0  0  0  0  0  0  0  0  0  0  0  0
   -4.2396  -47.8118    2.7698 C   0  0  2  0  0  0  0  0  0  0  0  0
   -3.9721  -46.5677    2.1304 O   0  0  0  0  0  0  0  0  0  0  0  0
   -1.3550  -51.6487    3.1005 C   0  0  2  0  0  0  0  0  0  0  0  0
   -2.5239  -50.8114    8.2102 C   0  0  2  0  0  0  0  0  0  0  0  0
   -2.8635  -51.8727    7.3294 O   0  0  0  0  0  0  0  0  0  0  0  0
    2.6631  -46.7357    8.5933 C   0  0  2  0  0  0  0  0  0  0  0  0
    3.0512  -47.2586    9.8776 O   0  0  0  0  0  0  0  0  0  0  0  0
    6.5427  -46.9592   12.6169 C   0  0  2  0  0  0  0  0  0  0  0  0
    6.8569  -46.4005   13.9113 O   0  0  0  0  0  0  0  0  0  0  0  0
   -3.0070  -48.2514    3.6107 C   0  0  2  0  0  0  0  0  0  0  0  0
   -3.3318  -49.5358    4.2696 O   0  0  0  0  0  0  0  0  0  0  0  0
   -1.7231  -52.8953    3.9617 C   0  0  2  0  0  0  0  0  0  0  0  0
   -2.4994  -52.4302    5.0918 O   0  0  0  0  0  0  0  0  0  0  0  0
   -3.8105  -50.1161    8.6411 C   0  0  0  0  0  0  0  0  0  0  0  0
   -4.5108  -51.0246    9.5046 O   0  0  0  0  0  0  0  0  0  0  0  0
    1.1681  -46.4780    8.6084 C   0  0  1  0  0  0  0  0  0  0  0  0
    0.1602  -47.5022    8.7393 O   0  0  0  0  0  0  0  0  0  0  0  0
    6.1872  -45.9084   11.5685 C   0  0  2  0  0  0  0  0  0  0  0  0
    5.6535  -46.4439   10.3259 O   0  0  0  0  0  0  0  0  0  0  0  0
   -2.6686  -47.2565    4.6750 C   0  0  0  0  0  0  0  0  0  0  0  0
   -1.7277  -47.8426    5.5334 O   0  0  0  0  0  0  0  0  0  0  0  0
   -0.4161  -53.6339    4.4295 C   0  0  1  0  0  0  0  0  0  0  0  0
   -0.8023  -54.8290    5.1924 O   0  0  0  0  0  0  0  0  0  0  0  0
    0.7478  -45.3297    9.5928 C   0  0  0  0  0  0  0  0  0  0  0  0
    1.5190  -44.0764    9.4085 N   0  0  0  0  0  0  0  0  0  0  0  0
    7.1786  -44.8309   11.1350 C   0  0  0  0  0  0  0  0  0  0  0  0
    6.5228  -43.8571   10.2653 O   0  0  0  0  0  0  0  0  0  0  0  0
  1  2  1  6  0  0  0
  1  8  1  0  0  0  0
  1 36  1  0  0  0  0
  3  4  1  1  0  0  0
  3 10  1  0  0  0  0
  3 47  1  0  0  0  0
  5 11  1  0  0  0  0
  5 30  1  0  0  0  0
  5 38  1  6  0  0  0
  6 21  1  1  0  0  0
  6 42  1  0  0  0  0
  7 15  1  0  0  0  0
  7 44  1  0  0  0  0
  7 32  1  6  0  0  0
  8  9  1  6  0  0  0
  8 17  1  0  0  0  0
 11 12  1  1  0  0  0
 11 20  1  0  0  0  0
 13  6  1  0  0  0  0
 13 14  1  1  0  0  0
 15 16  1  6  0  0  0
 15 24  1  0  0  0  0
 17 26  1  0  0  0  0
 18 10  1  0  0  0  0
 18 19  1  1  0  0  0
 20 21  1  1  0  0  0
 20 29  1  0  0  0  0
 22 13  1  0  0  0  0
 22 23  1  6  0  0  0
 24 25  1  6  0  0  0
 24 33  1  0  0  0  0
 26 27  1  6  0  0  0
 26 35  1  0  0  0  0
 28  2  1  6  0  0  0
 28 18  1  0  0  0  0
 29 30  1  0  0  0  0
 29 39  1  6  0  0  0
 31 22  1  0  0  0  0
 31 32  1  1  0  0  0
 31 41  1  0  0  0  0
 33 34  1  1  0  0  0
 33 43  1  0  0  0  0
 35 36  1  0  0  0  0
 35 45  1  1  0  0  0
 37 28  1  0  0  0  0
 37 38  1  1  0  0  0
 39 40  1  0  0  0  0
 41 42  1  0  0  0  0
 41 49  1  1  0  0  0
 43 44  1  0  0  0  0
 43 51  1  6  0  0  0
 45 46  1  0  0  0  0
 47 37  1  0  0  0  0
 47 48  1  6  0  0  0
 49 50  1  0  0  0  0
 51 52  1  0  0  0  0
M  END
>  <CHROM.1>
-166.44634719,75.03404625,-139.55227998,174.41505663,84.16275138,171.66537227
-175.85474640,73.83394628,168.86642241,-90.11947794,51.13223606,-172.25023789
0.37541418,-49.27335111,6.94665298,2.56624728,0.67824021,-2.84459582

>  <Name>
2fd0_lig

>  <RI>
0

>  <Rbt.Current_Directory>
/home/itssahil/PROJECTS/Mol_Feturizer/New_Systems/rnas/2fd0

>  <Rbt.Executable>
rbdock ($Id: //depot/dev/client3/rdock/2013.1/src/exe/rbdock.cxx#4 $)

>  <Rbt.Library>
libRbt.so (2013.1, Build901 2013/11/27)

>  <Rbt.Parameter_File>
/export/apps/rDock/src/rDock_2013.1_src/data/scripts/dock_solv.prm

>  <Rbt.Receptor>
prm/pocket_docking_5.prm

>  <SCORE>
-10.6462

>  <SCORE.INTER>
-6.69819

>  <SCORE.INTER.CONST>
1

>  <SCORE.INTER.POLAR>
-0.867578

>  <SCORE.INTER.ROT>
12

>  <SCORE.INTER.SOLV>
14.808

>  <SCORE.INTER.VDW>
-18.1096

>  <SCORE.INTER.norm>
-0.128811

>  <SCORE.INTRA>
-3.94799

>  <SCORE.INTRA.DIHEDRAL>
-6.4916

>  <SCORE.INTRA.DIHEDRAL.0>
23.9727

>  <SCORE.INTRA.POLAR>
0

>  <SCORE.INTRA.POLAR.0>
0

>  <SCORE.INTRA.REPUL>
0

>  <SCORE.INTRA.REPUL.0>
0

>  <SCORE.INTRA.SOLV>
-2.28251

>  <SCORE.INTRA.SOLV.lig_0>
-115.028

>  <SCORE.INTRA.VDW>
0.439068

>  <SCORE.INTRA.VDW.0>
-6.82393

>  <SCORE.INTRA.norm>
-0.0759228

>  <SCORE.RESTR>
0

>  <SCORE.RESTR.CAVITY>
0

>  <SCORE.RESTR.norm>
0

>  <SCORE.SYSTEM>
0

>  <SCORE.SYSTEM.CONST>
0

>  <SCORE.SYSTEM.DIHEDRAL>
0

>  <SCORE.SYSTEM.SOLV>
0

>  <SCORE.SYSTEM.norm>
0

>  <SCORE.heavy>
52

>  <SCORE.norm>
-0.204734

>  <RMSD>
12.150

$$$$
2fd0_lig
 OpenBabel11021811433D
libRbt.so/2013.1/901 2013/11/27
 52 56  0  0  0  0  0  0  0  0999 V2000
   -3.0702  -49.3922    6.2931 C   0  0  2  0  0  0  0  0  0  0  0  0
   -2.5594  -50.6925    6.6176 O   0  0  0  0  0  0  0  0  0  0  0  0
    1.1169  -52.9985    6.3722 C   0  0  2  0  0  0  0  0  0  0  0  0
    2.5453  -53.3541    6.3682 N   0  0  0  0  0  0  0  0  0  0  0  0
   -0.2710  -50.7524    9.8712 C   0  0  1  0  0  0  0  0  0  0  0  0
    0.8872  -48.3518   13.4509 C   0  0  1  0  0  0  0  0  0  0  0  0
    5.5707  -46.2591   14.7620 C   0  0  1  0  0  0  0  0  0  0  0  0
   -4.5074  -49.2503    6.9141 C   0  0  2  0  0  0  0  0  0  0  0  0
   -4.5003  -49.4695    8.3538 N   0  0  0  0  0  0  0  0  0  0  0  0
    0.8193  -51.8957    5.2639 C   0  0  0  0  0  0  0  0  0  0  0  0
   -1.0364  -49.6268   10.5425 C   0  0  2  0  0  0  0  0  0  0  0  0
   -0.9344  -48.3751    9.8070 O   0  0  0  0  0  0  0  0  0  0  0  0
    1.3477  -46.8254   13.5825 C   0  0  2  0  0  0  0  0  0  0  0  0
    2.2555  -46.4559   12.4624 N   0  0  0  0  0  0  0  0  0  0  0  0
    6.0095  -46.1287   13.2862 C   0  0  1  0  0  0  0  0  0  0  0  0
    5.1179  -45.2094   12.6080 O   0  0  0  0  0  0  0  0  0  0  0  0
   -5.5145  -50.2200    6.1916 C   0  0  0  0  0  0  0  0  0  0  0  0
   -0.7386  -51.5181    5.2627 C   0  0  2  0  0  0  0  0  0  0  0  0
   -1.0402  -50.4977    4.2480 N   0  0  0  0  0  0  0  0  0  0  0  0
   -0.4670  -49.6216   11.9512 C   0  0  2  0  0  0  0  0  0  0  0  0
    0.3618  -48.5117   12.1655 O   0  0  0  0  0  0  0  0  0  0  0  0
    1.9586  -46.6328   15.0660 C   0  0  1  0  0  0  0  0  0  0  0  0
    0.9498  -47.0219   16.0156 O   0  0  0  0  0  0  0  0  0  0  0  0
    7.4691  -45.6760   13.0112 C   0  0  1  0  0  0  0  0  0  0  0  0
    7.4673  -44.2513   12.8549 O   0  0  0  0  0  0  0  0  0  0  0  0
   -5.4760  -49.9225    4.6571 C   0  0  2  0  0  0  0  0  0  0  0  0
   -6.3899  -50.7693    3.9672 O   0  0  0  0  0  0  0  0  0  0  0  0
   -1.1392  -51.0039    6.6737 C   0  0  2  0  0  0  0  0  0  0  0  0
    0.4522  -50.8550   12.1186 C   0  0  2  0  0  0  0  0  0  0  0  0
    0.2261  -51.5729   10.9140 O   0  0  0  0  0  0  0  0  0  0  0  0
    3.2294  -47.5986   15.3242 C   0  0  2  0  0  0  0  0  0  0  0  0
    4.2141  -47.1630   14.3681 O   0  0  0  0  0  0  0  0  0  0  0  0
    8.5132  -46.0574   14.0859 C   0  0  2  0  0  0  0  0  0  0  0  0
    9.6907  -46.4710   13.3587 O   0  0  0  0  0  0  0  0  0  0  0  0
   -4.0336  -50.1516    4.1216 C   0  0  2  0  0  0  0  0  0  0  0  0
   -3.1207  -49.2435    4.8506 O   0  0  0  0  0  0  0  0  0  0  0  0
   -0.8139  -52.0273    7.8041 C   0  0  2  0  0  0  0  0  0  0  0  0
   -1.1886  -51.4192    9.0634 O   0  0  0  0  0  0  0  0  0  0  0  0
    0.1059  -51.7656   13.2913 C   0  0  0  0  0  0  0  0  0  0  0  0
    0.0836  -50.9448   14.4690 O   0  0  0  0  0  0  0  0  0  0  0  0
    2.7683  -48.9924   14.9417 C   0  0  1  0  0  0  0  0  0  0  0  0
    2.0537  -49.3169   13.7309 O   0  0  0  0  0  0  0  0  0  0  0  0
    7.9670  -47.1302   15.0244 C   0  0  2  0  0  0  0  0  0  0  0  0
    6.6654  -46.8307   15.6000 O   0  0  0  0  0  0  0  0  0  0  0  0
   -3.9211  -49.8484    2.6613 C   0  0  0  0  0  0  0  0  0  0  0  0
   -2.5729  -49.9690    2.2958 O   0  0  0  0  0  0  0  0  0  0  0  0
    0.7150  -52.3940    7.7774 C   0  0  1  0  0  0  0  0  0  0  0  0
    0.9733  -53.3969    8.8199 O   0  0  0  0  0  0  0  0  0  0  0  0
    3.8940  -50.0774   15.0831 C   0  0  0  0  0  0  0  0  0  0  0  0
    4.6396  -49.9975   16.3627 N   0  0  0  0  0  0  0  0  0  0  0  0
    8.7895  -47.6832   16.1861 C   0  0  0  0  0  0  0  0  0  0  0  0
    8.7198  -46.7808   17.3330 O   0  0  0  0  0  0  0  0  0  0  0  0
  1  2  1  6  0  0  0
  1  8  1  0  0  0  0
  1 36  1  0  0  0  0
  3  4  1  1  0  0  0
  3 10  1  0  0  0  0
  3 47  1  0  0  0  0
  5 11  1  0  0  0  0
  5 30  1  0  0  0  0
  5 38  1  6  0  0  0
  6 21  1  6  0  0  0
  6 42  1  0  0  0  0
  7 15  1  0  0  0  0
  7 44  1  0  0  0  0
  7 32  1  6  0  0  0
  8  9  1  1  0  0  0
  8 17  1  0  0  0  0
 11 12  1  6  0  0  0
 11 20  1  0  0  0  0
 13  6  1  0  0  0  0
 13 14  1  6  0  0  0
 15 16  1  6  0  0  0
 15 24  1  0  0  0  0
 17 26  1  0  0  0  0
 18 10  1  0  0  0  0
 18 19  1  6  0  0  0
 20 21  1  6  0  0  0
 20 29  1  0  0  0  0
 22 13  1  0  0  0  0
 22 23  1  1  0  0  0
 24 25  1  1  0  0  0
 24 33  1  0  0  0  0
 26 27  1  6  0  0  0
 26 35  1  0  0  0  0
 28  2  1  6  0  0  0
 28 18  1  0  0  0  0
 29 30  1  0  0  0  0
 29 39  1  1  0  0  0
 31 22  1  0  0  0  0
 31 32  1  6  0  0  0
 31 41  1  0  0  0  0
 33 34  1  6  0  0  0
 33 43  1  0  0  0  0
 35 36  1  0  0  0  0
 35 45  1  6  0  0  0
 37 28  1  0  0  0  0
 37 38  1  1  0  0  0
 39 40  1  0  0  0  0
 41 42  1  0  0  0  0
 41 49  1  6  0  0  0
 43 44  1  0  0  0  0
 43 51  1  1  0  0  0
 45 46  1  0  0  0  0
 47 37  1  0  0  0  0
 47 48  1  1  0  0  0
 49 50  1  0  0  0  0
 51 52  1  0  0  0  0
M  END
>  <CHROM.1>
-155.69392323,146.61546988,-160.93457889,-176.16486084,176.44366672,-92.01669058
-54.67919496,105.24871755,174.93131298,-95.89548737,46.65170532,81.42405360
1.25891559,-49.18228645,10.56613386,2.33392222,-0.26596651,-1.69707141

>  <Name>
2fd0_lig

>  <RI>
1.29864e+07

>  <Rbt.Current_Directory>
/home/itssahil/PROJECTS/Mol_Feturizer/New_Systems/rnas/2fd0

>  <Rbt.Executable>
rbdock ($Id: //depot/dev/client3/rdock/2013.1/src/exe/rbdock.cxx#4 $)

>  <Rbt.Library>
libRbt.so (2013.1, Build901 2013/11/27)

>  <Rbt.Parameter_File>
/export/apps/rDock/src/rDock_2013.1_src/data/scripts/dock_solv.prm

>  <Rbt.Receptor>
prm/pocket_docking_3.prm

>  <SCORE>
7.16459

>  <SCORE.INTER>
1.05566

>  <SCORE.INTER.CONST>
1

>  <SCORE.INTER.POLAR>
0

>  <SCORE.INTER.ROT>
12

>  <SCORE.INTER.SOLV>
9.37977

>  <SCORE.INTER.VDW>
-14.0228

>  <SCORE.INTER.norm>
0.0203012

>  <SCORE.INTRA>
5.19957

>  <SCORE.INTRA.DIHEDRAL>
2.7218

>  <SCORE.INTRA.DIHEDRAL.0>
23.9727

>  <SCORE.INTRA.POLAR>
0

>  <SCORE.INTRA.POLAR.0>
0

>  <SCORE.INTRA.REPUL>
0

>  <SCORE.INTRA.REPUL.0>
0

>  <SCORE.INTRA.SOLV>
2.62661

>  <SCORE.INTRA.SOLV.lig_0>
-115.028

>  <SCORE.INTRA.VDW>
2.52537

>  <SCORE.INTRA.VDW.0>
-6.82393

>  <SCORE.INTRA.norm>
0.0999918

>  <SCORE.RESTR>
0.909359

>  <SCORE.RESTR.CAVITY>
0.909359

>  <SCORE.RESTR.norm>
0.0174877

>  <SCORE.SYSTEM>
0

>  <SCORE.SYSTEM.CONST>
0

>  <SCORE.SYSTEM.DIHEDRAL>
0

>  <SCORE.SYSTEM.SOLV>
0

>  <SCORE.SYSTEM.norm>
0

>  <SCORE.heavy>
52

>  <SCORE.norm>
0.137781

>  <RMSD>
12.152

$$$$
2fd0_lig
 OpenBabel11021811433D
libRbt.so/2013.1/901 2013/11/27
 52 56  0  0  0  0  0  0  0  0999 V2000
   -3.0802  -50.5070    7.5868 C   0  0  2  0  0  0  0  0  0  0  0  0
   -2.9288  -51.9086    7.3228 O   0  0  0  0  0  0  0  0  0  0  0  0
    0.3421  -54.7647    7.5140 C   0  0  2  0  0  0  0  0  0  0  0  0
    1.6047  -55.4642    7.2250 N   0  0  0  0  0  0  0  0  0  0  0  0
    0.3568  -50.7564    9.6799 C   0  0  1  0  0  0  0  0  0  0  0  0
    1.2640  -48.0640   13.1998 C   0  0  1  0  0  0  0  0  0  0  0  0
    5.4364  -47.6807   16.1971 C   0  0  1  0  0  0  0  0  0  0  0  0
   -4.5959  -50.2155    7.8858 C   0  0  2  0  0  0  0  0  0  0  0  0
   -5.0941  -51.0175    8.9946 N   0  0  0  0  0  0  0  0  0  0  0  0
   -0.5778  -54.7269    6.2158 C   0  0  0  0  0  0  0  0  0  0  0  0
    0.1127  -49.2747    9.9001 C   0  0  2  0  0  0  0  0  0  0  0  0
    1.0762  -48.4458    9.1911 O   0  0  0  0  0  0  0  0  0  0  0  0
    2.0214  -46.6549   13.2181 C   0  0  2  0  0  0  0  0  0  0  0  0
    3.3634  -46.7757   12.5860 N   0  0  0  0  0  0  0  0  0  0  0  0
    6.4218  -47.5679   15.0122 C   0  0  1  0  0  0  0  0  0  0  0  0
    6.6692  -46.1671   14.7357 O   0  0  0  0  0  0  0  0  0  0  0  0
   -5.4611  -50.4301    6.5890 C   0  0  0  0  0  0  0  0  0  0  0  0
   -1.9566  -53.9746    6.5359 C   0  0  2  0  0  0  0  0  0  0  0  0
   -2.8250  -53.9235    5.3505 N   0  0  0  0  0  0  0  0  0  0  0  0
    0.1129  -49.1516   11.4145 C   0  0  2  0  0  0  0  0  0  0  0  0
    1.2739  -48.5171   11.8775 O   0  0  0  0  0  0  0  0  0  0  0  0
    2.0162  -46.1250   14.7446 C   0  0  1  0  0  0  0  0  0  0  0  0
    0.6483  -46.0581   15.1867 O   0  0  0  0  0  0  0  0  0  0  0  0
    7.7938  -48.2813   15.1525 C   0  0  1  0  0  0  0  0  0  0  0  0
    8.7334  -47.3326   15.6734 O   0  0  0  0  0  0  0  0  0  0  0  0
   -4.8765  -49.5347    5.4482 C   0  0  2  0  0  0  0  0  0  0  0  0
   -5.6450  -49.6866    4.2588 O   0  0  0  0  0  0  0  0  0  0  0  0
   -1.6476  -52.5354    7.0347 C   0  0  2  0  0  0  0  0  0  0  0  0
    0.1530  -50.5720   12.0270 C   0  0  2  0  0  0  0  0  0  0  0  0
   -0.0080  -51.4034   10.8867 O   0  0  0  0  0  0  0  0  0  0  0  0
    2.7713  -47.1506   15.7408 C   0  0  2  0  0  0  0  0  0  0  0  0
    4.1329  -47.1719   15.2726 O   0  0  0  0  0  0  0  0  0  0  0  0
    7.8154  -49.5442   16.0443 C   0  0  2  0  0  0  0  0  0  0  0  0
    8.6524  -50.4973   15.3533 O   0  0  0  0  0  0  0  0  0  0  0  0
   -3.3986  -49.9386    5.1794 C   0  0  2  0  0  0  0  0  0  0  0  0
   -2.6334  -49.7509    6.4319 O   0  0  0  0  0  0  0  0  0  0  0  0
   -0.7007  -52.5159    8.2732 C   0  0  2  0  0  0  0  0  0  0  0  0
   -0.4547  -51.1299    8.6117 O   0  0  0  0  0  0  0  0  0  0  0  0
   -0.9697  -50.8845   13.0101 C   0  0  0  0  0  0  0  0  0  0  0  0
   -0.8971  -49.9047   14.0569 O   0  0  0  0  0  0  0  0  0  0  0  0
    2.1489  -48.5089   15.4781 C   0  0  1  0  0  0  0  0  0  0  0  0
    1.9191  -49.0667   14.1673 O   0  0  0  0  0  0  0  0  0  0  0  0
    6.4008  -50.0529   16.3085 C   0  0  2  0  0  0  0  0  0  0  0  0
    5.4730  -49.0458   16.7989 O   0  0  0  0  0  0  0  0  0  0  0  0
   -2.7682  -49.0924    4.1194 C   0  0  0  0  0  0  0  0  0  0  0  0
   -3.4340  -49.3429    2.9112 O   0  0  0  0  0  0  0  0  0  0  0  0
    0.6381  -53.2711    7.9417 C   0  0  1  0  0  0  0  0  0  0  0  0
    1.4814  -53.2774    9.1451 O   0  0  0  0  0  0  0  0  0  0  0  0
    2.7917  -49.6596   16.3308 C   0  0  0  0  0  0  0  0  0  0  0  0
    2.6546  -49.4630   17.7943 N   0  0  0  0  0  0  0  0  0  0  0  0
    6.1322  -51.2839   17.1713 C   0  0  0  0  0  0  0  0  0  0  0  0
    6.5422  -51.0366   18.5515 O   0  0  0  0  0  0  0  0  0  0  0  0
  1  2  1  6  0  0  0
  1  8  1  0  0  0  0
  1 36  1  0  0  0  0
  3  4  1  6  0  0  0
  3 10  1  0  0  0  0
  3 47  1  0  0  0  0
  5 11  1  0  0  0  0
  5 30  1  0  0  0  0
  5 38  1  6  0  0  0
  6 21  1  6  0  0  0
  6 42  1  0  0  0  0
  7 15  1  0  0  0  0
  7 44  1  0  0  0  0
  7 32  1  6  0  0  0
  8  9  1  1  0  0  0
  8 17  1  0  0  0  0
 11 12  1  6  0  0  0
 11 20  1  0  0  0  0
 13  6  1  0  0  0  0
 13 14  1  1  0  0  0
 15 16  1  1  0  0  0
 15 24  1  0  0  0  0
 17 26  1  0  0  0  0
 18 10  1  0  0  0  0
 18 19  1  6  0  0  0
 20 21  1  6  0  0  0
 20 29  1  0  0  0  0
 22 13  1  0  0  0  0
 22 23  1  1  0  0  0
 24 25  1  1  0  0  0
 24 33  1  0  0  0  0
 26 27  1  6  0  0  0
 26 35  1  0  0  0  0
 28  2  1  1  0  0  0
 28 18  1  0  0  0  0
 29 30  1  0  0  0  0
 29 39  1  1  0  0  0
 31 22  1  0  0  0  0
 31 32  1  6  0  0  0
 31 41  1  0  0  0  0
 33 34  1  6  0  0  0
 33 43  1  0  0  0  0
 35 36  1  0  0  0  0
 35 45  1  6  0  0  0
 37 28  1  0  0  0  0
 37 38  1  6  0  0  0
 39 40  1  0  0  0  0
 41 42  1  0  0  0  0
 41 49  1  1  0  0  0
 43 44  1  0  0  0  0
 43 51  1  1  0  0  0
 45 46  1  0  0  0  0
 47 37  1  0  0  0  0
 47 48  1  1  0  0  0
 49 50  1  0  0  0  0
 51 52  1  0  0  0  0
M  END
>  <CHROM.1>
-178.64694553,-167.42715191,-140.93857661,173.99509123,165.53596456,-168.93042691
-57.83698441,160.21992010,-65.00807756,179.92507190,60.87560605,64.91413361
1.08696050,-49.96020749,11.24144717,2.48113726,0.62691432,-2.49352259

>  <Name>
2fd0_lig

>  <RI>
2.00683e+07

>  <Rbt.Current_Directory>
/home/itssahil/PROJECTS/Mol_Feturizer/New_Systems/rnas/2fd0

>  <Rbt.Executable>
rbdock ($Id: //depot/dev/client3/rdock/2013.1/src/exe/rbdock.cxx#4 $)

>  <Rbt.Library>
libRbt.so (2013.1, Build901 2013/11/27)

>  <Rbt.Parameter_File>
/export/apps/rDock/src/rDock_2013.1_src/data/scripts/dock_solv.prm

>  <Rbt.Receptor>
prm/pocket_docking_4.prm

>  <SCORE>
-8.0664

>  <SCORE.INTER>
-2.11037

>  <SCORE.INTER.CONST>
1

>  <SCORE.INTER.POLAR>
0

>  <SCORE.INTER.ROT>
12

>  <SCORE.INTER.SOLV>
16.1194

>  <SCORE.INTER.VDW>
-18.38

>  <SCORE.INTER.norm>
-0.040584

>  <SCORE.INTRA>
-5.96315

>  <SCORE.INTRA.DIHEDRAL>
-12.6794

>  <SCORE.INTRA.DIHEDRAL.0>
23.9727

>  <SCORE.INTRA.POLAR>
0

>  <SCORE.INTRA.POLAR.0>
0

>  <SCORE.INTRA.REPUL>
0

>  <SCORE.INTRA.REPUL.0>
0

>  <SCORE.INTRA.SOLV>
-1.55565

>  <SCORE.INTRA.SOLV.lig_0>
-115.028

>  <SCORE.INTRA.VDW>
1.15438

>  <SCORE.INTRA.VDW.0>
-6.82393

>  <SCORE.INTRA.norm>
-0.114676

>  <SCORE.RESTR>
0.00711616

>  <SCORE.RESTR.CAVITY>
0.00711616

>  <SCORE.RESTR.norm>
0.000136849

>  <SCORE.SYSTEM>
0

>  <SCORE.SYSTEM.CONST>
0

>  <SCORE.SYSTEM.DIHEDRAL>
0

>  <SCORE.SYSTEM.SOLV>
0

>  <SCORE.SYSTEM.norm>
0

>  <SCORE.heavy>
52

>  <SCORE.norm>
-0.155123

>  <RMSD>
12.161

$$$$
2fd0_lig
 OpenBabel11021811433D
libRbt.so/2013.1/901 2013/11/27
 52 56  0  0  0  0  0  0  0  0999 V2000
   -1.7567  -50.0965    5.3941 C   0  0  2  0  0  0  0  0  0  0  0  0
   -1.7783  -50.6282    6.7260 O   0  0  0  0  0  0  0  0  0  0  0  0
   -0.3767  -54.4557    8.2354 C   0  0  2  0  0  0  0  0  0  0  0  0
    0.5129  -55.5450    8.6701 N   0  0  0  0  0  0  0  0  0  0  0  0
    0.4167  -50.4412    9.8945 C   0  0  1  0  0  0  0  0  0  0  0  0
    2.9225  -47.4025   12.2432 C   0  0  1  0  0  0  0  0  0  0  0  0
    7.5746  -47.0383   12.7940 C   0  0  1  0  0  0  0  0  0  0  0  0
   -2.2050  -48.5907    5.4497 C   0  0  2  0  0  0  0  0  0  0  0  0
   -1.3641  -47.8070    6.3437 N   0  0  0  0  0  0  0  0  0  0  0  0
   -0.0657  -54.0578    6.7261 C   0  0  0  0  0  0  0  0  0  0  0  0
    0.3371  -48.9674   10.2485 C   0  0  2  0  0  0  0  0  0  0  0  0
    0.7271  -48.1116    9.1377 O   0  0  0  0  0  0  0  0  0  0  0  0
    4.2413  -46.7105   11.6589 C   0  0  2  0  0  0  0  0  0  0  0  0
    5.1785  -47.7381   11.1288 N   0  0  0  0  0  0  0  0  0  0  0  0
    8.2336  -46.2686   13.9607 C   0  0  1  0  0  0  0  0  0  0  0  0
    8.7520  -47.2212   14.9217 O   0  0  0  0  0  0  0  0  0  0  0  0
   -3.7229  -48.4855    5.8514 C   0  0  0  0  0  0  0  0  0  0  0  0
   -1.0429  -52.8792    6.2516 C   0  0  2  0  0  0  0  0  0  0  0  0
   -0.7742  -52.4904    4.8593 N   0  0  0  0  0  0  0  0  0  0  0  0
    1.1953  -48.8713   11.4986 C   0  0  2  0  0  0  0  0  0  0  0  0
    2.4128  -48.2278   11.2369 O   0  0  0  0  0  0  0  0  0  0  0  0
    4.8383  -45.7558   12.8178 C   0  0  1  0  0  0  0  0  0  0  0  0
    3.8100  -44.8238   13.1987 O   0  0  0  0  0  0  0  0  0  0  0  0
    9.3709  -45.2720   13.6081 C   0  0  1  0  0  0  0  0  0  0  0  0
   10.6186  -45.9686   13.7193 O   0  0  0  0  0  0  0  0  0  0  0  0
   -4.5629  -49.3402    4.8470 C   0  0  2  0  0  0  0  0  0  0  0  0
   -5.9483  -49.2564    5.1661 O   0  0  0  0  0  0  0  0  0  0  0  0
   -0.8604  -51.6560    7.1929 C   0  0  2  0  0  0  0  0  0  0  0  0
    1.5787  -50.3016   11.9475 C   0  0  2  0  0  0  0  0  0  0  0  0
    0.8017  -51.1149   11.0802 O   0  0  0  0  0  0  0  0  0  0  0  0
    5.2179  -46.5904   14.1496 C   0  0  2  0  0  0  0  0  0  0  0  0
    6.2566  -47.4933   13.7259 O   0  0  0  0  0  0  0  0  0  0  0  0
    9.2905  -44.6152   12.2107 C   0  0  2  0  0  0  0  0  0  0  0  0
    9.6621  -43.2331   12.4055 O   0  0  0  0  0  0  0  0  0  0  0  0
   -4.0932  -50.8218    4.9095 C   0  0  2  0  0  0  0  0  0  0  0  0
   -2.6570  -50.8663    4.5562 O   0  0  0  0  0  0  0  0  0  0  0  0
   -1.0981  -52.0080    8.6931 C   0  0  2  0  0  0  0  0  0  0  0  0
   -0.8564  -50.8077    9.4658 O   0  0  0  0  0  0  0  0  0  0  0  0
    1.2116  -50.6483   13.3861 C   0  0  0  0  0  0  0  0  0  0  0  0
   -0.2155  -50.5365   13.4948 O   0  0  0  0  0  0  0  0  0  0  0  0
    3.9821  -47.4016   14.4902 C   0  0  1  0  0  0  0  0  0  0  0  0
    3.2216  -48.1768   13.5400 O   0  0  0  0  0  0  0  0  0  0  0  0
    7.9032  -44.7942   11.5999 C   0  0  2  0  0  0  0  0  0  0  0  0
    7.4110  -46.1628   11.5966 O   0  0  0  0  0  0  0  0  0  0  0  0
   -4.8359  -51.6884    3.9427 C   0  0  0  0  0  0  0  0  0  0  0  0
   -4.6449  -53.0245    4.3224 O   0  0  0  0  0  0  0  0  0  0  0  0
   -0.1401  -53.1750    9.1327 C   0  0  1  0  0  0  0  0  0  0  0  0
   -0.4282  -53.5136   10.5333 O   0  0  0  0  0  0  0  0  0  0  0  0
    4.1740  -48.3244   15.7457 C   0  0  0  0  0  0  0  0  0  0  0  0
    2.9648  -49.1070   16.0989 N   0  0  0  0  0  0  0  0  0  0  0  0
    7.5522  -44.2499   10.2170 C   0  0  0  0  0  0  0  0  0  0  0  0
    8.3164  -43.0361    9.9394 O   0  0  0  0  0  0  0  0  0  0  0  0
  1  2  1  1  0  0  0
  1  8  1  0  0  0  0
  1 36  1  0  0  0  0
  3  4  1  1  0  0  0
  3 10  1  0  0  0  0
  3 47  1  0  0  0  0
  5 11  1  0  0  0  0
  5 30  1  0  0  0  0
  5 38  1  1  0  0  0
  6 21  1  6  0  0  0
  6 42  1  0  0  0  0
  7 15  1  0  0  0  0
  7 44  1  0  0  0  0
  7 32  1  1  0  0  0
  8  9  1  1  0  0  0
  8 17  1  0  0  0  0
 11 12  1  6  0  0  0
 11 20  1  0  0  0  0
 13  6  1  0  0  0  0
 13 14  1  1  0  0  0
 15 16  1  1  0  0  0
 15 24  1  0  0  0  0
 17 26  1  0  0  0  0
 18 10  1  0  0  0  0
 18 19  1  6  0  0  0
 20 21  1  6  0  0  0
 20 29  1  0  0  0  0
 22 13  1  0  0  0  0
 22 23  1  1  0  0  0
 24 25  1  6  0  0  0
 24 33  1  0  0  0  0
 26 27  1  1  0  0  0
 26 35  1  0  0  0  0
 28  2  1  6  0  0  0
 28 18  1  0  0  0  0
 29 30  1  0  0  0  0
 29 39  1  1  0  0  0
 31 22  1  0  0  0  0
 31 32  1  6  0  0  0
 31 41  1  0  0  0  0
 33 34  1  1  0  0  0
 33 43  1  0  0  0  0
 35 36  1  0  0  0  0
 35 45  1  6  0  0  0
 37 28  1  0  0  0  0
 37 38  1  1  0  0  0
 39 40  1  0  0  0  0
 41 42  1  0  0  0  0
 41 49  1  1  0  0  0
 43 44  1  0  0  0  0
 43 51  1  6  0  0  0
 45 46  1  0  0  0  0
 47 37  1  0  0  0  0
 47 48  1  1  0  0  0
 49 50  1  0  0  0  0
 51 52  1  0  0  0  0
M  END
>  <CHROM.1>
-147.84221311,161.94727176,-175.77760608,72.02672609,143.85195051,-57.71715489
60.92930837,46.33612622,-163.15156024,-85.47178729,179.15280151,-31.08920083
2.08015686,-48.93692265,10.11290782,-3.01289525,0.71826598,2.26992296

>  <Name>
2fd0_lig

>  <RI>
2.89522e+07

>  <Rbt.Current_Directory>
/home/itssahil/PROJECTS/Mol_Feturizer/New_Systems/rnas/2fd0

>  <Rbt.Executable>
rbdock ($Id: //depot/dev/client3/rdock/2013.1/src/exe/rbdock.cxx#4 $)

>  <Rbt.Library>
libRbt.so (2013.1, Build901 2013/11/27)

>  <Rbt.Parameter_File>
/export/apps/rDock/src/rDock_2013.1_src/data/scripts/dock_solv.prm

>  <Rbt.Receptor>
prm/pocket_docking_2.prm

>  <SCORE>
10.4375

>  <SCORE.INTER>
4.77358

>  <SCORE.INTER.CONST>
1

>  <SCORE.INTER.POLAR>
0

>  <SCORE.INTER.ROT>
12

>  <SCORE.INTER.SOLV>
11.2944

>  <SCORE.INTER.VDW>
-12.1824

>  <SCORE.INTER.norm>
0.0917996

>  <SCORE.INTRA>
1.22216

>  <SCORE.INTRA.DIHEDRAL>
-4.49065

>  <SCORE.INTRA.DIHEDRAL.0>
23.9727

>  <SCORE.INTRA.POLAR>
0

>  <SCORE.INTRA.POLAR.0>
0

>  <SCORE.INTRA.REPUL>
0

>  <SCORE.INTRA.REPUL.0>
0

>  <SCORE.INTRA.SOLV>
2.01234

>  <SCORE.INTRA.SOLV.lig_0>
-115.028

>  <SCORE.INTRA.VDW>
2.46132

>  <SCORE.INTRA.VDW.0>
-6.82393

>  <SCORE.INTRA.norm>
0.0235031

>  <SCORE.RESTR>
4.44175

>  <SCORE.RESTR.CAVITY>
4.44175

>  <SCORE.RESTR.norm>
0.0854182

>  <SCORE.SYSTEM>
0

>  <SCORE.SYSTEM.CONST>
0

>  <SCORE.SYSTEM.DIHEDRAL>
0

>  <SCORE.SYSTEM.SOLV>
0

>  <SCORE.SYSTEM.norm>
0

>  <SCORE.heavy>
52

>  <SCORE.norm>
0.200721

>  <RMSD>
12.170

$$$$
2fd0_lig
 OpenBabel11021811433D
libRbt.so/2013.1/901 2013/11/27
 52 56  0  0  0  0  0  0  0  0999 V2000
    1.3826  -47.8406   13.7051 C   0  0  2  0  0  0  0  0  0  0  0  0
    0.8596  -49.1577   13.4846 O   0  0  0  0  0  0  0  0  0  0  0  0
    2.8847  -52.2833   11.2436 C   0  0  2  0  0  0  0  0  0  0  0  0
    3.2766  -53.1891   10.1514 N   0  0  0  0  0  0  0  0  0  0  0  0
    4.0837  -47.7046   11.8864 C   0  0  1  0  0  0  0  0  0  0  0  0
    6.2776  -43.7025   11.9446 C   0  0  1  0  0  0  0  0  0  0  0  0
   10.7230  -42.4770   11.3354 C   0  0  1  0  0  0  0  0  0  0  0  0
    1.9837  -47.7778   15.1564 C   0  0  2  0  0  0  0  0  0  0  0  0
    3.0071  -48.7928   15.3641 N   0  0  0  0  0  0  0  0  0  0  0  0
    1.3328  -52.4392   11.5603 C   0  0  0  0  0  0  0  0  0  0  0  0
    4.0469  -46.4621   11.0155 C   0  0  2  0  0  0  0  0  0  0  0  0
    4.7650  -46.6451    9.7629 O   0  0  0  0  0  0  0  0  0  0  0  0
    7.3541  -43.2179   10.8649 C   0  0  2  0  0  0  0  0  0  0  0  0
    8.4458  -44.2206   10.7303 N   0  0  0  0  0  0  0  0  0  0  0  0
   11.9092  -42.9988   12.1769 C   0  0  1  0  0  0  0  0  0  0  0  0
   11.7098  -44.4076   12.4514 O   0  0  0  0  0  0  0  0  0  0  0  0
    0.8379  -47.8910   16.2291 C   0  0  0  0  0  0  0  0  0  0  0  0
    0.9108  -51.4601   12.7572 C   0  0  2  0  0  0  0  0  0  0  0  0
   -0.5209  -51.5829   13.0684 N   0  0  0  0  0  0  0  0  0  0  0  0
    4.5827  -45.3826   11.9407 C   0  0  2  0  0  0  0  0  0  0  0  0
    5.8776  -44.9898   11.5750 O   0  0  0  0  0  0  0  0  0  0  0  0
    7.8234  -41.7304   11.2867 C   0  0  1  0  0  0  0  0  0  0  0  0
    6.6514  -40.8981   11.3564 O   0  0  0  0  0  0  0  0  0  0  0  0
   13.3358  -42.8190   11.5908 C   0  0  1  0  0  0  0  0  0  0  0  0
   13.6713  -44.0126   10.8718 O   0  0  0  0  0  0  0  0  0  0  0  0
   -0.2154  -46.7694   15.9511 C   0  0  2  0  0  0  0  0  0  0  0  0
   -1.2628  -46.8264   16.9144 O   0  0  0  0  0  0  0  0  0  0  0  0
    1.2480  -49.9957   12.3603 C   0  0  2  0  0  0  0  0  0  0  0  0
    4.7230  -45.9744   13.3636 C   0  0  2  0  0  0  0  0  0  0  0  0
    4.1121  -47.2495   13.2280 O   0  0  0  0  0  0  0  0  0  0  0  0
    8.4933  -41.7046   12.7580 C   0  0  2  0  0  0  0  0  0  0  0  0
    9.6652  -42.5323   12.6356 O   0  0  0  0  0  0  0  0  0  0  0  0
   13.5395  -41.6025   10.6584 C   0  0  2  0  0  0  0  0  0  0  0  0
   14.8279  -41.0516   11.0092 O   0  0  0  0  0  0  0  0  0  0  0  0
   -0.8000  -46.9515   14.5212 C   0  0  2  0  0  0  0  0  0  0  0  0
    0.3154  -46.8694   13.5524 O   0  0  0  0  0  0  0  0  0  0  0  0
    2.7487  -49.8025   11.9840 C   0  0  2  0  0  0  0  0  0  0  0  0
    2.9253  -48.4197   11.5933 O   0  0  0  0  0  0  0  0  0  0  0  0
    3.9912  -45.2064   14.4586 C   0  0  0  0  0  0  0  0  0  0  0  0
    4.5479  -43.8834   14.4886 O   0  0  0  0  0  0  0  0  0  0  0  0
    7.5025  -42.4020   13.6709 C   0  0  1  0  0  0  0  0  0  0  0  0
    6.8529  -43.6553   13.3720 O   0  0  0  0  0  0  0  0  0  0  0  0
   12.3912  -40.6067   10.7979 C   0  0  2  0  0  0  0  0  0  0  0  0
   11.0634  -41.1860   10.6686 O   0  0  0  0  0  0  0  0  0  0  0  0
   -1.7913  -45.8851   14.1788 C   0  0  0  0  0  0  0  0  0  0  0  0
   -1.0862  -44.6955   13.9475 O   0  0  0  0  0  0  0  0  0  0  0  0
    3.1441  -50.7820   10.8192 C   0  0  1  0  0  0  0  0  0  0  0  0
    4.5740  -50.6086   10.5278 O   0  0  0  0  0  0  0  0  0  0  0  0
    8.0029  -42.5176   15.1544 C   0  0  0  0  0  0  0  0  0  0  0  0
    9.1970  -43.3826   15.3135 N   0  0  0  0  0  0  0  0  0  0  0  0
   12.3355  -39.3173    9.9817 C   0  0  0  0  0  0  0  0  0  0  0  0
   11.7910  -39.5807    8.6518 O   0  0  0  0  0  0  0  0  0  0  0  0
  1  2  1  1  0  0  0
  1  8  1  0  0  0  0
  1 36  1  0  0  0  0
  3  4  1  6  0  0  0
  3 10  1  0  0  0  0
  3 47  1  0  0  0  0
  5 11  1  0  0  0  0
  5 30  1  0  0  0  0
  5 38  1  1  0  0  0
  6 21  1  6  0  0  0
  6 42  1  0  0  0  0
  7 15  1  0  0  0  0
  7 44  1  0  0  0  0
  7 32  1  1  0  0  0
  8  9  1  1  0  0  0
  8 17  1  0  0  0  0
 11 12  1  6  0  0  0
 11 20  1  0  0  0  0
 13  6  1  0  0  0  0
 13 14  1  1  0  0  0
 15 16  1  6  0  0  0
 15 24  1  0  0  0  0
 17 26  1  0  0  0  0
 18 10  1  0  0  0  0
 18 19  1  6  0  0  0
 20 21  1  6  0  0  0
 20 29  1  0  0  0  0
 22 13  1  0  0  0  0
 22 23  1  1  0  0  0
 24 25  1  6  0  0  0
 24 33  1  0  0  0  0
 26 27  1  1  0  0  0
 26 35  1  0  0  0  0
 28  2  1  1  0  0  0
 28 18  1  0  0  0  0
 29 30  1  0  0  0  0
 29 39  1  1  0  0  0
 31 22  1  0  0  0  0
 31 32  1  6  0  0  0
 31 41  1  0  0  0  0
 33 34  1  1  0  0  0
 33 43  1  0  0  0  0
 35 36  1  0  0  0  0
 35 45  1  6  0  0  0
 37 28  1  0  0  0  0
 37 38  1  6  0  0  0
 39 40  1  0  0  0  0
 41 42  1  0  0  0  0
 41 49  1  1  0  0  0
 43 44  1  0  0  0  0
 43 51  1  6  0  0  0
 45 46  1  0  0  0  0
 47 37  1  0  0  0  0
 47 48  1  1  0  0  0
 49 50  1  0  0  0  0
 51 52  1  0  0  0  0
M  END
>  <CHROM.1>
-125.45931964,165.21890228,-151.61227095,154.09909250,154.77351527,159.07263300
-60.79447370,43.24259935,73.31702785,144.08923406,-65.33794734,82.44033650
5.60604701,-45.60138748,12.49326260,2.67959750,-0.43692581,-2.71575548

>  <Name>
2fd0_lig

>  <RI>
0

>  <Rbt.Current_Directory>
/home/itssahil/PROJECTS/Mol_Feturizer/New_Systems/rnas/2fd0

>  <Rbt.Executable>
rbdock ($Id: //depot/dev/client3/rdock/2013.1/src/exe/rbdock.cxx#4 $)

>  <Rbt.Library>
libRbt.so (2013.1, Build901 2013/11/27)

>  <Rbt.Parameter_File>
/export/apps/rDock/src/rDock_2013.1_src/data/scripts/dock_solv.prm

>  <Rbt.Receptor>
prm/pocket_docking_8.prm

>  <SCORE>
-10.5767

>  <SCORE.INTER>
-14.7553

>  <SCORE.INTER.CONST>
1

>  <SCORE.INTER.POLAR>
-2.78072

>  <SCORE.INTER.ROT>
12

>  <SCORE.INTER.SOLV>
17.4524

>  <SCORE.INTER.VDW>
-17.9853

>  <SCORE.INTER.norm>
-0.283757

>  <SCORE.INTRA>
4.17869

>  <SCORE.INTRA.DIHEDRAL>
4.62608

>  <SCORE.INTRA.DIHEDRAL.0>
23.9727

>  <SCORE.INTRA.POLAR>
0

>  <SCORE.INTRA.POLAR.0>
0

>  <SCORE.INTRA.REPUL>
0

>  <SCORE.INTRA.REPUL.0>
0

>  <SCORE.INTRA.SOLV>
2.41929

>  <SCORE.INTRA.SOLV.lig_0>
-115.028

>  <SCORE.INTRA.VDW>
0.656007

>  <SCORE.INTRA.VDW.0>
-6.82393

>  <SCORE.INTRA.norm>
0.0803594

>  <SCORE.RESTR>
0

>  <SCORE.RESTR.CAVITY>
0

>  <SCORE.RESTR.norm>
0

>  <SCORE.SYSTEM>
0

>  <SCORE.SYSTEM.CONST>
0

>  <SCORE.SYSTEM.DIHEDRAL>
0

>  <SCORE.SYSTEM.SOLV>
0

>  <SCORE.SYSTEM.norm>
0

>  <SCORE.heavy>
52

>  <SCORE.norm>
-0.203397

>  <RMSD>
12.175

$$$$
2fd0_lig
 OpenBabel11021811433D
libRbt.so/2013.1/901 2013/11/27
 52 56  0  0  0  0  0  0  0  0999 V2000
    0.7220  -51.2442    5.7689 C   0  0  2  0  0  0  0  0  0  0  0  0
    0.6191  -52.5496    6.3538 O   0  0  0  0  0  0  0  0  0  0  0  0
    2.9034  -56.0851    7.4376 C   0  0  2  0  0  0  0  0  0  0  0  0
    3.9803  -57.0865    7.5041 N   0  0  0  0  0  0  0  0  0  0  0  0
    2.6311  -51.7889    9.5449 C   0  0  1  0  0  0  0  0  0  0  0  0
    3.0092  -48.4091   12.5320 C   0  0  1  0  0  0  0  0  0  0  0  0
    6.2731  -45.0206   13.7845 C   0  0  1  0  0  0  0  0  0  0  0  0
   -0.6554  -50.5071    5.9456 C   0  0  2  0  0  0  0  0  0  0  0  0
   -1.0528  -50.4281    7.3443 N   0  0  0  0  0  0  0  0  0  0  0  0
    2.3916  -55.9233    5.9393 C   0  0  0  0  0  0  0  0  0  0  0  0
    3.6669  -50.6901    9.6975 C   0  0  2  0  0  0  0  0  0  0  0  0
    4.9012  -51.1750   10.2971 O   0  0  0  0  0  0  0  0  0  0  0  0
    3.8402  -47.1813   11.9309 C   0  0  2  0  0  0  0  0  0  0  0  0
    5.2946  -47.4970   11.9083 N   0  0  0  0  0  0  0  0  0  0  0  0
    7.4911  -45.7020   14.4477 C   0  0  1  0  0  0  0  0  0  0  0  0
    7.7892  -46.9302   13.7388 O   0  0  0  0  0  0  0  0  0  0  0  0
   -1.7648  -51.2028    5.0728 C   0  0  0  0  0  0  0  0  0  0  0  0
    1.2115  -54.8406    5.8711 C   0  0  2  0  0  0  0  0  0  0  0  0
    0.7220  -54.6700    4.4952 N   0  0  0  0  0  0  0  0  0  0  0  0
    2.9185  -49.6240   10.4799 C   0  0  2  0  0  0  0  0  0  0  0  0
    3.3727  -49.5454   11.8036 O   0  0  0  0  0  0  0  0  0  0  0  0
    3.4270  -45.8634   12.7695 C   0  0  1  0  0  0  0  0  0  0  0  0
    1.9999  -45.7051   12.6730 O   0  0  0  0  0  0  0  0  0  0  0  0
    8.8021  -44.8767   14.5545 C   0  0  1  0  0  0  0  0  0  0  0  0
    9.6046  -45.1720   13.4043 O   0  0  0  0  0  0  0  0  0  0  0  0
   -1.2757  -51.2438    3.5883 C   0  0  2  0  0  0  0  0  0  0  0  0
   -2.2623  -51.8514    2.7603 O   0  0  0  0  0  0  0  0  0  0  0  0
    1.7313  -53.4849    6.4256 C   0  0  2  0  0  0  0  0  0  0  0  0
    1.4311  -50.0379   10.5833 C   0  0  2  0  0  0  0  0  0  0  0  0
    1.3683  -51.1745    9.7338 O   0  0  0  0  0  0  0  0  0  0  0  0
    3.7665  -46.0195   14.3426 C   0  0  2  0  0  0  0  0  0  0  0  0
    5.1992  -46.1571   14.3908 O   0  0  0  0  0  0  0  0  0  0  0  0
    8.6334  -43.3436   14.6634 C   0  0  2  0  0  0  0  0  0  0  0  0
    9.6023  -42.9116   15.6436 O   0  0  0  0  0  0  0  0  0  0  0  0
    0.0544  -52.0461    3.5036 C   0  0  2  0  0  0  0  0  0  0  0  0
    1.0545  -51.3740    4.3625 O   0  0  0  0  0  0  0  0  0  0  0  0
    2.2980  -53.6023    7.8734 C   0  0  2  0  0  0  0  0  0  0  0  0
    2.7874  -52.2948    8.2570 O   0  0  0  0  0  0  0  0  0  0  0  0
    0.4346  -49.0028   10.0733 C   0  0  0  0  0  0  0  0  0  0  0  0
   -0.8792  -49.5271   10.3186 O   0  0  0  0  0  0  0  0  0  0  0  0
    3.1404  -47.3342   14.7678 C   0  0  1  0  0  0  0  0  0  0  0  0
    3.2639  -48.5748   14.0414 O   0  0  0  0  0  0  0  0  0  0  0  0
    7.1964  -42.9743   15.0214 C   0  0  2  0  0  0  0  0  0  0  0  0
    6.1821  -43.5833   14.1754 O   0  0  0  0  0  0  0  0  0  0  0  0
    0.5957  -52.0921    2.1101 C   0  0  0  0  0  0  0  0  0  0  0  0
    0.8218  -50.7741    1.6887 O   0  0  0  0  0  0  0  0  0  0  0  0
    3.4431  -54.6789    7.9199 C   0  0  1  0  0  0  0  0  0  0  0  0
    3.9158  -54.7989    9.3061 O   0  0  0  0  0  0  0  0  0  0  0  0
    3.4052  -47.6874   16.2743 C   0  0  0  0  0  0  0  0  0  0  0  0
    2.8502  -49.0002   16.6839 N   0  0  0  0  0  0  0  0  0  0  0  0
    6.7505  -41.5226   15.1817 C   0  0  0  0  0  0  0  0  0  0  0  0
    6.9796  -40.7809   13.9440 O   0  0  0  0  0  0  0  0  0  0  0  0
  1  2  1  6  0  0  0
  1  8  1  0  0  0  0
  1 36  1  0  0  0  0
  3  4  1  6  0  0  0
  3 10  1  0  0  0  0
  3 47  1  0  0  0  0
  5 11  1  0  0  0  0
  5 30  1  0  0  0  0
  5 38  1  6  0  0  0
  6 21  1  6  0  0  0
  6 42  1  0  0  0  0
  7 15  1  0  0  0  0
  7 44  1  0  0  0  0
  7 32  1  1  0  0  0
  8  9  1  1  0  0  0
  8 17  1  0  0  0  0
 11 12  1  1  0  0  0
 11 20  1  0  0  0  0
 13  6  1  0  0  0  0
 13 14  1  1  0  0  0
 15 16  1  6  0  0  0
 15 24  1  0  0  0  0
 17 26  1  0  0  0  0
 18 10  1  0  0  0  0
 18 19  1  6  0  0  0
 20 21  1  1  0  0  0
 20 29  1  0  0  0  0
 22 13  1  0  0  0  0
 22 23  1  1  0  0  0
 24 25  1  6  0  0  0
 24 33  1  0  0  0  0
 26 27  1  6  0  0  0
 26 35  1  0  0  0  0
 28  2  1  1  0  0  0
 28 18  1  0  0  0  0
 29 30  1  0  0  0  0
 29 39  1  6  0  0  0
 31 22  1  0  0  0  0
 31 32  1  6  0  0  0
 31 41  1  0  0  0  0
 33 34  1  1  0  0  0
 33 43  1  0  0  0  0
 35 36  1  0  0  0  0
 35 45  1  6  0  0  0
 37 28  1  0  0  0  0
 37 38  1  6  0  0  0
 39 40  1  0  0  0  0
 41 42  1  0  0  0  0
 41 49  1  1  0  0  0
 43 44  1  0  0  0  0
 43 51  1  6  0  0  0
 45 46  1  0  0  0  0
 47 37  1  0  0  0  0
 47 48  1  1  0  0  0
 49 50  1  0  0  0  0
 51 52  1  0  0  0  0
M  END
>  <CHROM.1>
-177.03928076,159.88173616,-71.07926076,169.06403484,164.90101228,-130.02314969
-176.79913241,58.14977710,59.52302060,141.41017606,-177.36021009,59.15780835
3.22268682,-49.33818829,10.06918892,2.30118341,0.88121988,-2.91112225

>  <Name>
2fd0_lig

>  <RI>
3.4301e+07

>  <Rbt.Current_Directory>
/home/itssahil/PROJECTS/Mol_Feturizer/New_Systems/rnas/2fd0

>  <Rbt.Executable>
rbdock ($Id: //depot/dev/client3/rdock/2013.1/src/exe/rbdock.cxx#4 $)

>  <Rbt.Library>
libRbt.so (2013.1, Build901 2013/11/27)

>  <Rbt.Parameter_File>
/export/apps/rDock/src/rDock_2013.1_src/data/scripts/dock_solv.prm

>  <Rbt.Receptor>
prm/pocket_docking_7.prm

>  <SCORE>
-12.1979

>  <SCORE.INTER>
-10.2484

>  <SCORE.INTER.CONST>
1

>  <SCORE.INTER.POLAR>
-1.78771

>  <SCORE.INTER.ROT>
12

>  <SCORE.INTER.SOLV>
10.8661

>  <SCORE.INTER.VDW>
-16.0953

>  <SCORE.INTER.norm>
-0.197085

>  <SCORE.INTRA>
-1.94948

>  <SCORE.INTRA.DIHEDRAL>
-6.35148

>  <SCORE.INTRA.DIHEDRAL.0>
23.9727

>  <SCORE.INTRA.POLAR>
0

>  <SCORE.INTRA.POLAR.0>
0

>  <SCORE.INTRA.REPUL>
0

>  <SCORE.INTRA.REPUL.0>
0

>  <SCORE.INTRA.SOLV>
1.84986

>  <SCORE.INTRA.SOLV.lig_0>
-115.028

>  <SCORE.INTRA.VDW>
0.30133

>  <SCORE.INTRA.VDW.0>
-6.82393

>  <SCORE.INTRA.norm>
-0.0374901

>  <SCORE.RESTR>
0

>  <SCORE.RESTR.CAVITY>
0

>  <SCORE.RESTR.norm>
0

>  <SCORE.SYSTEM>
0

>  <SCORE.SYSTEM.CONST>
0

>  <SCORE.SYSTEM.DIHEDRAL>
0

>  <SCORE.SYSTEM.SOLV>
0

>  <SCORE.SYSTEM.norm>
0

>  <SCORE.heavy>
52

>  <SCORE.norm>
-0.234575

>  <RMSD>
12.177

$$$$
2fd0_lig
 OpenBabel11021811433D
libRbt.so/2013.1/901 2013/11/27
 52 56  0  0  0  0  0  0  0  0999 V2000
   -2.4609  -52.4547    5.5330 C   0  0  2  0  0  0  0  0  0  0  0  0
   -2.2670  -52.6813    6.9359 O   0  0  0  0  0  0  0  0  0  0  0  0
   -0.5273  -56.1776    8.8443 C   0  0  2  0  0  0  0  0  0  0  0  0
    0.4568  -57.1452    9.3565 N   0  0  0  0  0  0  0  0  0  0  0  0
    0.0457  -52.0635   10.1975 C   0  0  1  0  0  0  0  0  0  0  0  0
    2.3352  -48.3751   11.4443 C   0  0  1  0  0  0  0  0  0  0  0  0
    4.9541  -46.8120   15.2232 C   0  0  1  0  0  0  0  0  0  0  0  0
   -3.0456  -51.0086    5.3363 C   0  0  2  0  0  0  0  0  0  0  0  0
   -2.1834  -49.9908    5.9205 N   0  0  0  0  0  0  0  0  0  0  0  0
   -0.3416  -55.9786    7.2762 C   0  0  0  0  0  0  0  0  0  0  0  0
    0.1407  -50.5532   10.0812 C   0  0  2  0  0  0  0  0  0  0  0  0
    0.8800  -50.1366    8.8988 O   0  0  0  0  0  0  0  0  0  0  0  0
    3.8717  -48.1480   11.0608 C   0  0  2  0  0  0  0  0  0  0  0  0
    4.7447  -49.0723   11.8346 N   0  0  0  0  0  0  0  0  0  0  0  0
    6.4303  -47.2679   15.2504 C   0  0  1  0  0  0  0  0  0  0  0  0
    7.2716  -46.1700   14.8184 O   0  0  0  0  0  0  0  0  0  0  0  0
   -4.5060  -50.9247    5.9166 C   0  0  0  0  0  0  0  0  0  0  0  0
   -1.4213  -54.9331    6.7190 C   0  0  2  0  0  0  0  0  0  0  0  0
   -1.2694  -54.7290    5.2708 N   0  0  0  0  0  0  0  0  0  0  0  0
    0.7359  -50.1461   11.4186 C   0  0  2  0  0  0  0  0  0  0  0  0
    2.0700  -49.7380   11.2835 O   0  0  0  0  0  0  0  0  0  0  0  0
    4.1870  -46.5741   11.2464 C   0  0  1  0  0  0  0  0  0  0  0  0
    3.2650  -45.8365   10.4237 O   0  0  0  0  0  0  0  0  0  0  0  0
    6.9891  -47.8026   16.5969 C   0  0  1  0  0  0  0  0  0  0  0  0
    7.5970  -46.7049   17.2895 O   0  0  0  0  0  0  0  0  0  0  0  0
   -5.3737  -52.0357    5.2403 C   0  0  2  0  0  0  0  0  0  0  0  0
   -6.7112  -51.9815    5.7265 O   0  0  0  0  0  0  0  0  0  0  0  0
   -1.2565  -53.5820    7.4695 C   0  0  2  0  0  0  0  0  0  0  0  0
    0.7812  -51.3888   12.3396 C   0  0  2  0  0  0  0  0  0  0  0  0
    0.0699  -52.3582   11.5833 O   0  0  0  0  0  0  0  0  0  0  0  0
    3.9379  -46.0852   12.7673 C   0  0  2  0  0  0  0  0  0  0  0  0
    4.8893  -46.8334   13.5475 O   0  0  0  0  0  0  0  0  0  0  0  0
    5.9649  -48.4788   17.5374 C   0  0  2  0  0  0  0  0  0  0  0  0
    6.6389  -49.6329   18.0854 O   0  0  0  0  0  0  0  0  0  0  0  0
   -4.7559  -53.4308    5.5432 C   0  0  2  0  0  0  0  0  0  0  0  0
   -3.3763  -53.4508    5.0087 O   0  0  0  0  0  0  0  0  0  0  0  0
   -1.3728  -53.7329    9.0169 C   0  0  2  0  0  0  0  0  0  0  0  0
   -1.1587  -52.4249    9.5995 O   0  0  0  0  0  0  0  0  0  0  0  0
    0.0823  -51.2230   13.6844 C   0  0  0  0  0  0  0  0  0  0  0  0
    0.4903  -49.9537   14.2170 O   0  0  0  0  0  0  0  0  0  0  0  0
    2.5415  -46.5576   13.1254 C   0  0  1  0  0  0  0  0  0  0  0  0
    2.0340  -47.8845   12.8723 O   0  0  0  0  0  0  0  0  0  0  0  0
    4.6779  -48.8204   16.7915 C   0  0  2  0  0  0  0  0  0  0  0  0
    4.0965  -47.7172   16.0429 O   0  0  0  0  0  0  0  0  0  0  0  0
   -5.5218  -54.5384    4.8922 C   0  0  0  0  0  0  0  0  0  0  0  0
   -5.4887  -54.3323    3.5058 O   0  0  0  0  0  0  0  0  0  0  0  0
   -0.3154  -54.7729    9.5394 C   0  0  1  0  0  0  0  0  0  0  0  0
   -0.4892  -54.9272   10.9904 O   0  0  0  0  0  0  0  0  0  0  0  0
    2.1302  -46.2117   14.6004 C   0  0  0  0  0  0  0  0  0  0  0  0
    0.6975  -46.4598   14.8921 N   0  0  0  0  0  0  0  0  0  0  0  0
    3.4931  -49.4875   17.4867 C   0  0  0  0  0  0  0  0  0  0  0  0
    2.4667  -49.8453   16.5105 O   0  0  0  0  0  0  0  0  0  0  0  0
  1  2  1  1  0  0  0
  1  8  1  0  0  0  0
  1 36  1  0  0  0  0
  3  4  1  1  0  0  0
  3 10  1  0  0  0  0
  3 47  1  0  0  0  0
  5 11  1  0  0  0  0
  5 30  1  0  0  0  0
  5 38  1  1  0  0  0
  6 21  1  1  0  0  0
  6 42  1  0  0  0  0
  7 15  1  0  0  0  0
  7 44  1  0  0  0  0
  7 32  1  6  0  0  0
  8  9  1  1  0  0  0
  8 17  1  0  0  0  0
 11 12  1  6  0  0  0
 11 20  1  0  0  0  0
 13  6  1  0  0  0  0
 13 14  1  1  0  0  0
 15 16  1  1  0  0  0
 15 24  1  0  0  0  0
 17 26  1  0  0  0  0
 18 10  1  0  0  0  0
 18 19  1  6  0  0  0
 20 21  1  6  0  0  0
 20 29  1  0  0  0  0
 22 13  1  0  0  0  0
 22 23  1  6  0  0  0
 24 25  1  1  0  0  0
 24 33  1  0  0  0  0
 26 27  1  1  0  0  0
 26 35  1  0  0  0  0
 28  2  1  6  0  0  0
 28 18  1  0  0  0  0
 29 30  1  0  0  0  0
 29 39  1  1  0  0  0
 31 22  1  0  0  0  0
 31 32  1  1  0  0  0
 31 41  1  0  0  0  0
 33 34  1  6  0  0  0
 33 43  1  0  0  0  0
 35 36  1  0  0  0  0
 35 45  1  6  0  0  0
 37 28  1  0  0  0  0
 37 38  1  1  0  0  0
 39 40  1  0  0  0  0
 41 42  1  0  0  0  0
 41 49  1  1  0  0  0
 43 44  1  0  0  0  0
 43 51  1  1  0  0  0
 45 46  1  0  0  0  0
 47 37  1  0  0  0  0
 47 48  1  1  0  0  0
 49 50  1  0  0  0  0
 51 52  1  0  0  0  0
M  END
>  <CHROM.1>
-151.94126431,153.82032797,-172.92666263,-157.72975343,109.06612571,-50.61383621
-45.65169635,-173.88936225,60.68961664,-102.59082431,170.24124205,-173.11189110
0.91370896,-50.55082968,10.93292884,2.87825618,0.90386148,2.90453334

>  <Name>
2fd0_lig

>  <RI>
0

>  <Rbt.Current_Directory>
/home/itssahil/PROJECTS/Mol_Feturizer/New_Systems/rnas/2fd0

>  <Rbt.Executable>
rbdock ($Id: //depot/dev/client3/rdock/2013.1/src/exe/rbdock.cxx#4 $)

>  <Rbt.Library>
libRbt.so (2013.1, Build901 2013/11/27)

>  <Rbt.Parameter_File>
/export/apps/rDock/src/rDock_2013.1_src/data/scripts/dock_solv.prm

>  <Rbt.Receptor>
prm/pocket_docking_6.prm

>  <SCORE>
-7.71143

>  <SCORE.INTER>
-13.8382

>  <SCORE.INTER.CONST>
1

>  <SCORE.INTER.POLAR>
-0.979796

>  <SCORE.INTER.ROT>
12

>  <SCORE.INTER.SOLV>
16.788

>  <SCORE.INTER.VDW>
-23.1555

>  <SCORE.INTER.norm>
-0.266119

>  <SCORE.INTRA>
6.12678

>  <SCORE.INTRA.DIHEDRAL>
0.333914

>  <SCORE.INTRA.DIHEDRAL.0>
23.9727

>  <SCORE.INTRA.POLAR>
0

>  <SCORE.INTRA.POLAR.0>
0

>  <SCORE.INTRA.REPUL>
0.269739

>  <SCORE.INTRA.REPUL.0>
0

>  <SCORE.INTRA.SOLV>
0.1265

>  <SCORE.INTRA.SOLV.lig_0>
-115.028

>  <SCORE.INTRA.VDW>
4.54788

>  <SCORE.INTRA.VDW.0>
-6.82393

>  <SCORE.INTRA.norm>
0.117823

>  <SCORE.RESTR>
0

>  <SCORE.RESTR.CAVITY>
0

>  <SCORE.RESTR.norm>
0

>  <SCORE.SYSTEM>
0

>  <SCORE.SYSTEM.CONST>
0

>  <SCORE.SYSTEM.DIHEDRAL>
0

>  <SCORE.SYSTEM.SOLV>
0

>  <SCORE.SYSTEM.norm>
0

>  <SCORE.heavy>
52

>  <SCORE.norm>
-0.148297

>  <RMSD>
12.181

$$$$
2fd0_lig
 OpenBabel11021811433D
libRbt.so/2013.1/901 2013/11/27
 52 56  0  0  0  0  0  0  0  0999 V2000
   -1.2715  -49.9704    8.0724 C   0  0  2  0  0  0  0  0  0  0  0  0
   -2.3065  -49.8973    9.0626 O   0  0  0  0  0  0  0  0  0  0  0  0
   -4.6157  -46.3089    8.2360 C   0  0  2  0  0  0  0  0  0  0  0  0
   -5.4630  -45.1193    8.4207 N   0  0  0  0  0  0  0  0  0  0  0  0
   -0.2270  -46.2802    9.4947 C   0  0  1  0  0  0  0  0  0  0  0  0
    3.3240  -44.9826   11.4276 C   0  0  1  0  0  0  0  0  0  0  0  0
    7.9857  -43.3286   12.1485 C   0  0  1  0  0  0  0  0  0  0  0  0
   -1.9422  -50.0429    6.6524 C   0  0  2  0  0  0  0  0  0  0  0  0
   -2.8240  -48.9095    6.4105 N   0  0  0  0  0  0  0  0  0  0  0  0
   -5.3676  -47.6094    8.7619 C   0  0  0  0  0  0  0  0  0  0  0  0
    0.8781  -46.5334   10.5037 C   0  0  2  0  0  0  0  0  0  0  0  0
    0.6615  -45.8149   11.7507 O   0  0  0  0  0  0  0  0  0  0  0  0
    4.1207  -43.6025   11.5693 C   0  0  2  0  0  0  0  0  0  0  0  0
    5.0017  -43.3852   10.3895 N   0  0  0  0  0  0  0  0  0  0  0  0
    8.6285  -43.7284   10.8014 C   0  0  1  0  0  0  0  0  0  0  0  0
    7.7116  -43.4057    9.7266 O   0  0  0  0  0  0  0  0  0  0  0  0
   -2.7029  -51.4091    6.4751 C   0  0  0  0  0  0  0  0  0  0  0  0
   -4.4476  -48.9047    8.5496 C   0  0  2  0  0  0  0  0  0  0  0  0
   -5.1189  -50.1213    9.0304 N   0  0  0  0  0  0  0  0  0  0  0  0
    2.1341  -46.1666    9.7313 C   0  0  2  0  0  0  0  0  0  0  0  0
    2.6819  -44.9592   10.1863 O   0  0  0  0  0  0  0  0  0  0  0  0
    4.8681  -43.6226   13.0018 C   0  0  1  0  0  0  0  0  0  0  0  0
    3.8717  -43.8285   14.0196 O   0  0  0  0  0  0  0  0  0  0  0  0
   10.0110  -43.1109   10.4573 C   0  0  1  0  0  0  0  0  0  0  0  0
    9.7848  -41.9228    9.6882 O   0  0  0  0  0  0  0  0  0  0  0  0
   -1.6964  -52.5760    6.7397 C   0  0  2  0  0  0  0  0  0  0  0  0
   -2.3432  -53.8334    6.5708 O   0  0  0  0  0  0  0  0  0  0  0  0
   -3.1027  -48.7033    9.3021 C   0  0  2  0  0  0  0  0  0  0  0  0
    1.7501  -45.9090    8.2546 C   0  0  2  0  0  0  0  0  0  0  0  0
    0.3866  -46.3054    8.2177 O   0  0  0  0  0  0  0  0  0  0  0  0
    5.9081  -44.8548   13.1213 C   0  0  2  0  0  0  0  0  0  0  0  0
    6.8908  -44.5981   12.1006 O   0  0  0  0  0  0  0  0  0  0  0  0
   10.9172  -42.7602   11.6599 C   0  0  2  0  0  0  0  0  0  0  0  0
   12.2512  -43.1579   11.2742 O   0  0  0  0  0  0  0  0  0  0  0  0
   -1.1361  -52.4581    8.1860 C   0  0  2  0  0  0  0  0  0  0  0  0
   -0.4596  -51.1484    8.3139 O   0  0  0  0  0  0  0  0  0  0  0  0
   -2.3533  -47.4085    8.8630 C   0  0  2  0  0  0  0  0  0  0  0  0
   -1.1489  -47.3106    9.6605 O   0  0  0  0  0  0  0  0  0  0  0  0
    2.5183  -46.7390    7.2322 C   0  0  0  0  0  0  0  0  0  0  0  0
    2.2185  -46.1950    5.9379 O   0  0  0  0  0  0  0  0  0  0  0  0
    5.1217  -46.0930   12.7342 C   0  0  1  0  0  0  0  0  0  0  0  0
    4.2645  -46.1924   11.5777 O   0  0  0  0  0  0  0  0  0  0  0  0
   10.4228  -43.4380   12.9350 C   0  0  2  0  0  0  0  0  0  0  0  0
    9.0128  -43.2322   13.2268 O   0  0  0  0  0  0  0  0  0  0  0  0
   -0.1367  -53.5283    8.4909 C   0  0  0  0  0  0  0  0  0  0  0  0
    0.2693  -53.3757    9.8242 O   0  0  0  0  0  0  0  0  0  0  0  0
   -3.2785  -46.1534    9.0660 C   0  0  1  0  0  0  0  0  0  0  0  0
   -2.5597  -44.9617    8.5943 O   0  0  0  0  0  0  0  0  0  0  0  0
    5.9855  -47.4037   12.7457 C   0  0  0  0  0  0  0  0  0  0  0  0
    6.3702  -47.8505   14.1065 N   0  0  0  0  0  0  0  0  0  0  0  0
   11.1298  -43.2527   14.2757 C   0  0  0  0  0  0  0  0  0  0  0  0
   12.4798  -43.8086   14.2196 O   0  0  0  0  0  0  0  0  0  0  0  0
  1  2  1  1  0  0  0
  1  8  1  0  0  0  0
  1 36  1  0  0  0  0
  3  4  1  1  0  0  0
  3 10  1  0  0  0  0
  3 47  1  0  0  0  0
  5 11  1  0  0  0  0
  5 30  1  0  0  0  0
  5 38  1  6  0  0  0
  6 21  1  6  0  0  0
  6 42  1  0  0  0  0
  7 15  1  0  0  0  0
  7 44  1  0  0  0  0
  7 32  1  1  0  0  0
  8  9  1  1  0  0  0
  8 17  1  0  0  0  0
 11 12  1  1  0  0  0
 11 20  1  0  0  0  0
 13  6  1  0  0  0  0
 13 14  1  6  0  0  0
 15 16  1  6  0  0  0
 15 24  1  0  0  0  0
 17 26  1  0  0  0  0
 18 10  1  0  0  0  0
 18 19  1  1  0  0  0
 20 21  1  1  0  0  0
 20 29  1  0  0  0  0
 22 13  1  0  0  0  0
 22 23  1  1  0  0  0
 24 25  1  1  0  0  0
 24 33  1  0  0  0  0
 26 27  1  1  0  0  0
 26 35  1  0  0  0  0
 28  2  1  6  0  0  0
 28 18  1  0  0  0  0
 29 30  1  0  0  0  0
 29 39  1  6  0  0  0
 31 22  1  0  0  0  0
 31 32  1  6  0  0  0
 31 41  1  0  0  0  0
 33 34  1  6  0  0  0
 33 43  1  0  0  0  0
 35 36  1  0  0  0  0
 35 45  1  6  0  0  0
 37 28  1  0  0  0  0
 37 38  1  1  0  0  0
 39 40  1  0  0  0  0
 41 42  1  0  0  0  0
 41 49  1  6  0  0  0
 43 44  1  0  0  0  0
 43 51  1  1  0  0  0
 45 46  1  0  0  0  0
 47 37  1  0  0  0  0
 47 48  1  6  0  0  0
 49 50  1  0  0  0  0
 51 52  1  0  0  0  0
M  END
>  <CHROM.1>
-73.71747844,-179.96361068,167.99649793,179.91700775,73.06079540,99.02058821
-169.37432073,68.39345816,-177.63444729,178.25814323,70.50787713,-64.15598968
2.46406506,-46.65062109,10.04252971,-2.64201293,-0.25339545,0.17616368

>  <Name>
2fd0_lig

>  <RI>
0

>  <Rbt.Current_Directory>
/home/itssahil/PROJECTS/Mol_Feturizer/New_Systems/rnas/2fd0

>  <Rbt.Executable>
rbdock ($Id: //depot/dev/client3/rdock/2013.1/src/exe/rbdock.cxx#4 $)

>  <Rbt.Library>
libRbt.so (2013.1, Build901 2013/11/27)

>  <Rbt.Parameter_File>
/export/apps/rDock/src/rDock_2013.1_src/data/scripts/dock_solv.prm

>  <Rbt.Receptor>
prm/pocket_docking_6.prm

>  <SCORE>
-8.51282

>  <SCORE.INTER>
-5.23796

>  <SCORE.INTER.CONST>
1

>  <SCORE.INTER.POLAR>
-1.07735

>  <SCORE.INTER.ROT>
12

>  <SCORE.INTER.SOLV>
10.8217

>  <SCORE.INTER.VDW>
-15.108

>  <SCORE.INTER.norm>
-0.10073

>  <SCORE.INTRA>
-3.27486

>  <SCORE.INTRA.DIHEDRAL>
-13.7299

>  <SCORE.INTRA.DIHEDRAL.0>
23.9727

>  <SCORE.INTRA.POLAR>
0

>  <SCORE.INTRA.POLAR.0>
0

>  <SCORE.INTRA.REPUL>
0

>  <SCORE.INTRA.REPUL.0>
0

>  <SCORE.INTRA.SOLV>
2.04892

>  <SCORE.INTRA.SOLV.lig_0>
-115.028

>  <SCORE.INTRA.VDW>
2.56565

>  <SCORE.INTRA.VDW.0>
-6.82393

>  <SCORE.INTRA.norm>
-0.0629781

>  <SCORE.RESTR>
0

>  <SCORE.RESTR.CAVITY>
0

>  <SCORE.RESTR.norm>
0

>  <SCORE.SYSTEM>
0

>  <SCORE.SYSTEM.CONST>
0

>  <SCORE.SYSTEM.DIHEDRAL>
0

>  <SCORE.SYSTEM.SOLV>
0

>  <SCORE.SYSTEM.norm>
0

>  <SCORE.heavy>
52

>  <SCORE.norm>
-0.163708

>  <RMSD>
12.186

$$$$
2fd0_lig
 OpenBabel11021811433D
libRbt.so/2013.1/901 2013/11/27
 52 56  0  0  0  0  0  0  0  0999 V2000
   -2.3660  -48.6969    5.9069 C   0  0  2  0  0  0  0  0  0  0  0  0
   -3.0544  -49.9123    5.5814 O   0  0  0  0  0  0  0  0  0  0  0  0
   -1.8050  -53.5574    3.5702 C   0  0  2  0  0  0  0  0  0  0  0  0
   -1.4292  -54.5121    2.5146 N   0  0  0  0  0  0  0  0  0  0  0  0
    0.8833  -50.1107    5.4061 C   0  0  1  0  0  0  0  0  0  0  0  0
    2.1173  -48.6518    9.1308 C   0  0  1  0  0  0  0  0  0  0  0  0
    4.7538  -48.1366   12.7769 C   0  0  1  0  0  0  0  0  0  0  0  0
   -3.2427  -47.8837    6.9274 C   0  0  2  0  0  0  0  0  0  0  0  0
   -3.5401  -48.6578    8.1245 N   0  0  0  0  0  0  0  0  0  0  0  0
   -3.2684  -52.9901    3.3062 C   0  0  0  0  0  0  0  0  0  0  0  0
    0.5288  -49.5887    6.7865 C   0  0  2  0  0  0  0  0  0  0  0  0
    0.6912  -48.1461    6.8891 O   0  0  0  0  0  0  0  0  0  0  0  0
    3.4861  -48.0353    9.6838 C   0  0  2  0  0  0  0  0  0  0  0  0
    4.3592  -49.1099   10.2298 N   0  0  0  0  0  0  0  0  0  0  0  0
    4.8338  -49.0269   14.0373 C   0  0  1  0  0  0  0  0  0  0  0  0
    4.6480  -50.4109   13.6503 O   0  0  0  0  0  0  0  0  0  0  0  0
   -4.5595  -47.3731    6.2331 C   0  0  0  0  0  0  0  0  0  0  0  0
   -3.6797  -51.9594    4.4628 C   0  0  2  0  0  0  0  0  0  0  0  0
   -5.0286  -51.4178    4.2409 N   0  0  0  0  0  0  0  0  0  0  0  0
    1.4060  -50.4260    7.7020 C   0  0  2  0  0  0  0  0  0  0  0  0
    2.4586  -49.6701    8.2362 O   0  0  0  0  0  0  0  0  0  0  0  0
    3.0999  -46.8581   10.7211 C   0  0  1  0  0  0  0  0  0  0  0  0
    2.2708  -45.9087   10.0265 O   0  0  0  0  0  0  0  0  0  0  0  0
    6.1236  -48.9356   14.8969 C   0  0  1  0  0  0  0  0  0  0  0  0
    7.0256  -49.9555   14.4491 O   0  0  0  0  0  0  0  0  0  0  0  0
   -4.1644  -46.5458    4.9666 C   0  0  2  0  0  0  0  0  0  0  0  0
   -5.3309  -46.0490    4.3180 O   0  0  0  0  0  0  0  0  0  0  0  0
   -2.6408  -50.8043    4.5089 C   0  0  2  0  0  0  0  0  0  0  0  0
    2.0852  -51.5331    6.8609 C   0  0  2  0  0  0  0  0  0  0  0  0
    1.4469  -51.3963    5.5994 O   0  0  0  0  0  0  0  0  0  0  0  0
    2.2235  -47.4121   11.9617 C   0  0  2  0  0  0  0  0  0  0  0  0
    3.0954  -48.3405   12.6336 O   0  0  0  0  0  0  0  0  0  0  0  0
    6.8598  -47.5761   14.8760 C   0  0  2  0  0  0  0  0  0  0  0  0
    7.2777  -47.3360   16.2377 O   0  0  0  0  0  0  0  0  0  0  0  0
   -3.3586  -47.4488    3.9893 C   0  0  2  0  0  0  0  0  0  0  0  0
   -2.1499  -47.9292    4.6948 O   0  0  0  0  0  0  0  0  0  0  0  0
   -1.1806  -51.3134    4.7084 C   0  0  2  0  0  0  0  0  0  0  0  0
   -0.3097  -50.1569    4.6894 O   0  0  0  0  0  0  0  0  0  0  0  0
    1.8590  -52.9556    7.3606 C   0  0  0  0  0  0  0  0  0  0  0  0
    0.4574  -53.2330    7.2202 O   0  0  0  0  0  0  0  0  0  0  0  0
    1.0784  -48.1885   11.3394 C   0  0  1  0  0  0  0  0  0  0  0  0
    1.2238  -49.1561   10.2788 O   0  0  0  0  0  0  0  0  0  0  0  0
    5.9652  -46.4770   14.3092 C   0  0  2  0  0  0  0  0  0  0  0  0
    5.3496  -46.7919   13.0297 O   0  0  0  0  0  0  0  0  0  0  0  0
   -2.9184  -46.7042    2.7691 C   0  0  0  0  0  0  0  0  0  0  0  0
   -4.0274  -46.5640    1.9228 O   0  0  0  0  0  0  0  0  0  0  0  0
   -0.8039  -52.3331    3.5723 C   0  0  1  0  0  0  0  0  0  0  0  0
    0.5566  -52.8293    3.8220 O   0  0  0  0  0  0  0  0  0  0  0  0
    0.1300  -48.8502   12.4010 C   0  0  0  0  0  0  0  0  0  0  0  0
   -0.6480  -47.8698   13.1965 N   0  0  0  0  0  0  0  0  0  0  0  0
    6.4477  -45.0353   14.1658 C   0  0  0  0  0  0  0  0  0  0  0  0
    7.6316  -44.8109   14.9919 O   0  0  0  0  0  0  0  0  0  0  0  0
  1  2  1  6  0  0  0
  1  8  1  0  0  0  0
  1 36  1  0  0  0  0
  3  4  1  6  0  0  0
  3 10  1  0  0  0  0
  3 47  1  0  0  0  0
  5 11  1  0  0  0  0
  5 30  1  0  0  0  0
  5 38  1  6  0  0  0
  6 21  1  6  0  0  0
  6 42  1  0  0  0  0
  7 15  1  0  0  0  0
  7 44  1  0  0  0  0
  7 32  1  1  0  0  0
  8  9  1  1  0  0  0
  8 17  1  0  0  0  0
 11 12  1  6  0  0  0
 11 20  1  0  0  0  0
 13  6  1  0  0  0  0
 13 14  1  1  0  0  0
 15 16  1  6  0  0  0
 15 24  1  0  0  0  0
 17 26  1  0  0  0  0
 18 10  1  0  0  0  0
 18 19  1  6  0  0  0
 20 21  1  6  0  0  0
 20 29  1  0  0  0  0
 22 13  1  0  0  0  0
 22 23  1  6  0  0  0
 24 25  1  6  0  0  0
 24 33  1  0  0  0  0
 26 27  1  6  0  0  0
 26 35  1  0  0  0  0
 28  2  1  1  0  0  0
 28 18  1  0  0  0  0
 29 30  1  0  0  0  0
 29 39  1  1  0  0  0
 31 22  1  0  0  0  0
 31 32  1  1  0  0  0
 31 41  1  0  0  0  0
 33 34  1  1  0  0  0
 33 43  1  0  0  0  0
 35 36  1  0  0  0  0
 35 45  1  6  0  0  0
 37 28  1  0  0  0  0
 37 38  1  6  0  0  0
 39 40  1  0  0  0  0
 41 42  1  0  0  0  0
 41 49  1  1  0  0  0
 43 44  1  0  0  0  0
 43 51  1  6  0  0  0
 45 46  1  0  0  0  0
 47 37  1  0  0  0  0
 47 48  1  1  0  0  0
 49 50  1  0  0  0  0
 51 52  1  0  0  0  0
M  END
>  <CHROM.1>
169.83368972,-88.07389071,175.19911348,155.85774360,67.10199308,-177.88613596
65.31906421,35.53301418,-76.54836198,149.81053124,67.61132165,-17.47038119
0.85861822,-49.12786811,8.40229930,2.54671463,0.69901602,-2.57811372

>  <Name>
2fd0_lig

>  <RI>
2.00683e+07

>  <Rbt.Current_Directory>
/home/itssahil/PROJECTS/Mol_Feturizer/New_Systems/rnas/2fd0

>  <Rbt.Executable>
rbdock ($Id: //depot/dev/client3/rdock/2013.1/src/exe/rbdock.cxx#4 $)

>  <Rbt.Library>
libRbt.so (2013.1, Build901 2013/11/27)

>  <Rbt.Parameter_File>
/export/apps/rDock/src/rDock_2013.1_src/data/scripts/dock_solv.prm

>  <Rbt.Receptor>
prm/pocket_docking_4.prm

>  <SCORE>
-6.19967

>  <SCORE.INTER>
-5.77876

>  <SCORE.INTER.CONST>
1

>  <SCORE.INTER.POLAR>
-1.55562

>  <SCORE.INTER.ROT>
12

>  <SCORE.INTER.SOLV>
9.9374

>  <SCORE.INTER.VDW>
-13.5796

>  <SCORE.INTER.norm>
-0.11113

>  <SCORE.INTRA>
-0.42091

>  <SCORE.INTRA.DIHEDRAL>
-4.7881

>  <SCORE.INTRA.DIHEDRAL.0>
23.9727

>  <SCORE.INTRA.POLAR>
0

>  <SCORE.INTRA.POLAR.0>
0

>  <SCORE.INTRA.REPUL>
0

>  <SCORE.INTRA.REPUL.0>
0

>  <SCORE.INTRA.SOLV>
-1.35698

>  <SCORE.INTRA.SOLV.lig_0>
-115.028

>  <SCORE.INTRA.VDW>
2.65163

>  <SCORE.INTRA.VDW.0>
-6.82393

>  <SCORE.INTRA.norm>
-0.00809442

>  <SCORE.RESTR>
0

>  <SCORE.RESTR.CAVITY>
0

>  <SCORE.RESTR.norm>
0

>  <SCORE.SYSTEM>
0

>  <SCORE.SYSTEM.CONST>
0

>  <SCORE.SYSTEM.DIHEDRAL>
0

>  <SCORE.SYSTEM.SOLV>
0

>  <SCORE.SYSTEM.norm>
0

>  <SCORE.heavy>
52

>  <SCORE.norm>
-0.119224

>  <RMSD>
12.190

$$$$
2fd0_lig
 OpenBabel11021811433D
libRbt.so/2013.1/901 2013/11/27
 52 56  0  0  0  0  0  0  0  0999 V2000
   -4.1208  -50.0265    7.8322 C   0  0  2  0  0  0  0  0  0  0  0  0
   -4.0653  -48.8533    7.0091 O   0  0  0  0  0  0  0  0  0  0  0  0
   -4.7894  -44.5869    7.4165 C   0  0  2  0  0  0  0  0  0  0  0  0
   -5.4564  -43.3025    7.6854 N   0  0  0  0  0  0  0  0  0  0  0  0
   -2.9116  -48.4166   10.0314 C   0  0  1  0  0  0  0  0  0  0  0  0
    1.1943  -47.6768   10.7836 C   0  0  1  0  0  0  0  0  0  0  0  0
    5.8381  -47.7496   12.8273 C   0  0  1  0  0  0  0  0  0  0  0  0
   -3.2541  -51.1516    7.1581 C   0  0  2  0  0  0  0  0  0  0  0  0
   -1.8790  -50.7223    6.9445 N   0  0  0  0  0  0  0  0  0  0  0  0
   -5.5941  -45.4071    6.3152 C   0  0  0  0  0  0  0  0  0  0  0  0
   -1.7793  -47.4277   10.2400 C   0  0  2  0  0  0  0  0  0  0  0  0
   -0.9595  -47.2686    9.0480 O   0  0  0  0  0  0  0  0  0  0  0  0
    2.5308  -48.5495   10.6760 C   0  0  2  0  0  0  0  0  0  0  0  0
    2.7443  -49.3328   11.9235 N   0  0  0  0  0  0  0  0  0  0  0  0
    5.4300  -48.3522   14.1904 C   0  0  1  0  0  0  0  0  0  0  0  0
    4.5475  -49.4790   13.9633 O   0  0  0  0  0  0  0  0  0  0  0  0
   -3.9217  -51.6264    5.8145 C   0  0  0  0  0  0  0  0  0  0  0  0
   -4.8599  -46.8002    6.0160 C   0  0  2  0  0  0  0  0  0  0  0  0
   -5.5857  -47.5796    5.0023 N   0  0  0  0  0  0  0  0  0  0  0  0
   -1.0722  -47.9749   11.4684 C   0  0  2  0  0  0  0  0  0  0  0  0
    0.1619  -48.5506   11.1362 O   0  0  0  0  0  0  0  0  0  0  0  0
    3.7304  -47.5456   10.2707 C   0  0  1  0  0  0  0  0  0  0  0  0
    3.3631  -46.8871    9.0449 O   0  0  0  0  0  0  0  0  0  0  0  0
    6.5697  -48.8157   15.1376 C   0  0  1  0  0  0  0  0  0  0  0  0
    6.8045  -50.2090   14.8970 O   0  0  0  0  0  0  0  0  0  0  0  0
   -5.3865  -52.0796    6.1208 C   0  0  2  0  0  0  0  0  0  0  0  0
   -6.0212  -52.5351    4.9301 O   0  0  0  0  0  0  0  0  0  0  0  0
   -4.7499  -47.6120    7.3369 C   0  0  2  0  0  0  0  0  0  0  0  0
   -1.9176  -49.1320   12.0524 C   0  0  2  0  0  0  0  0  0  0  0  0
   -3.1043  -49.0690   11.2744 O   0  0  0  0  0  0  0  0  0  0  0  0
    3.9397  -46.3812   11.3728 C   0  0  2  0  0  0  0  0  0  0  0  0
    4.3208  -47.0828   12.5712 O   0  0  0  0  0  0  0  0  0  0  0  0
    7.9104  -48.0559   15.0108 C   0  0  2  0  0  0  0  0  0  0  0  0
    8.3829  -47.8670   16.3627 O   0  0  0  0  0  0  0  0  0  0  0  0
   -6.1823  -50.8861    6.7224 C   0  0  2  0  0  0  0  0  0  0  0  0
   -5.5008  -50.4552    7.9631 O   0  0  0  0  0  0  0  0  0  0  0  0
   -4.0185  -46.8275    8.4685 C   0  0  2  0  0  0  0  0  0  0  0  0
   -4.0197  -47.6645    9.6498 O   0  0  0  0  0  0  0  0  0  0  0  0
   -2.2984  -48.9779   13.5206 C   0  0  0  0  0  0  0  0  0  0  0  0
   -2.9231  -50.2058   13.9244 O   0  0  0  0  0  0  0  0  0  0  0  0
    2.5682  -45.7691   11.5868 C   0  0  1  0  0  0  0  0  0  0  0  0
    1.3556  -46.5240   11.7914 O   0  0  0  0  0  0  0  0  0  0  0  0
    7.7303  -46.7514   14.2392 C   0  0  2  0  0  0  0  0  0  0  0  0
    7.0497  -46.8887   12.9611 O   0  0  0  0  0  0  0  0  0  0  0  0
   -7.5862  -51.2655    7.0719 C   0  0  0  0  0  0  0  0  0  0  0  0
   -8.2488  -50.1131    7.5176 O   0  0  0  0  0  0  0  0  0  0  0  0
   -4.7464  -45.4593    8.7350 C   0  0  1  0  0  0  0  0  0  0  0  0
   -4.0009  -44.7268    9.7680 O   0  0  0  0  0  0  0  0  0  0  0  0
    2.5592  -44.6345   12.6716 C   0  0  0  0  0  0  0  0  0  0  0  0
    3.0013  -45.0897   14.0120 N   0  0  0  0  0  0  0  0  0  0  0  0
    8.8991  -45.8093   13.9596 C   0  0  0  0  0  0  0  0  0  0  0  0
    9.8391  -46.4281   13.0280 O   0  0  0  0  0  0  0  0  0  0  0  0
  1  2  1  6  0  0  0
  1  8  1  0  0  0  0
  1 36  1  0  0  0  0
  3  4  1  1  0  0  0
  3 10  1  0  0  0  0
  3 47  1  0  0  0  0
  5 11  1  0  0  0  0
  5 30  1  0  0  0  0
  5 38  1  1  0  0  0
  6 21  1  1  0  0  0
  6 42  1  0  0  0  0
  7 15  1  0  0  0  0
  7 44  1  0  0  0  0
  7 32  1  1  0  0  0
  8  9  1  6  0  0  0
  8 17  1  0  0  0  0
 11 12  1  6  0  0  0
 11 20  1  0  0  0  0
 13  6  1  0  0  0  0
 13 14  1  1  0  0  0
 15 16  1  6  0  0  0
 15 24  1  0  0  0  0
 17 26  1  0  0  0  0
 18 10  1  0  0  0  0
 18 19  1  6  0  0  0
 20 21  1  6  0  0  0
 20 29  1  0  0  0  0
 22 13  1  0  0  0  0
 22 23  1  6  0  0  0
 24 25  1  6  0  0  0
 24 33  1  0  0  0  0
 26 27  1  6  0  0  0
 26 35  1  0  0  0  0
 28  2  1  6  0  0  0
 28 18  1  0  0  0  0
 29 30  1  0  0  0  0
 29 39  1  1  0  0  0
 31 22  1  0  0  0  0
 31 32  1  1  0  0  0
 31 41  1  0  0  0  0
 33 34  1  1  0  0  0
 33 43  1  0  0  0  0
 35 36  1  0  0  0  0
 35 45  1  1  0  0  0
 37 28  1  0  0  0  0
 37 38  1  1  0  0  0
 39 40  1  0  0  0  0
 41 42  1  0  0  0  0
 41 49  1  1  0  0  0
 43 44  1  0  0  0  0
 43 51  1  6  0  0  0
 45 46  1  0  0  0  0
 47 37  1  0  0  0  0
 47 48  1  1  0  0  0
 49 50  1  0  0  0  0
 51 52  1  0  0  0  0
M  END
>  <CHROM.1>
-179.61115676,59.24745424,171.41088504,-176.56052588,72.36892577,-160.54452633
-172.86868302,75.14637710,-176.03053910,99.96570111,-59.75892404,67.85818179
-0.17631121,-48.06703329,10.36732224,-3.04926071,-0.51112955,-0.04142216

>  <Name>
2fd0_lig

>  <RI>
0

>  <Rbt.Current_Directory>
/home/itssahil/PROJECTS/Mol_Feturizer/New_Systems/rnas/2fd0

>  <Rbt.Executable>
rbdock ($Id: //depot/dev/client3/rdock/2013.1/src/exe/rbdock.cxx#4 $)

>  <Rbt.Library>
libRbt.so (2013.1, Build901 2013/11/27)

>  <Rbt.Parameter_File>
/export/apps/rDock/src/rDock_2013.1_src/data/scripts/dock_solv.prm

>  <Rbt.Receptor>
prm/pocket_docking_8.prm

>  <SCORE>
-9.35335

>  <SCORE.INTER>
-3.79934

>  <SCORE.INTER.CONST>
1

>  <SCORE.INTER.POLAR>
-0.938083

>  <SCORE.INTER.ROT>
12

>  <SCORE.INTER.SOLV>
6.61337

>  <SCORE.INTER.VDW>
-13.2104

>  <SCORE.INTER.norm>
-0.0730642

>  <SCORE.INTRA>
-5.55401

>  <SCORE.INTRA.DIHEDRAL>
-12.5645

>  <SCORE.INTRA.DIHEDRAL.0>
23.9727

>  <SCORE.INTRA.POLAR>
0

>  <SCORE.INTRA.POLAR.0>
0

>  <SCORE.INTRA.REPUL>
0

>  <SCORE.INTRA.REPUL.0>
0

>  <SCORE.INTRA.SOLV>
-0.674071

>  <SCORE.INTRA.SOLV.lig_0>
-115.028

>  <SCORE.INTRA.VDW>
1.06529

>  <SCORE.INTRA.VDW.0>
-6.82393

>  <SCORE.INTRA.norm>
-0.106808

>  <SCORE.RESTR>
0

>  <SCORE.RESTR.CAVITY>
0

>  <SCORE.RESTR.norm>
0

>  <SCORE.SYSTEM>
0

>  <SCORE.SYSTEM.CONST>
0

>  <SCORE.SYSTEM.DIHEDRAL>
0

>  <SCORE.SYSTEM.SOLV>
0

>  <SCORE.SYSTEM.norm>
0

>  <SCORE.heavy>
52

>  <SCORE.norm>
-0.179872

>  <RMSD>
12.191

$$$$
2fd0_lig
 OpenBabel11021811433D
libRbt.so/2013.1/901 2013/11/27
 52 56  0  0  0  0  0  0  0  0999 V2000
   -4.9130  -50.4168    8.1597 C   0  0  2  0  0  0  0  0  0  0  0  0
   -5.0848  -51.5807    7.3394 O   0  0  0  0  0  0  0  0  0  0  0  0
   -2.3974  -54.0318    4.9598 C   0  0  2  0  0  0  0  0  0  0  0  0
   -1.4972  -54.4776    3.8838 N   0  0  0  0  0  0  0  0  0  0  0  0
   -0.9973  -51.0199    8.0931 C   0  0  1  0  0  0  0  0  0  0  0  0
    1.7493  -48.0195    9.1795 C   0  0  1  0  0  0  0  0  0  0  0  0
    5.4343  -45.8318   11.4106 C   0  0  1  0  0  0  0  0  0  0  0  0
   -6.0530  -50.3954    9.2421 C   0  0  2  0  0  0  0  0  0  0  0  0
   -6.0611  -51.6099   10.0455 N   0  0  0  0  0  0  0  0  0  0  0  0
   -3.8191  -53.6378    4.3626 C   0  0  0  0  0  0  0  0  0  0  0  0
   -0.6792  -49.5487    8.2880 C   0  0  2  0  0  0  0  0  0  0  0  0
    0.1242  -49.0095    7.2008 O   0  0  0  0  0  0  0  0  0  0  0  0
    3.1239  -48.2057    8.3825 C   0  0  2  0  0  0  0  0  0  0  0  0
    4.1037  -48.9682    9.2032 N   0  0  0  0  0  0  0  0  0  0  0  0
    6.6685  -45.1115   10.8228 C   0  0  1  0  0  0  0  0  0  0  0  0
    6.2316  -43.9178   10.1270 O   0  0  0  0  0  0  0  0  0  0  0  0
   -7.4502  -50.1491    8.5612 C   0  0  0  0  0  0  0  0  0  0  0  0
   -4.8010  -53.1633    5.5373 C   0  0  2  0  0  0  0  0  0  0  0  0
   -6.1224  -52.7905    5.0112 N   0  0  0  0  0  0  0  0  0  0  0  0
   -0.0426  -49.5184    9.6672 C   0  0  2  0  0  0  0  0  0  0  0  0
    1.3384  -49.2910    9.5899 O   0  0  0  0  0  0  0  0  0  0  0  0
    3.6070  -46.7391    7.9062 C   0  0  1  0  0  0  0  0  0  0  0  0
    2.5510  -46.1572    7.1205 O   0  0  0  0  0  0  0  0  0  0  0  0
    7.7984  -44.7085   11.8087 C   0  0  1  0  0  0  0  0  0  0  0  0
    7.5528  -43.3624   12.2352 O   0  0  0  0  0  0  0  0  0  0  0  0
   -7.3702  -48.8293    7.7267 C   0  0  2  0  0  0  0  0  0  0  0  0
   -8.6242  -48.5603    7.1074 O   0  0  0  0  0  0  0  0  0  0  0  0
   -4.1614  -51.9569    6.2797 C   0  0  2  0  0  0  0  0  0  0  0  0
   -0.1897  -50.9175   10.3116 C   0  0  2  0  0  0  0  0  0  0  0  0
   -1.0294  -51.5949    9.3878 O   0  0  0  0  0  0  0  0  0  0  0  0
    3.8465  -45.7471    9.1603 C   0  0  2  0  0  0  0  0  0  0  0  0
    4.9174  -46.3579    9.9044 O   0  0  0  0  0  0  0  0  0  0  0  0
    7.9620  -45.6045   13.0581 C   0  0  2  0  0  0  0  0  0  0  0  0
    9.3859  -45.7589   13.2456 O   0  0  0  0  0  0  0  0  0  0  0  0
   -6.2630  -48.9686    6.6430 C   0  0  2  0  0  0  0  0  0  0  0  0
   -4.9774  -49.2301    7.3274 O   0  0  0  0  0  0  0  0  0  0  0  0
   -2.7396  -52.2748    6.8351 C   0  0  2  0  0  0  0  0  0  0  0  0
   -2.2365  -51.0695    7.4599 O   0  0  0  0  0  0  0  0  0  0  0  0
   -0.8685  -50.9328   11.6767 C   0  0  0  0  0  0  0  0  0  0  0  0
   -0.0017  -50.2371   12.5855 O   0  0  0  0  0  0  0  0  0  0  0  0
    2.5782  -45.8220    9.9893 C   0  0  1  0  0  0  0  0  0  0  0  0
    1.9125  -47.0469   10.3618 O   0  0  0  0  0  0  0  0  0  0  0  0
    7.2221  -46.9281   12.8843 C   0  0  2  0  0  0  0  0  0  0  0  0
    5.8326  -46.7998   12.4742 O   0  0  0  0  0  0  0  0  0  0  0  0
   -6.1110  -47.7219    5.8308 C   0  0  0  0  0  0  0  0  0  0  0  0
   -5.6577  -46.7030    6.6805 O   0  0  0  0  0  0  0  0  0  0  0  0
   -1.7982  -52.7516    5.6693 C   0  0  1  0  0  0  0  0  0  0  0  0
   -0.4860  -53.0908    6.2372 O   0  0  0  0  0  0  0  0  0  0  0  0
    2.6380  -44.9490   11.2926 C   0  0  0  0  0  0  0  0  0  0  0  0
    2.4813  -43.4956   11.0426 N   0  0  0  0  0  0  0  0  0  0  0  0
    7.2101  -47.9971   13.9747 C   0  0  0  0  0  0  0  0  0  0  0  0
    8.2607  -47.7346   14.9554 O   0  0  0  0  0  0  0  0  0  0  0  0
  1  2  1  6  0  0  0
  1  8  1  0  0  0  0
  1 36  1  0  0  0  0
  3  4  1  6  0  0  0
  3 10  1  0  0  0  0
  3 47  1  0  0  0  0
  5 11  1  0  0  0  0
  5 30  1  0  0  0  0
  5 38  1  1  0  0  0
  6 21  1  1  0  0  0
  6 42  1  0  0  0  0
  7 15  1  0  0  0  0
  7 44  1  0  0  0  0
  7 32  1  6  0  0  0
  8  9  1  6  0  0  0
  8 17  1  0  0  0  0
 11 12  1  6  0  0  0
 11 20  1  0  0  0  0
 13  6  1  0  0  0  0
 13 14  1  1  0  0  0
 15 16  1  1  0  0  0
 15 24  1  0  0  0  0
 17 26  1  0  0  0  0
 18 10  1  0  0  0  0
 18 19  1  6  0  0  0
 20 21  1  6  0  0  0
 20 29  1  0  0  0  0
 22 13  1  0  0  0  0
 22 23  1  6  0  0  0
 24 25  1  1  0  0  0
 24 33  1  0  0  0  0
 26 27  1  6  0  0  0
 26 35  1  0  0  0  0
 28  2  1  1  0  0  0
 28 18  1  0  0  0  0
 29 30  1  0  0  0  0
 29 39  1  1  0  0  0
 31 22  1  0  0  0  0
 31 32  1  1  0  0  0
 31 41  1  0  0  0  0
 33 34  1  6  0  0  0
 33 43  1  0  0  0  0
 35 36  1  0  0  0  0
 35 45  1  1  0  0  0
 37 28  1  0  0  0  0
 37 38  1  6  0  0  0
 39 40  1  0  0  0  0
 41 42  1  0  0  0  0
 41 49  1  1  0  0  0
 43 44  1  0  0  0  0
 43 51  1  1  0  0  0
 45 46  1  0  0  0  0
 47 37  1  0  0  0  0
 47 48  1  1  0  0  0
 49 50  1  0  0  0  0
 51 52  1  0  0  0  0
M  END
>  <CHROM.1>
-176.48599445,165.60029643,-147.94312713,-101.94534532,69.45073680,-173.27363423
-65.70058343,-172.10528282,64.92076662,178.17748401,75.53252551,-15.83953317
0.27192161,-48.82466614,9.03631657,2.62232640,0.25300962,-2.78453997

>  <Name>
2fd0_lig

>  <RI>
0

>  <Rbt.Current_Directory>
/home/itssahil/PROJECTS/Mol_Feturizer/New_Systems/rnas/2fd0

>  <Rbt.Executable>
rbdock ($Id: //depot/dev/client3/rdock/2013.1/src/exe/rbdock.cxx#4 $)

>  <Rbt.Library>
libRbt.so (2013.1, Build901 2013/11/27)

>  <Rbt.Parameter_File>
/export/apps/rDock/src/rDock_2013.1_src/data/scripts/dock_solv.prm

>  <Rbt.Receptor>
prm/pocket_docking_5.prm

>  <SCORE>
-13.1453

>  <SCORE.INTER>
-10.7894

>  <SCORE.INTER.CONST>
1

>  <SCORE.INTER.POLAR>
-1.97186

>  <SCORE.INTER.ROT>
12

>  <SCORE.INTER.SOLV>
18.7263

>  <SCORE.INTER.VDW>
-18.4622

>  <SCORE.INTER.norm>
-0.207489

>  <SCORE.INTRA>
-2.35923

>  <SCORE.INTRA.DIHEDRAL>
-6.1178

>  <SCORE.INTRA.DIHEDRAL.0>
23.9727

>  <SCORE.INTRA.POLAR>
0

>  <SCORE.INTRA.POLAR.0>
0

>  <SCORE.INTRA.REPUL>
0

>  <SCORE.INTRA.REPUL.0>
0

>  <SCORE.INTRA.SOLV>
-3.9102

>  <SCORE.INTRA.SOLV.lig_0>
-115.028

>  <SCORE.INTRA.VDW>
2.65477

>  <SCORE.INTRA.VDW.0>
-6.82393

>  <SCORE.INTRA.norm>
-0.0453697

>  <SCORE.RESTR>
0.00337032

>  <SCORE.RESTR.CAVITY>
0.00337032

>  <SCORE.RESTR.norm>
6.48139e-05

>  <SCORE.SYSTEM>
0

>  <SCORE.SYSTEM.CONST>
0

>  <SCORE.SYSTEM.DIHEDRAL>
0

>  <SCORE.SYSTEM.SOLV>
0

>  <SCORE.SYSTEM.norm>
0

>  <SCORE.heavy>
52

>  <SCORE.norm>
-0.252794

>  <RMSD>
12.207

$$$$
2fd0_lig
 OpenBabel11021811433D
libRbt.so/2013.1/901 2013/11/27
 52 56  0  0  0  0  0  0  0  0999 V2000
   11.2687  -36.7071   18.0403 C   0  0  2  0  0  0  0  0  0  0  0  0
   12.4039  -37.1518   17.2849 O   0  0  0  0  0  0  0  0  0  0  0  0
   11.7285  -35.5189   13.3138 C   0  0  2  0  0  0  0  0  0  0  0  0
   11.8546  -35.2577   11.8706 N   0  0  0  0  0  0  0  0  0  0  0  0
   10.2016  -39.5144   14.4654 C   0  0  1  0  0  0  0  0  0  0  0  0
    8.8298  -43.8007   13.6037 C   0  0  1  0  0  0  0  0  0  0  0  0
    4.7033  -45.2430   11.7277 C   0  0  1  0  0  0  0  0  0  0  0  0
   11.6392  -35.3539   18.7496 C   0  0  2  0  0  0  0  0  0  0  0  0
   12.0669  -34.3405   17.7952 N   0  0  0  0  0  0  0  0  0  0  0  0
   13.1048  -35.2140   14.0525 C   0  0  0  0  0  0  0  0  0  0  0  0
   10.5910  -40.9545   14.7445 C   0  0  2  0  0  0  0  0  0  0  0  0
   11.6572  -41.4172   13.8686 O   0  0  0  0  0  0  0  0  0  0  0  0
    9.0563  -44.5038   12.1845 C   0  0  2  0  0  0  0  0  0  0  0  0
    8.3598  -43.7457   11.1096 N   0  0  0  0  0  0  0  0  0  0  0  0
    4.5974  -45.1122   10.1916 C   0  0  1  0  0  0  0  0  0  0  0  0
    4.6580  -46.4336    9.5999 O   0  0  0  0  0  0  0  0  0  0  0  0
   12.7314  -35.5966   19.8562 C   0  0  0  0  0  0  0  0  0  0  0  0
   12.9619  -35.4884   15.6253 C   0  0  2  0  0  0  0  0  0  0  0  0
   14.2223  -35.2165   16.3318 N   0  0  0  0  0  0  0  0  0  0  0  0
    9.2674  -41.6923   14.6322 C   0  0  2  0  0  0  0  0  0  0  0  0
    9.2069  -42.4622   13.4625 O   0  0  0  0  0  0  0  0  0  0  0  0
    8.6203  -46.0520   12.3389 C   0  0  1  0  0  0  0  0  0  0  0  0
    9.3960  -46.6275   13.4057 O   0  0  0  0  0  0  0  0  0  0  0  0
    3.3505  -44.3847    9.6200 C   0  0  1  0  0  0  0  0  0  0  0  0
    2.3544  -45.3747    9.3336 O   0  0  0  0  0  0  0  0  0  0  0  0
   12.2020  -36.6846   20.8464 C   0  0  2  0  0  0  0  0  0  0  0  0
   13.1566  -36.9206   21.8766 O   0  0  0  0  0  0  0  0  0  0  0  0
   12.5323  -36.9655   15.8476 C   0  0  2  0  0  0  0  0  0  0  0  0
    8.1304  -40.6518   14.4946 C   0  0  2  0  0  0  0  0  0  0  0  0
    8.8093  -39.4235   14.7129 O   0  0  0  0  0  0  0  0  0  0  0  0
    7.0684  -46.2009   12.7674 C   0  0  2  0  0  0  0  0  0  0  0  0
    6.3340  -45.6303   11.6680 O   0  0  0  0  0  0  0  0  0  0  0  0
    2.7251  -43.2962   10.5226 C   0  0  2  0  0  0  0  0  0  0  0  0
    2.3765  -42.2077    9.6393 O   0  0  0  0  0  0  0  0  0  0  0  0
   11.9258  -38.0026   20.0677 C   0  0  2  0  0  0  0  0  0  0  0  0
   10.9196  -37.7182   19.0207 O   0  0  0  0  0  0  0  0  0  0  0  0
   11.2164  -37.3312   15.0954 C   0  0  2  0  0  0  0  0  0  0  0  0
   10.9484  -38.7323   15.3428 O   0  0  0  0  0  0  0  0  0  0  0  0
    7.0146  -40.7726   15.5265 C   0  0  0  0  0  0  0  0  0  0  0  0
    7.6353  -41.0857   16.7826 O   0  0  0  0  0  0  0  0  0  0  0  0
    6.8917  -45.3084   13.9813 C   0  0  1  0  0  0  0  0  0  0  0  0
    7.3733  -43.9517   14.0795 O   0  0  0  0  0  0  0  0  0  0  0  0
    3.6840  -42.8929   11.6395 C   0  0  2  0  0  0  0  0  0  0  0  0
    4.2263  -44.0029   12.4071 O   0  0  0  0  0  0  0  0  0  0  0  0
   11.3814  -39.0765   20.9549 C   0  0  0  0  0  0  0  0  0  0  0  0
   10.1675  -38.6231   21.4902 O   0  0  0  0  0  0  0  0  0  0  0  0
   11.3742  -37.0407   13.5581 C   0  0  1  0  0  0  0  0  0  0  0  0
   10.1011  -37.3474   12.8915 O   0  0  0  0  0  0  0  0  0  0  0  0
    5.4184  -45.2842   14.5227 C   0  0  0  0  0  0  0  0  0  0  0  0
    4.9938  -46.5599   15.1485 N   0  0  0  0  0  0  0  0  0  0  0  0
    3.3134  -41.8412   12.6829 C   0  0  0  0  0  0  0  0  0  0  0  0
    2.2043  -42.3131   13.5085 O   0  0  0  0  0  0  0  0  0  0  0  0
  1  2  1  1  0  0  0
  1  8  1  0  0  0  0
  1 36  1  0  0  0  0
  3  4  1  6  0  0  0
  3 10  1  0  0  0  0
  3 47  1  0  0  0  0
  5 11  1  0  0  0  0
  5 30  1  0  0  0  0
  5 38  1  1  0  0  0
  6 21  1  6  0  0  0
  6 42  1  0  0  0  0
  7 15  1  0  0  0  0
  7 44  1  0  0  0  0
  7 32  1  6  0  0  0
  8  9  1  6  0  0  0
  8 17  1  0  0  0  0
 11 12  1  6  0  0  0
 11 20  1  0  0  0  0
 13  6  1  0  0  0  0
 13 14  1  6  0  0  0
 15 16  1  6  0  0  0
 15 24  1  0  0  0  0
 17 26  1  0  0  0  0
 18 10  1  0  0  0  0
 18 19  1  1  0  0  0
 20 21  1  6  0  0  0
 20 29  1  0  0  0  0
 22 13  1  0  0  0  0
 22 23  1  1  0  0  0
 24 25  1  1  0  0  0
 24 33  1  0  0  0  0
 26 27  1  1  0  0  0
 26 35  1  0  0  0  0
 28  2  1  1  0  0  0
 28 18  1  0  0  0  0
 29 30  1  0  0  0  0
 29 39  1  1  0  0  0
 31 22  1  0  0  0  0
 31 32  1  6  0  0  0
 31 41  1  0  0  0  0
 33 34  1  6  0  0  0
 33 43  1  0  0  0  0
 35 36  1  0  0  0  0
 35 45  1  1  0  0  0
 37 28  1  0  0  0  0
 37 38  1  6  0  0  0
 39 40  1  0  0  0  0
 41 42  1  0  0  0  0
 41 49  1  6  0  0  0
 43 44  1  0  0  0  0
 43 51  1  1  0  0  0
 45 46  1  0  0  0  0
 47 37  1  0  0  0  0
 47 48  1  6  0  0  0
 49 50  1  0  0  0  0
 51 52  1  0  0  0  0
M  END
>  <CHROM.1>
-100.15726253,158.11168485,-171.42035251,-164.96508570,129.40842012,78.55060667
39.66097846,-166.89174345,60.95387964,-154.52738861,69.62025885,65.25471487
8.67052001,-40.78586613,14.58677535,0.13929294,0.94444233,2.05141131

>  <Name>
2fd0_lig

>  <RI>
2.85265e+07

>  <Rbt.Current_Directory>
/home/itssahil/PROJECTS/Mol_Feturizer/New_Systems/rnas/2fd0

>  <Rbt.Executable>
rbdock ($Id: //depot/dev/client3/rdock/2013.1/src/exe/rbdock.cxx#4 $)

>  <Rbt.Library>
libRbt.so (2013.1, Build901 2013/11/27)

>  <Rbt.Parameter_File>
/export/apps/rDock/src/rDock_2013.1_src/data/scripts/dock_solv.prm

>  <Rbt.Receptor>
prm/blind_docking_60.prm

>  <SCORE>
1.61427

>  <SCORE.INTER>
-5.52441

>  <SCORE.INTER.CONST>
1

>  <SCORE.INTER.POLAR>
-0.106305

>  <SCORE.INTER.ROT>
12

>  <SCORE.INTER.SOLV>
19.8791

>  <SCORE.INTER.VDW>
-21.5549

>  <SCORE.INTER.norm>
-0.106239

>  <SCORE.INTRA>
5.75608

>  <SCORE.INTRA.DIHEDRAL>
0.10366

>  <SCORE.INTRA.DIHEDRAL.0>
23.9727

>  <SCORE.INTRA.POLAR>
0

>  <SCORE.INTRA.POLAR.0>
0

>  <SCORE.INTRA.REPUL>
0

>  <SCORE.INTRA.REPUL.0>
0

>  <SCORE.INTRA.SOLV>
2.01575

>  <SCORE.INTRA.SOLV.lig_0>
-115.028

>  <SCORE.INTRA.VDW>
4.69637

>  <SCORE.INTRA.VDW.0>
-6.82393

>  <SCORE.INTRA.norm>
0.110694

>  <SCORE.RESTR>
1.38261

>  <SCORE.RESTR.CAVITY>
1.38261

>  <SCORE.RESTR.norm>
0.0265886

>  <SCORE.SYSTEM>
0

>  <SCORE.SYSTEM.CONST>
0

>  <SCORE.SYSTEM.DIHEDRAL>
0

>  <SCORE.SYSTEM.SOLV>
0

>  <SCORE.SYSTEM.norm>
0

>  <SCORE.heavy>
52

>  <SCORE.norm>
0.0310436

>  <RMSD>
12.208

$$$$
2fd0_lig
 OpenBabel11021811433D
libRbt.so/2013.1/901 2013/11/27
 52 56  0  0  0  0  0  0  0  0999 V2000
   10.9037  -37.4903   16.0625 C   0  0  2  0  0  0  0  0  0  0  0  0
   11.2257  -38.8740   15.8659 O   0  0  0  0  0  0  0  0  0  0  0  0
   10.1093  -42.7243   17.5456 C   0  0  2  0  0  0  0  0  0  0  0  0
    9.3037  -43.8378   18.0730 N   0  0  0  0  0  0  0  0  0  0  0  0
    9.1943  -41.6437   13.4253 C   0  0  1  0  0  0  0  0  0  0  0  0
    6.3289  -43.1328   11.6752 C   0  0  1  0  0  0  0  0  0  0  0  0
    5.7662  -47.6068   14.2528 C   0  0  1  0  0  0  0  0  0  0  0  0
   10.4472  -36.8828   14.6863 C   0  0  2  0  0  0  0  0  0  0  0  0
    9.3206  -37.6106   14.1189 N   0  0  0  0  0  0  0  0  0  0  0  0
    9.8504  -41.4042   18.3961 C   0  0  0  0  0  0  0  0  0  0  0  0
    7.9046  -40.8553   13.5616 C   0  0  2  0  0  0  0  0  0  0  0  0
    7.1003  -41.3043   14.6884 O   0  0  0  0  0  0  0  0  0  0  0  0
    4.8904  -43.8331   11.6704 C   0  0  2  0  0  0  0  0  0  0  0  0
    4.2836  -43.7880   13.0287 N   0  0  0  0  0  0  0  0  0  0  0  0
    4.7015  -47.1124   15.2576 C   0  0  1  0  0  0  0  0  0  0  0  0
    3.3834  -47.3641   14.7108 O   0  0  0  0  0  0  0  0  0  0  0  0
   11.6583  -36.8283   13.6829 C   0  0  0  0  0  0  0  0  0  0  0  0
   10.7370  -40.1961   17.8270 C   0  0  2  0  0  0  0  0  0  0  0  0
   10.5141  -38.9620   18.5947 N   0  0  0  0  0  0  0  0  0  0  0  0
    7.2705  -41.0009   12.1886 C   0  0  2  0  0  0  0  0  0  0  0  0
    6.1619  -41.8581   12.2238 O   0  0  0  0  0  0  0  0  0  0  0  0
    5.0754  -45.3091   11.0394 C   0  0  1  0  0  0  0  0  0  0  0  0
    5.6578  -45.1631    9.7315 O   0  0  0  0  0  0  0  0  0  0  0  0
    4.7474  -47.6987   16.6946 C   0  0  1  0  0  0  0  0  0  0  0  0
    3.8709  -48.8320   16.7372 O   0  0  0  0  0  0  0  0  0  0  0  0
   12.8223  -36.0273   14.3525 C   0  0  2  0  0  0  0  0  0  0  0  0
   13.9340  -35.9393   13.4668 O   0  0  0  0  0  0  0  0  0  0  0  0
   10.3841  -39.9661   16.3309 C   0  0  2  0  0  0  0  0  0  0  0  0
    8.2862  -41.6870   11.2440 C   0  0  2  0  0  0  0  0  0  0  0  0
    9.4640  -41.7284   12.0368 O   0  0  0  0  0  0  0  0  0  0  0  0
    6.1048  -46.2086   11.9027 C   0  0  2  0  0  0  0  0  0  0  0  0
    5.4752  -46.3417   13.1909 O   0  0  0  0  0  0  0  0  0  0  0  0
    6.1407  -48.1275   17.2098 C   0  0  2  0  0  0  0  0  0  0  0  0
    6.1979  -47.6985   18.5879 O   0  0  0  0  0  0  0  0  0  0  0  0
   13.2485  -36.7374   15.6692 C   0  0  2  0  0  0  0  0  0  0  0  0
   12.0725  -36.7931   16.5655 O   0  0  0  0  0  0  0  0  0  0  0  0
   10.5663  -41.2488   15.4635 C   0  0  2  0  0  0  0  0  0  0  0  0
   10.1668  -40.9206   14.1112 O   0  0  0  0  0  0  0  0  0  0  0  0
    8.5975  -40.9213    9.9629 C   0  0  0  0  0  0  0  0  0  0  0  0
    9.5730  -41.6882    9.2409 O   0  0  0  0  0  0  0  0  0  0  0  0
    7.3541  -45.3626   12.0608 C   0  0  1  0  0  0  0  0  0  0  0  0
    7.3604  -43.9732   12.4501 O   0  0  0  0  0  0  0  0  0  0  0  0
    7.2506  -47.5413   16.3414 C   0  0  2  0  0  0  0  0  0  0  0  0
    7.0937  -47.7728   14.9141 O   0  0  0  0  0  0  0  0  0  0  0  0
   14.3383  -35.9987   16.3791 C   0  0  0  0  0  0  0  0  0  0  0  0
   13.8365  -34.7463   16.7604 O   0  0  0  0  0  0  0  0  0  0  0  0
    9.6999  -42.4238   16.0479 C   0  0  1  0  0  0  0  0  0  0  0  0
    9.9367  -43.6267   15.2377 O   0  0  0  0  0  0  0  0  0  0  0  0
    8.4676  -46.0577   12.9218 C   0  0  0  0  0  0  0  0  0  0  0  0
    9.7622  -45.3343   12.9159 N   0  0  0  0  0  0  0  0  0  0  0  0
    8.7265  -47.8156   16.6212 C   0  0  0  0  0  0  0  0  0  0  0  0
    9.0112  -47.6598   18.0457 O   0  0  0  0  0  0  0  0  0  0  0  0
  1  2  1  6  0  0  0
  1  8  1  0  0  0  0
  1 36  1  0  0  0  0
  3  4  1  1  0  0  0
  3 10  1  0  0  0  0
  3 47  1  0  0  0  0
  5 11  1  0  0  0  0
  5 30  1  0  0  0  0
  5 38  1  1  0  0  0
  6 21  1  1  0  0  0
  6 42  1  0  0  0  0
  7 15  1  0  0  0  0
  7 44  1  0  0  0  0
  7 32  1  6  0  0  0
  8  9  1  6  0  0  0
  8 17  1  0  0  0  0
 11 12  1  1  0  0  0
 11 20  1  0  0  0  0
 13  6  1  0  0  0  0
 13 14  1  1  0  0  0
 15 16  1  6  0  0  0
 15 24  1  0  0  0  0
 17 26  1  0  0  0  0
 18 10  1  0  0  0  0
 18 19  1  1  0  0  0
 20 21  1  1  0  0  0
 20 29  1  0  0  0  0
 22 13  1  0  0  0  0
 22 23  1  6  0  0  0
 24 25  1  6  0  0  0
 24 33  1  0  0  0  0
 26 27  1  6  0  0  0
 26 35  1  0  0  0  0
 28  2  1  6  0  0  0
 28 18  1  0  0  0  0
 29 30  1  0  0  0  0
 29 39  1  6  0  0  0
 31 22  1  0  0  0  0
 31 32  1  1  0  0  0
 31 41  1  0  0  0  0
 33 34  1  1  0  0  0
 33 43  1  0  0  0  0
 35 36  1  0  0  0  0
 35 45  1  1  0  0  0
 37 28  1  0  0  0  0
 37 38  1  6  0  0  0
 39 40  1  0  0  0  0
 41 42  1  0  0  0  0
 41 49  1  1  0  0  0
 43 44  1  0  0  0  0
 43 51  1  1  0  0  0
 45 46  1  0  0  0  0
 47 37  1  0  0  0  0
 47 48  1  6  0  0  0
 49 50  1  0  0  0  0
 51 52  1  0  0  0  0
M  END
>  <CHROM.1>
-106.65582632,98.42171228,-172.97691909,-175.73776535,-105.82852708,-83.07480132
178.53955278,155.17598005,63.58400315,-124.69951164,171.38946860,-45.60940964
8.58453692,-42.54633440,14.52824376,-0.39106201,0.94395212,2.12054810

>  <Name>
2fd0_lig

>  <RI>
2.60878e+07

>  <Rbt.Current_Directory>
/home/itssahil/PROJECTS/Mol_Feturizer/New_Systems/rnas/2fd0

>  <Rbt.Executable>
rbdock ($Id: //depot/dev/client3/rdock/2013.1/src/exe/rbdock.cxx#4 $)

>  <Rbt.Library>
libRbt.so (2013.1, Build901 2013/11/27)

>  <Rbt.Parameter_File>
/export/apps/rDock/src/rDock_2013.1_src/data/scripts/dock_solv.prm

>  <Rbt.Receptor>
prm/blind_docking_80.prm

>  <SCORE>
-4.70852

>  <SCORE.INTER>
-19.6874

>  <SCORE.INTER.CONST>
1

>  <SCORE.INTER.POLAR>
-0.782181

>  <SCORE.INTER.ROT>
12

>  <SCORE.INTER.SOLV>
27.9679

>  <SCORE.INTER.VDW>
-31.4403

>  <SCORE.INTER.norm>
-0.378603

>  <SCORE.INTRA>
13.8842

>  <SCORE.INTRA.DIHEDRAL>
8.53614

>  <SCORE.INTRA.DIHEDRAL.0>
23.9727

>  <SCORE.INTRA.POLAR>
0

>  <SCORE.INTRA.POLAR.0>
0

>  <SCORE.INTRA.REPUL>
0

>  <SCORE.INTRA.REPUL.0>
0

>  <SCORE.INTRA.SOLV>
3.12966

>  <SCORE.INTRA.SOLV.lig_0>
-115.028

>  <SCORE.INTRA.VDW>
8.05129

>  <SCORE.INTRA.VDW.0>
-6.82393

>  <SCORE.INTRA.norm>
0.267004

>  <SCORE.RESTR>
1.09465

>  <SCORE.RESTR.CAVITY>
1.09465

>  <SCORE.RESTR.norm>
0.021051

>  <SCORE.SYSTEM>
0

>  <SCORE.SYSTEM.CONST>
0

>  <SCORE.SYSTEM.DIHEDRAL>
0

>  <SCORE.SYSTEM.SOLV>
0

>  <SCORE.SYSTEM.norm>
0

>  <SCORE.heavy>
52

>  <SCORE.norm>
-0.0905485

>  <RMSD>
12.209

$$$$
2fd0_lig
 OpenBabel11021811433D
libRbt.so/2013.1/901 2013/11/27
 52 56  0  0  0  0  0  0  0  0999 V2000
   -1.8667  -52.4600    4.9751 C   0  0  2  0  0  0  0  0  0  0  0  0
   -2.8498  -53.0231    4.0958 O   0  0  0  0  0  0  0  0  0  0  0  0
   -7.1034  -52.2338    4.5159 C   0  0  2  0  0  0  0  0  0  0  0  0
   -8.5315  -52.4035    4.8305 N   0  0  0  0  0  0  0  0  0  0  0  0
   -3.7624  -51.3346    7.6634 C   0  0  1  0  0  0  0  0  0  0  0  0
   -1.4929  -50.7631   11.1760 C   0  0  1  0  0  0  0  0  0  0  0  0
    2.5146  -49.1813   13.7053 C   0  0  1  0  0  0  0  0  0  0  0  0
   -0.5734  -52.1408    4.1401 C   0  0  2  0  0  0  0  0  0  0  0  0
   -0.8548  -51.2489    3.0238 N   0  0  0  0  0  0  0  0  0  0  0  0
   -6.6221  -53.3660    3.5062 C   0  0  0  0  0  0  0  0  0  0  0  0
   -2.6262  -51.7712    8.5700 C   0  0  2  0  0  0  0  0  0  0  0  0
   -3.1013  -52.4928    9.7412 O   0  0  0  0  0  0  0  0  0  0  0  0
   -1.1107  -49.7295   12.3358 C   0  0  2  0  0  0  0  0  0  0  0  0
   -0.3063  -48.6038   11.7872 N   0  0  0  0  0  0  0  0  0  0  0  0
    3.3388  -50.2867   14.4027 C   0  0  1  0  0  0  0  0  0  0  0  0
    4.4138  -50.7001   13.5232 O   0  0  0  0  0  0  0  0  0  0  0  0
    0.1061  -53.4736    3.6518 C   0  0  0  0  0  0  0  0  0  0  0  0
   -5.0698  -53.1727    3.1565 C   0  0  2  0  0  0  0  0  0  0  0  0
   -4.5987  -54.2090    2.2260 N   0  0  0  0  0  0  0  0  0  0  0  0
   -1.8887  -50.4707    8.8408 C   0  0  2  0  0  0  0  0  0  0  0  0
   -2.0977  -50.0262   10.1537 O   0  0  0  0  0  0  0  0  0  0  0  0
   -0.4086  -50.5737   13.5212 C   0  0  1  0  0  0  0  0  0  0  0  0
   -1.3246  -51.6034   13.9357 O   0  0  0  0  0  0  0  0  0  0  0  0
    3.9518  -49.9542   15.7900 C   0  0  1  0  0  0  0  0  0  0  0  0
    5.2842  -49.4698   15.5793 O   0  0  0  0  0  0  0  0  0  0  0  0
    0.3864  -54.3740    4.8989 C   0  0  2  0  0  0  0  0  0  0  0  0
    1.0196  -55.5858    4.5004 O   0  0  0  0  0  0  0  0  0  0  0  0
   -4.2420  -53.2183    4.4712 C   0  0  2  0  0  0  0  0  0  0  0  0
   -2.4849  -49.3655    7.9367 C   0  0  2  0  0  0  0  0  0  0  0  0
   -3.3671  -50.0971    7.0977 O   0  0  0  0  0  0  0  0  0  0  0  0
    0.9294  -51.3264   13.0138 C   0  0  2  0  0  0  0  0  0  0  0  0
    1.8183  -50.2613   12.6276 O   0  0  0  0  0  0  0  0  0  0  0  0
    3.1779  -48.9255   16.6464 C   0  0  2  0  0  0  0  0  0  0  0  0
    3.2177  -49.4324   17.9984 O   0  0  0  0  0  0  0  0  0  0  0  0
   -0.9546  -54.6894    5.6214 C   0  0  2  0  0  0  0  0  0  0  0  0
   -1.5701  -53.4082    6.0325 O   0  0  0  0  0  0  0  0  0  0  0  0
   -4.7137  -52.1639    5.5185 C   0  0  2  0  0  0  0  0  0  0  0  0
   -3.9020  -52.3353    6.7051 O   0  0  0  0  0  0  0  0  0  0  0  0
   -1.4768  -48.6382    7.0539 C   0  0  0  0  0  0  0  0  0  0  0  0
   -0.8479  -49.6302    6.2283 O   0  0  0  0  0  0  0  0  0  0  0  0
    0.5216  -52.0907   11.7685 C   0  0  1  0  0  0  0  0  0  0  0  0
   -0.2572  -51.5398   10.6858 O   0  0  0  0  0  0  0  0  0  0  0  0
    1.7628  -48.7215   16.1122 C   0  0  2  0  0  0  0  0  0  0  0  0
    1.6851  -48.4268   14.6901 O   0  0  0  0  0  0  0  0  0  0  0  0
   -0.7507  -55.5208    6.8479 C   0  0  0  0  0  0  0  0  0  0  0  0
   -2.0087  -55.9453    7.2984 O   0  0  0  0  0  0  0  0  0  0  0  0
   -6.2410  -52.3628    5.8353 C   0  0  1  0  0  0  0  0  0  0  0  0
   -6.6609  -51.3219    6.7838 O   0  0  0  0  0  0  0  0  0  0  0  0
    1.7136  -52.8594   11.0958 C   0  0  0  0  0  0  0  0  0  0  0  0
    2.7571  -51.9663   10.5363 N   0  0  0  0  0  0  0  0  0  0  0  0
    0.7839  -47.7489   16.7663 C   0  0  0  0  0  0  0  0  0  0  0  0
   -0.4864  -47.7441   16.0446 O   0  0  0  0  0  0  0  0  0  0  0  0
  1  2  1  6  0  0  0
  1  8  1  0  0  0  0
  1 36  1  0  0  0  0
  3  4  1  1  0  0  0
  3 10  1  0  0  0  0
  3 47  1  0  0  0  0
  5 11  1  0  0  0  0
  5 30  1  0  0  0  0
  5 38  1  6  0  0  0
  6 21  1  6  0  0  0
  6 42  1  0  0  0  0
  7 15  1  0  0  0  0
  7 44  1  0  0  0  0
  7 32  1  6  0  0  0
  8  9  1  6  0  0  0
  8 17  1  0  0  0  0
 11 12  1  1  0  0  0
 11 20  1  0  0  0  0
 13  6  1  0  0  0  0
 13 14  1  6  0  0  0
 15 16  1  6  0  0  0
 15 24  1  0  0  0  0
 17 26  1  0  0  0  0
 18 10  1  0  0  0  0
 18 19  1  6  0  0  0
 20 21  1  1  0  0  0
 20 29  1  0  0  0  0
 22 13  1  0  0  0  0
 22 23  1  6  0  0  0
 24 25  1  6  0  0  0
 24 33  1  0  0  0  0
 26 27  1  6  0  0  0
 26 35  1  0  0  0  0
 28  2  1  6  0  0  0
 28 18  1  0  0  0  0
 29 30  1  0  0  0  0
 29 39  1  6  0  0  0
 31 22  1  0  0  0  0
 31 32  1  6  0  0  0
 31 41  1  0  0  0  0
 33 34  1  1  0  0  0
 33 43  1  0  0  0  0
 35 36  1  0  0  0  0
 35 45  1  1  0  0  0
 37 28  1  0  0  0  0
 37 38  1  1  0  0  0
 39 40  1  0  0  0  0
 41 42  1  0  0  0  0
 41 49  1  6  0  0  0
 43 44  1  0  0  0  0
 43 51  1  1  0  0  0
 45 46  1  0  0  0  0
 47 37  1  0  0  0  0
 47 48  1  1  0  0  0
 49 50  1  0  0  0  0
 51 52  1  0  0  0  0
M  END
>  <CHROM.1>
-168.72691617,-168.13091591,147.08184757,65.02050771,70.51081259,153.22913358
58.63208949,68.15998353,-170.01652158,159.96269496,-66.10780790,179.43761339
-1.06479922,-51.42554610,9.26836000,-2.10413489,-0.30251168,1.07793940

>  <Name>
2fd0_lig

>  <RI>
0

>  <Rbt.Current_Directory>
/home/itssahil/PROJECTS/Mol_Feturizer/New_Systems/rnas/2fd0

>  <Rbt.Executable>
rbdock ($Id: //depot/dev/client3/rdock/2013.1/src/exe/rbdock.cxx#4 $)

>  <Rbt.Library>
libRbt.so (2013.1, Build901 2013/11/27)

>  <Rbt.Parameter_File>
/export/apps/rDock/src/rDock_2013.1_src/data/scripts/dock_solv.prm

>  <Rbt.Receptor>
prm/pocket_docking_5.prm

>  <SCORE>
-17.396

>  <SCORE.INTER>
-12.8827

>  <SCORE.INTER.CONST>
1

>  <SCORE.INTER.POLAR>
-0.402776

>  <SCORE.INTER.ROT>
12

>  <SCORE.INTER.SOLV>
13.2393

>  <SCORE.INTER.VDW>
-23.259

>  <SCORE.INTER.norm>
-0.247744

>  <SCORE.INTRA>
-4.51521

>  <SCORE.INTRA.DIHEDRAL>
-10.6506

>  <SCORE.INTRA.DIHEDRAL.0>
23.9727

>  <SCORE.INTRA.POLAR>
0

>  <SCORE.INTRA.POLAR.0>
0

>  <SCORE.INTRA.REPUL>
0.0145635

>  <SCORE.INTRA.REPUL.0>
0

>  <SCORE.INTRA.SOLV>
-0.633494

>  <SCORE.INTRA.SOLV.lig_0>
-115.028

>  <SCORE.INTRA.VDW>
1.05404

>  <SCORE.INTRA.VDW.0>
-6.82393

>  <SCORE.INTRA.norm>
-0.086831

>  <SCORE.RESTR>
0.0019375

>  <SCORE.RESTR.CAVITY>
0.0019375

>  <SCORE.RESTR.norm>
3.72596e-05

>  <SCORE.SYSTEM>
0

>  <SCORE.SYSTEM.CONST>
0

>  <SCORE.SYSTEM.DIHEDRAL>
0

>  <SCORE.SYSTEM.SOLV>
0

>  <SCORE.SYSTEM.norm>
0

>  <SCORE.heavy>
52

>  <SCORE.norm>
-0.334538

>  <RMSD>
12.210

$$$$
2fd0_lig
 OpenBabel11021811433D
libRbt.so/2013.1/901 2013/11/27
 52 56  0  0  0  0  0  0  0  0999 V2000
   -4.5399  -51.7292    6.2490 C   0  0  2  0  0  0  0  0  0  0  0  0
   -4.5893  -50.8167    5.1436 O   0  0  0  0  0  0  0  0  0  0  0  0
   -5.6962  -46.6454    4.6263 C   0  0  2  0  0  0  0  0  0  0  0  0
   -6.4941  -45.4106    4.5525 N   0  0  0  0  0  0  0  0  0  0  0  0
   -4.5524  -48.5648    8.6424 C   0  0  1  0  0  0  0  0  0  0  0  0
   -3.1454  -48.8704   12.9550 C   0  0  1  0  0  0  0  0  0  0  0  0
    1.7427  -49.2212   12.4087 C   0  0  1  0  0  0  0  0  0  0  0  0
   -3.4002  -52.7783    5.9809 C   0  0  2  0  0  0  0  0  0  0  0  0
   -2.1104  -52.1360    5.7697 N   0  0  0  0  0  0  0  0  0  0  0  0
   -6.2587  -47.7282    3.6044 C   0  0  0  0  0  0  0  0  0  0  0  0
   -4.9576  -49.4581    9.8006 C   0  0  2  0  0  0  0  0  0  0  0  0
   -6.2180  -49.0458   10.4003 O   0  0  0  0  0  0  0  0  0  0  0  0
   -2.3817  -47.4936   13.2388 C   0  0  2  0  0  0  0  0  0  0  0  0
   -1.7193  -46.9996   12.0008 N   0  0  0  0  0  0  0  0  0  0  0  0
    2.7216  -48.8459   13.5439 C   0  0  1  0  0  0  0  0  0  0  0  0
    2.3800  -49.6028   14.7314 O   0  0  0  0  0  0  0  0  0  0  0  0
   -3.7837  -53.7060    4.7690 C   0  0  0  0  0  0  0  0  0  0  0  0
   -5.3817  -49.0678    3.6786 C   0  0  2  0  0  0  0  0  0  0  0  0
   -5.8828  -50.0869    2.7447 N   0  0  0  0  0  0  0  0  0  0  0  0
   -3.7398  -49.4114   10.7080 C   0  0  2  0  0  0  0  0  0  0  0  0
   -3.9877  -48.6536   11.8608 O   0  0  0  0  0  0  0  0  0  0  0  0
   -1.4036  -47.7367   14.5018 C   0  0  1  0  0  0  0  0  0  0  0  0
   -2.2072  -48.1962   15.6037 O   0  0  0  0  0  0  0  0  0  0  0  0
    4.2386  -49.0346   13.2717 C   0  0  1  0  0  0  0  0  0  0  0  0
    4.6136  -50.3347   13.7445 O   0  0  0  0  0  0  0  0  0  0  0  0
   -5.1690  -54.3666    5.0682 C   0  0  2  0  0  0  0  0  0  0  0  0
   -5.5446  -55.2307    4.0003 O   0  0  0  0  0  0  0  0  0  0  0  0
   -5.4101  -49.6153    5.1330 C   0  0  2  0  0  0  0  0  0  0  0  0
   -2.6001  -48.6694    9.9698 C   0  0  2  0  0  0  0  0  0  0  0  0
   -3.1371  -48.5005    8.6657 O   0  0  0  0  0  0  0  0  0  0  0  0
   -0.3186  -48.8991   14.2085 C   0  0  2  0  0  0  0  0  0  0  0  0
    0.4694  -48.3900   13.1160 O   0  0  0  0  0  0  0  0  0  0  0  0
    4.6882  -48.8917   11.7993 C   0  0  2  0  0  0  0  0  0  0  0  0
    5.9285  -48.1525   11.8384 O   0  0  0  0  0  0  0  0  0  0  0  0
   -6.2424  -53.2562    5.2539 C   0  0  2  0  0  0  0  0  0  0  0  0
   -5.8236  -52.3928    6.3803 O   0  0  0  0  0  0  0  0  0  0  0  0
   -4.9216  -48.5697    6.1813 C   0  0  2  0  0  0  0  0  0  0  0  0
   -5.0365  -49.1785    7.4899 O   0  0  0  0  0  0  0  0  0  0  0  0
   -1.2926  -49.4449    9.8529 C   0  0  0  0  0  0  0  0  0  0  0  0
   -1.5753  -50.6357    9.1025 O   0  0  0  0  0  0  0  0  0  0  0  0
   -1.1181  -50.0896   13.7137 C   0  0  1  0  0  0  0  0  0  0  0  0
   -2.1540  -50.0231   12.7114 O   0  0  0  0  0  0  0  0  0  0  0  0
    3.6048  -48.2224   10.9579 C   0  0  2  0  0  0  0  0  0  0  0  0
    2.2844  -48.8206   11.0771 O   0  0  0  0  0  0  0  0  0  0  0  0
   -7.5877  -53.8232    5.5793 C   0  0  0  0  0  0  0  0  0  0  0  0
   -8.4735  -52.7541    5.7743 O   0  0  0  0  0  0  0  0  0  0  0  0
   -5.7856  -47.2597    6.0810 C   0  0  1  0  0  0  0  0  0  0  0  0
   -5.2642  -46.2811    7.0453 O   0  0  0  0  0  0  0  0  0  0  0  0
   -0.2223  -51.3198   13.3284 C   0  0  0  0  0  0  0  0  0  0  0  0
   -0.0287  -51.4799   11.8668 N   0  0  0  0  0  0  0  0  0  0  0  0
    3.7841  -47.9675    9.4630 C   0  0  0  0  0  0  0  0  0  0  0  0
    4.8532  -46.9976    9.2374 O   0  0  0  0  0  0  0  0  0  0  0  0
  1  2  1  6  0  0  0
  1  8  1  0  0  0  0
  1 36  1  0  0  0  0
  3  4  1  1  0  0  0
  3 10  1  0  0  0  0
  3 47  1  0  0  0  0
  5 11  1  0  0  0  0
  5 30  1  0  0  0  0
  5 38  1  6  0  0  0
  6 21  1  6  0  0  0
  6 42  1  0  0  0  0
  7 15  1  0  0  0  0
  7 44  1  0  0  0  0
  7 32  1  1  0  0  0
  8  9  1  6  0  0  0
  8 17  1  0  0  0  0
 11 12  1  1  0  0  0
 11 20  1  0  0  0  0
 13  6  1  0  0  0  0
 13 14  1  6  0  0  0
 15 16  1  1  0  0  0
 15 24  1  0  0  0  0
 17 26  1  0  0  0  0
 18 10  1  0  0  0  0
 18 19  1  6  0  0  0
 20 21  1  1  0  0  0
 20 29  1  0  0  0  0
 22 13  1  0  0  0  0
 22 23  1  1  0  0  0
 24 25  1  6  0  0  0
 24 33  1  0  0  0  0
 26 27  1  6  0  0  0
 26 35  1  0  0  0  0
 28  2  1  6  0  0  0
 28 18  1  0  0  0  0
 29 30  1  0  0  0  0
 29 39  1  6  0  0  0
 31 22  1  0  0  0  0
 31 32  1  6  0  0  0
 31 41  1  0  0  0  0
 33 34  1  1  0  0  0
 33 43  1  0  0  0  0
 35 36  1  0  0  0  0
 35 45  1  1  0  0  0
 37 28  1  0  0  0  0
 37 38  1  1  0  0  0
 39 40  1  0  0  0  0
 41 42  1  0  0  0  0
 41 49  1  6  0  0  0
 43 44  1  0  0  0  0
 43 51  1  6  0  0  0
 45 46  1  0  0  0  0
 47 37  1  0  0  0  0
 47 48  1  1  0  0  0
 49 50  1  0  0  0  0
 51 52  1  0  0  0  0
M  END
>  <CHROM.1>
-171.89121732,175.71834779,117.53389110,-79.32265590,160.06785010,-169.57899363
61.14803755,-179.55094540,177.94900059,173.17747288,-102.28999879,-65.68878607
-2.26336764,-49.63923016,9.24379087,-2.38820712,-0.22855032,1.07845906

>  <Name>
2fd0_lig

>  <RI>
3.4301e+07

>  <Rbt.Current_Directory>
/home/itssahil/PROJECTS/Mol_Feturizer/New_Systems/rnas/2fd0

>  <Rbt.Executable>
rbdock ($Id: //depot/dev/client3/rdock/2013.1/src/exe/rbdock.cxx#4 $)

>  <Rbt.Library>
libRbt.so (2013.1, Build901 2013/11/27)

>  <Rbt.Parameter_File>
/export/apps/rDock/src/rDock_2013.1_src/data/scripts/dock_solv.prm

>  <Rbt.Receptor>
prm/pocket_docking_7.prm

>  <SCORE>
-8.72488

>  <SCORE.INTER>
-8.01594

>  <SCORE.INTER.CONST>
1

>  <SCORE.INTER.POLAR>
-1.42957

>  <SCORE.INTER.ROT>
12

>  <SCORE.INTER.SOLV>
9.56929

>  <SCORE.INTER.VDW>
-15.3685

>  <SCORE.INTER.norm>
-0.154153

>  <SCORE.INTRA>
-0.708944

>  <SCORE.INTRA.DIHEDRAL>
-7.55013

>  <SCORE.INTRA.DIHEDRAL.0>
23.9727

>  <SCORE.INTRA.POLAR>
0

>  <SCORE.INTRA.POLAR.0>
0

>  <SCORE.INTRA.REPUL>
0

>  <SCORE.INTRA.REPUL.0>
0

>  <SCORE.INTRA.SOLV>
3.1838

>  <SCORE.INTRA.SOLV.lig_0>
-115.028

>  <SCORE.INTRA.VDW>
1.47422

>  <SCORE.INTRA.VDW.0>
-6.82393

>  <SCORE.INTRA.norm>
-0.0136335

>  <SCORE.RESTR>
0

>  <SCORE.RESTR.CAVITY>
0

>  <SCORE.RESTR.norm>
0

>  <SCORE.SYSTEM>
0

>  <SCORE.SYSTEM.CONST>
0

>  <SCORE.SYSTEM.DIHEDRAL>
0

>  <SCORE.SYSTEM.SOLV>
0

>  <SCORE.SYSTEM.norm>
0

>  <SCORE.heavy>
52

>  <SCORE.norm>
-0.167786

>  <RMSD>
12.217

$$$$
2fd0_lig
 OpenBabel11021811433D
libRbt.so/2013.1/901 2013/11/27
 52 56  0  0  0  0  0  0  0  0999 V2000
   -3.4880  -52.4505    2.8208 C   0  0  2  0  0  0  0  0  0  0  0  0
   -2.5622  -51.8214    3.7176 O   0  0  0  0  0  0  0  0  0  0  0  0
    0.3905  -54.9352    4.4094 C   0  0  2  0  0  0  0  0  0  0  0  0
    1.6020  -55.6347    4.8675 N   0  0  0  0  0  0  0  0  0  0  0  0
   -1.9012  -52.2211    7.1979 C   0  0  1  0  0  0  0  0  0  0  0  0
   -2.4433  -50.1866   11.2720 C   0  0  1  0  0  0  0  0  0  0  0  0
    0.5721  -47.7241   14.8488 C   0  0  1  0  0  0  0  0  0  0  0  0
   -4.6112  -51.4136    2.4535 C   0  0  2  0  0  0  0  0  0  0  0  0
   -4.0583  -50.1979    1.8728 N   0  0  0  0  0  0  0  0  0  0  0  0
    0.7832  -53.6818    3.5106 C   0  0  0  0  0  0  0  0  0  0  0  0
   -2.9997  -51.8421    8.1741 C   0  0  2  0  0  0  0  0  0  0  0  0
   -3.7010  -50.6316    7.7725 O   0  0  0  0  0  0  0  0  0  0  0  0
   -2.4603  -48.5954   11.4376 C   0  0  2  0  0  0  0  0  0  0  0  0
   -1.1797  -48.0073   10.9586 N   0  0  0  0  0  0  0  0  0  0  0  0
    1.4022  -46.9316   13.8142 C   0  0  1  0  0  0  0  0  0  0  0  0
    0.6665  -45.7443   13.4283 O   0  0  0  0  0  0  0  0  0  0  0  0
   -5.4965  -51.0951    3.7149 C   0  0  0  0  0  0  0  0  0  0  0  0
   -0.5377  -52.9282    3.0039 C   0  0  2  0  0  0  0  0  0  0  0  0
   -0.2022  -51.7630    2.1723 N   0  0  0  0  0  0  0  0  0  0  0  0
   -2.2663  -51.7788    9.5033 C   0  0  2  0  0  0  0  0  0  0  0  0
   -2.1113  -50.4564    9.9413 O   0  0  0  0  0  0  0  0  0  0  0  0
   -2.8413  -48.2751   12.9748 C   0  0  1  0  0  0  0  0  0  0  0  0
   -4.1034  -48.9051   13.2600 O   0  0  0  0  0  0  0  0  0  0  0  0
    2.8348  -46.4980   14.2274 C   0  0  1  0  0  0  0  0  0  0  0  0
    2.7553  -45.1757   14.7746 O   0  0  0  0  0  0  0  0  0  0  0  0
   -6.0618  -52.4401    4.2772 C   0  0  2  0  0  0  0  0  0  0  0  0
   -6.8858  -52.1929    5.4122 O   0  0  0  0  0  0  0  0  0  0  0  0
   -1.3743  -52.4828    4.2358 C   0  0  2  0  0  0  0  0  0  0  0  0
   -0.8278  -52.3123    9.3012 C   0  0  2  0  0  0  0  0  0  0  0  0
   -0.8671  -52.8062    7.9700 O   0  0  0  0  0  0  0  0  0  0  0  0
   -1.7687  -48.9082   14.0058 C   0  0  2  0  0  0  0  0  0  0  0  0
   -0.5318  -48.2389   13.6961 O   0  0  0  0  0  0  0  0  0  0  0  0
    3.5562  -47.4142   15.2427 C   0  0  2  0  0  0  0  0  0  0  0  0
    4.9237  -47.5042   14.7863 O   0  0  0  0  0  0  0  0  0  0  0  0
   -4.8812  -53.3727    4.6725 C   0  0  2  0  0  0  0  0  0  0  0  0
   -4.0617  -53.6172    3.4650 O   0  0  0  0  0  0  0  0  0  0  0  0
   -1.7363  -53.6690    5.1806 C   0  0  2  0  0  0  0  0  0  0  0  0
   -2.4703  -53.1236    6.3030 O   0  0  0  0  0  0  0  0  0  0  0  0
   -0.4266  -53.4567   10.2252 C   0  0  0  0  0  0  0  0  0  0  0  0
   -0.1293  -52.8792   11.5056 O   0  0  0  0  0  0  0  0  0  0  0  0
   -1.6386  -50.3684   13.6153 C   0  0  1  0  0  0  0  0  0  0  0  0
   -1.4666  -50.8443   12.2640 O   0  0  0  0  0  0  0  0  0  0  0  0
    2.8587  -48.7674   15.3519 C   0  0  2  0  0  0  0  0  0  0  0  0
    1.4259  -48.6966   15.5920 O   0  0  0  0  0  0  0  0  0  0  0  0
   -5.3564  -54.6946    5.1862 C   0  0  0  0  0  0  0  0  0  0  0  0
   -6.0666  -55.3299    4.1577 O   0  0  0  0  0  0  0  0  0  0  0  0
   -0.4279  -54.4020    5.6533 C   0  0  1  0  0  0  0  0  0  0  0  0
   -0.8101  -55.5424    6.4976 O   0  0  0  0  0  0  0  0  0  0  0  0
   -0.5924  -51.1510   14.4856 C   0  0  0  0  0  0  0  0  0  0  0  0
    0.8167  -50.8611   14.1252 N   0  0  0  0  0  0  0  0  0  0  0  0
    3.3584  -49.8611   16.2932 C   0  0  0  0  0  0  0  0  0  0  0  0
    3.1498  -49.4684   17.6848 O   0  0  0  0  0  0  0  0  0  0  0  0
  1  2  1  1  0  0  0
  1  8  1  0  0  0  0
  1 36  1  0  0  0  0
  3  4  1  1  0  0  0
  3 10  1  0  0  0  0
  3 47  1  0  0  0  0
  5 11  1  0  0  0  0
  5 30  1  0  0  0  0
  5 38  1  6  0  0  0
  6 21  1  6  0  0  0
  6 42  1  0  0  0  0
  7 15  1  0  0  0  0
  7 44  1  0  0  0  0
  7 32  1  6  0  0  0
  8  9  1  1  0  0  0
  8 17  1  0  0  0  0
 11 12  1  6  0  0  0
 11 20  1  0  0  0  0
 13  6  1  0  0  0  0
 13 14  1  1  0  0  0
 15 16  1  1  0  0  0
 15 24  1  0  0  0  0
 17 26  1  0  0  0  0
 18 10  1  0  0  0  0
 18 19  1  1  0  0  0
 20 21  1  6  0  0  0
 20 29  1  0  0  0  0
 22 13  1  0  0  0  0
 22 23  1  1  0  0  0
 24 25  1  1  0  0  0
 24 33  1  0  0  0  0
 26 27  1  1  0  0  0
 26 35  1  0  0  0  0
 28  2  1  6  0  0  0
 28 18  1  0  0  0  0
 29 30  1  0  0  0  0
 29 39  1  1  0  0  0
 31 22  1  0  0  0  0
 31 32  1  6  0  0  0
 31 41  1  0  0  0  0
 33 34  1  6  0  0  0
 33 43  1  0  0  0  0
 35 36  1  0  0  0  0
 35 45  1  6  0  0  0
 37 28  1  0  0  0  0
 37 38  1  1  0  0  0
 39 40  1  0  0  0  0
 41 42  1  0  0  0  0
 41 49  1  1  0  0  0
 43 44  1  0  0  0  0
 43 51  1  1  0  0  0
 45 46  1  0  0  0  0
 47 37  1  0  0  0  0
 47 48  1  1  0  0  0
 49 50  1  0  0  0  0
 51 52  1  0  0  0  0
M  END
>  <CHROM.1>
-178.35874018,177.27428372,-169.04104442,-170.25914433,132.48864255,57.30036070
-77.52489045,140.00560451,61.86161944,-63.48735911,-76.09698638,68.68033052
-1.23421562,-51.01537804,9.22937179,1.96239632,0.28411583,-2.11473835

>  <Name>
2fd0_lig

>  <RI>
0

>  <Rbt.Current_Directory>
/home/itssahil/PROJECTS/Mol_Feturizer/New_Systems/rnas/2fd0

>  <Rbt.Executable>
rbdock ($Id: //depot/dev/client3/rdock/2013.1/src/exe/rbdock.cxx#4 $)

>  <Rbt.Library>
libRbt.so (2013.1, Build901 2013/11/27)

>  <Rbt.Parameter_File>
/export/apps/rDock/src/rDock_2013.1_src/data/scripts/dock_solv.prm

>  <Rbt.Receptor>
prm/pocket_docking_6.prm

>  <SCORE>
-11.0591

>  <SCORE.INTER>
-8.09187

>  <SCORE.INTER.CONST>
1

>  <SCORE.INTER.POLAR>
0

>  <SCORE.INTER.ROT>
12

>  <SCORE.INTER.SOLV>
11.0809

>  <SCORE.INTER.VDW>
-20.6882

>  <SCORE.INTER.norm>
-0.155613

>  <SCORE.INTRA>
-2.97065

>  <SCORE.INTRA.DIHEDRAL>
-7.56486

>  <SCORE.INTRA.DIHEDRAL.0>
23.9727

>  <SCORE.INTRA.POLAR>
0

>  <SCORE.INTRA.POLAR.0>
0

>  <SCORE.INTRA.REPUL>
0

>  <SCORE.INTRA.REPUL.0>
0

>  <SCORE.INTRA.SOLV>
2.44201

>  <SCORE.INTRA.SOLV.lig_0>
-115.028

>  <SCORE.INTRA.VDW>
-0.409227

>  <SCORE.INTRA.VDW.0>
-6.82393

>  <SCORE.INTRA.norm>
-0.0571279

>  <SCORE.RESTR>
0.00341651

>  <SCORE.RESTR.CAVITY>
0.00341651

>  <SCORE.RESTR.norm>
6.5702e-05

>  <SCORE.SYSTEM>
0

>  <SCORE.SYSTEM.CONST>
0

>  <SCORE.SYSTEM.DIHEDRAL>
0

>  <SCORE.SYSTEM.SOLV>
0

>  <SCORE.SYSTEM.norm>
0

>  <SCORE.heavy>
52

>  <SCORE.norm>
-0.212675

>  <RMSD>
12.244

$$$$
2fd0_lig
 OpenBabel11021811433D
libRbt.so/2013.1/901 2013/11/27
 52 56  0  0  0  0  0  0  0  0999 V2000
   -3.4869  -49.9771    6.3013 C   0  0  2  0  0  0  0  0  0  0  0  0
   -2.5770  -50.8005    5.5589 O   0  0  0  0  0  0  0  0  0  0  0  0
   -1.1345  -53.7949    8.3599 C   0  0  2  0  0  0  0  0  0  0  0  0
   -0.2934  -54.8206    8.9982 N   0  0  0  0  0  0  0  0  0  0  0  0
    0.3162  -49.5680    8.4518 C   0  0  1  0  0  0  0  0  0  0  0  0
    2.7206  -48.6505   10.8414 C   0  0  1  0  0  0  0  0  0  0  0  0
    5.2659  -47.7914   15.2954 C   0  0  1  0  0  0  0  0  0  0  0  0
   -4.8276  -50.7723    6.5057 C   0  0  2  0  0  0  0  0  0  0  0  0
   -4.6057  -52.0472    7.1736 N   0  0  0  0  0  0  0  0  0  0  0  0
   -1.5230  -54.2404    6.8822 C   0  0  0  0  0  0  0  0  0  0  0  0
    1.7293  -49.9969    8.1014 C   0  0  2  0  0  0  0  0  0  0  0  0
    2.1065  -51.2406    8.7563 O   0  0  0  0  0  0  0  0  0  0  0  0
    3.1776  -47.1556   11.1819 C   0  0  2  0  0  0  0  0  0  0  0  0
    4.6604  -47.0385   11.1286 N   0  0  0  0  0  0  0  0  0  0  0  0
    6.6155  -47.5483   14.5833 C   0  0  1  0  0  0  0  0  0  0  0  0
    6.7505  -46.1341   14.2974 O   0  0  0  0  0  0  0  0  0  0  0  0
   -5.5644  -50.9670    5.1289 C   0  0  0  0  0  0  0  0  0  0  0  0
   -2.4479  -53.1272    6.1933 C   0  0  2  0  0  0  0  0  0  0  0  0
   -2.8192  -53.5138    4.8242 N   0  0  0  0  0  0  0  0  0  0  0  0
    2.5553  -48.7743    8.4639 C   0  0  2  0  0  0  0  0  0  0  0  0
    3.3133  -48.9924    9.6226 O   0  0  0  0  0  0  0  0  0  0  0  0
    2.4979  -46.7533   12.5915 C   0  0  1  0  0  0  0  0  0  0  0  0
    1.0737  -46.9123   12.4591 O   0  0  0  0  0  0  0  0  0  0  0  0
    7.9036  -48.0178   15.3122 C   0  0  1  0  0  0  0  0  0  0  0  0
    8.4113  -46.9112   16.0684 O   0  0  0  0  0  0  0  0  0  0  0  0
   -5.7765  -49.5622    4.4761 C   0  0  2  0  0  0  0  0  0  0  0  0
   -6.4587  -49.6937    3.2328 O   0  0  0  0  0  0  0  0  0  0  0  0
   -1.6880  -51.7715    6.1785 C   0  0  2  0  0  0  0  0  0  0  0  0
    1.5943  -47.6143    8.8181 C   0  0  2  0  0  0  0  0  0  0  0  0
    0.3247  -48.1512    8.4755 O   0  0  0  0  0  0  0  0  0  0  0  0
    2.9610  -47.7390   13.7866 C   0  0  2  0  0  0  0  0  0  0  0  0
    4.3823  -47.5339   13.8935 O   0  0  0  0  0  0  0  0  0  0  0  0
    7.7469  -49.2340   16.2541 C   0  0  2  0  0  0  0  0  0  0  0  0
    8.9168  -50.0524   16.0349 O   0  0  0  0  0  0  0  0  0  0  0  0
   -4.3958  -48.8811    4.2536 C   0  0  2  0  0  0  0  0  0  0  0  0
   -3.7291  -48.7488    5.5679 O   0  0  0  0  0  0  0  0  0  0  0  0
   -1.2340  -51.3184    7.5996 C   0  0  2  0  0  0  0  0  0  0  0  0
   -0.5049  -50.0767    7.4487 O   0  0  0  0  0  0  0  0  0  0  0  0
    1.8044  -46.3332    8.0188 C   0  0  0  0  0  0  0  0  0  0  0  0
    1.3744  -46.6003    6.6753 O   0  0  0  0  0  0  0  0  0  0  0  0
    2.7130  -49.1458   13.2758 C   0  0  1  0  0  0  0  0  0  0  0  0
    3.1003  -49.6253   11.9711 O   0  0  0  0  0  0  0  0  0  0  0  0
    6.4328  -49.9647   15.9918 C   0  0  2  0  0  0  0  0  0  0  0  0
    5.2532  -49.1138   15.9868 O   0  0  0  0  0  0  0  0  0  0  0  0
   -4.5318  -47.5139    3.6626 C   0  0  0  0  0  0  0  0  0  0  0  0
   -5.0308  -47.6522    2.3597 O   0  0  0  0  0  0  0  0  0  0  0  0
   -0.3409  -52.4304    8.2617 C   0  0  1  0  0  0  0  0  0  0  0  0
    0.0240  -51.9919    9.6160 O   0  0  0  0  0  0  0  0  0  0  0  0
    3.1495  -50.2594   14.2926 C   0  0  0  0  0  0  0  0  0  0  0  0
    4.5570  -50.6967   14.1276 N   0  0  0  0  0  0  0  0  0  0  0  0
    6.0203  -51.1988   16.7910 C   0  0  0  0  0  0  0  0  0  0  0  0
    5.6818  -50.8263   18.1626 O   0  0  0  0  0  0  0  0  0  0  0  0
  1  2  1  6  0  0  0
  1  8  1  0  0  0  0
  1 36  1  0  0  0  0
  3  4  1  6  0  0  0
  3 10  1  0  0  0  0
  3 47  1  0  0  0  0
  5 11  1  0  0  0  0
  5 30  1  0  0  0  0
  5 38  1  6  0  0  0
  6 21  1  6  0  0  0
  6 42  1  0  0  0  0
  7 15  1  0  0  0  0
  7 44  1  0  0  0  0
  7 32  1  6  0  0  0
  8  9  1  6  0  0  0
  8 17  1  0  0  0  0
 11 12  1  1  0  0  0
 11 20  1  0  0  0  0
 13  6  1  0  0  0  0
 13 14  1  1  0  0  0
 15 16  1  1  0  0  0
 15 24  1  0  0  0  0
 17 26  1  0  0  0  0
 18 10  1  0  0  0  0
 18 19  1  6  0  0  0
 20 21  1  1  0  0  0
 20 29  1  0  0  0  0
 22 13  1  0  0  0  0
 22 23  1  6  0  0  0
 24 25  1  1  0  0  0
 24 33  1  0  0  0  0
 26 27  1  6  0  0  0
 26 35  1  0  0  0  0
 28  2  1  1  0  0  0
 28 18  1  0  0  0  0
 29 30  1  0  0  0  0
 29 39  1  6  0  0  0
 31 22  1  0  0  0  0
 31 32  1  6  0  0  0
 31 41  1  0  0  0  0
 33 34  1  6  0  0  0
 33 43  1  0  0  0  0
 35 36  1  0  0  0  0
 35 45  1  1  0  0  0
 37 28  1  0  0  0  0
 37 38  1  6  0  0  0
 39 40  1  0  0  0  0
 41 42  1  0  0  0  0
 41 49  1  1  0  0  0
 43 44  1  0  0  0  0
 43 51  1  1  0  0  0
 45 46  1  0  0  0  0
 47 37  1  0  0  0  0
 47 48  1  1  0  0  0
 49 50  1  0  0  0  0
 51 52  1  0  0  0  0
M  END
>  <CHROM.1>
-86.60220180,97.15445032,-93.50683220,173.42332392,-90.58310049,91.96355593
70.28930059,154.19612053,-67.12219477,-163.74083921,-89.83927795,70.30252361
1.22266112,-49.57156708,9.98284875,-3.03240594,0.79509762,2.81665903

>  <Name>
2fd0_lig

>  <RI>
2.89522e+07

>  <Rbt.Current_Directory>
/home/itssahil/PROJECTS/Mol_Feturizer/New_Systems/rnas/2fd0

>  <Rbt.Executable>
rbdock ($Id: //depot/dev/client3/rdock/2013.1/src/exe/rbdock.cxx#4 $)

>  <Rbt.Library>
libRbt.so (2013.1, Build901 2013/11/27)

>  <Rbt.Parameter_File>
/export/apps/rDock/src/rDock_2013.1_src/data/scripts/dock_solv.prm

>  <Rbt.Receptor>
prm/pocket_docking_2.prm

>  <SCORE>
19.1455

>  <SCORE.INTER>
-2.78137

>  <SCORE.INTER.CONST>
1

>  <SCORE.INTER.POLAR>
-0.703023

>  <SCORE.INTER.ROT>
12

>  <SCORE.INTER.SOLV>
12.6556

>  <SCORE.INTER.VDW>
-15.3294

>  <SCORE.INTER.norm>
-0.0534878

>  <SCORE.INTRA>
17.1812

>  <SCORE.INTRA.DIHEDRAL>
4.21663

>  <SCORE.INTRA.DIHEDRAL.0>
23.9727

>  <SCORE.INTRA.POLAR>
0

>  <SCORE.INTRA.POLAR.0>
0

>  <SCORE.INTRA.REPUL>
0

>  <SCORE.INTRA.REPUL.0>
0

>  <SCORE.INTRA.SOLV>
9.08359

>  <SCORE.INTRA.SOLV.lig_0>
-115.028

>  <SCORE.INTRA.VDW>
10.5311

>  <SCORE.INTRA.VDW.0>
-6.82393

>  <SCORE.INTRA.norm>
0.330408

>  <SCORE.RESTR>
4.74563

>  <SCORE.RESTR.CAVITY>
4.74563

>  <SCORE.RESTR.norm>
0.0912621

>  <SCORE.SYSTEM>
0

>  <SCORE.SYSTEM.CONST>
0

>  <SCORE.SYSTEM.DIHEDRAL>
0

>  <SCORE.SYSTEM.SOLV>
0

>  <SCORE.SYSTEM.norm>
0

>  <SCORE.heavy>
52

>  <SCORE.norm>
0.368182

>  <RMSD>
12.266

$$$$
2fd0_lig
 OpenBabel11021811433D
libRbt.so/2013.1/901 2013/11/27
 52 56  0  0  0  0  0  0  0  0999 V2000
   -3.2495  -50.4073    3.6123 C   0  0  2  0  0  0  0  0  0  0  0  0
   -3.8567  -51.6016    4.1241 O   0  0  0  0  0  0  0  0  0  0  0  0
   -7.0944  -50.0971    6.6032 C   0  0  2  0  0  0  0  0  0  0  0  0
   -8.3311  -50.0340    7.3992 N   0  0  0  0  0  0  0  0  0  0  0  0
   -2.6103  -51.8426    7.5050 C   0  0  1  0  0  0  0  0  0  0  0  0
    0.2024  -51.0636   10.8551 C   0  0  1  0  0  0  0  0  0  0  0  0
    2.1356  -48.3193   14.9865 C   0  0  1  0  0  0  0  0  0  0  0  0
   -2.3542  -50.7909    2.3783 C   0  0  2  0  0  0  0  0  0  0  0  0
   -3.1183  -51.4776    1.3462 N   0  0  0  0  0  0  0  0  0  0  0  0
   -7.4152  -50.5839    5.1223 C   0  0  0  0  0  0  0  0  0  0  0  0
   -2.9056  -51.1537    8.8247 C   0  0  2  0  0  0  0  0  0  0  0  0
   -2.9777  -49.7066    8.6874 O   0  0  0  0  0  0  0  0  0  0  0  0
   -0.3816  -51.1142   12.3437 C   0  0  2  0  0  0  0  0  0  0  0  0
   -1.0661  -49.8359   12.6793 N   0  0  0  0  0  0  0  0  0  0  0  0
    3.0216  -47.5038   14.0182 C   0  0  1  0  0  0  0  0  0  0  0  0
    2.1836  -46.5914   13.2663 O   0  0  0  0  0  0  0  0  0  0  0  0
   -1.1191  -51.6482    2.8431 C   0  0  0  0  0  0  0  0  0  0  0  0
   -6.0688  -50.6412    4.2544 C   0  0  2  0  0  0  0  0  0  0  0  0
   -6.3374  -51.0913    2.8807 N   0  0  0  0  0  0  0  0  0  0  0  0
   -1.8125  -51.6842    9.7370 C   0  0  2  0  0  0  0  0  0  0  0  0
   -0.8528  -50.7006   10.0133 O   0  0  0  0  0  0  0  0  0  0  0  0
    0.8334  -51.5313   13.3239 C   0  0  1  0  0  0  0  0  0  0  0  0
    1.3651  -52.7865   12.8627 O   0  0  0  0  0  0  0  0  0  0  0  0
    4.1910  -46.6884   14.6335 C   0  0  1  0  0  0  0  0  0  0  0  0
    3.7167  -45.3602   14.8888 O   0  0  0  0  0  0  0  0  0  0  0  0
   -0.3436  -50.8480    3.9400 C   0  0  2  0  0  0  0  0  0  0  0  0
    0.7952  -51.5840    4.3752 O   0  0  0  0  0  0  0  0  0  0  0  0
   -5.0590  -51.6010    4.9435 C   0  0  2  0  0  0  0  0  0  0  0  0
   -1.0461  -52.8037    8.9930 C   0  0  2  0  0  0  0  0  0  0  0  0
   -1.8227  -52.9786    7.8166 O   0  0  0  0  0  0  0  0  0  0  0  0
    2.0492  -50.4671   13.2627 C   0  0  2  0  0  0  0  0  0  0  0  0
    1.4774  -49.2374   13.7469 O   0  0  0  0  0  0  0  0  0  0  0  0
    4.8053  -47.2560   15.9339 C   0  0  2  0  0  0  0  0  0  0  0  0
    6.2329  -47.0804   15.8019 O   0  0  0  0  0  0  0  0  0  0  0  0
   -1.2886  -50.5722    5.1444 C   0  0  2  0  0  0  0  0  0  0  0  0
   -2.4471  -49.7935    4.6537 O   0  0  0  0  0  0  0  0  0  0  0  0
   -4.7551  -51.1993    6.4191 C   0  0  2  0  0  0  0  0  0  0  0  0
   -3.8450  -52.1865    6.9607 O   0  0  0  0  0  0  0  0  0  0  0  0
   -0.9791  -54.1390    9.7258 C   0  0  0  0  0  0  0  0  0  0  0  0
   -0.1964  -53.9296   10.9110 O   0  0  0  0  0  0  0  0  0  0  0  0
    2.3743  -50.3017   11.7901 C   0  0  1  0  0  0  0  0  0  0  0  0
    1.3941  -50.0943   10.7516 O   0  0  0  0  0  0  0  0  0  0  0  0
    4.3862  -48.7076   16.1500 C   0  0  2  0  0  0  0  0  0  0  0  0
    2.9541  -48.9474   16.0647 O   0  0  0  0  0  0  0  0  0  0  0  0
   -0.6152  -49.7762    6.2168 C   0  0  0  0  0  0  0  0  0  0  0  0
    0.3805  -50.5783    6.7921 O   0  0  0  0  0  0  0  0  0  0  0  0
   -6.0901  -51.1351    7.2475 C   0  0  1  0  0  0  0  0  0  0  0  0
   -5.7708  -50.7043    8.6157 O   0  0  0  0  0  0  0  0  0  0  0  0
    3.5158  -49.2581   11.5216 C   0  0  0  0  0  0  0  0  0  0  0  0
    3.9250  -49.1771   10.0985 N   0  0  0  0  0  0  0  0  0  0  0  0
    4.8440  -49.5089   17.3667 C   0  0  0  0  0  0  0  0  0  0  0  0
    4.4546  -50.9102   17.2282 O   0  0  0  0  0  0  0  0  0  0  0  0
  1  2  1  1  0  0  0
  1  8  1  0  0  0  0
  1 36  1  0  0  0  0
  3  4  1  1  0  0  0
  3 10  1  0  0  0  0
  3 47  1  0  0  0  0
  5 11  1  0  0  0  0
  5 30  1  0  0  0  0
  5 38  1  1  0  0  0
  6 21  1  6  0  0  0
  6 42  1  0  0  0  0
  7 15  1  0  0  0  0
  7 44  1  0  0  0  0
  7 32  1  6  0  0  0
  8  9  1  6  0  0  0
  8 17  1  0  0  0  0
 11 12  1  6  0  0  0
 11 20  1  0  0  0  0
 13  6  1  0  0  0  0
 13 14  1  1  0  0  0
 15 16  1  1  0  0  0
 15 24  1  0  0  0  0
 17 26  1  0  0  0  0
 18 10  1  0  0  0  0
 18 19  1  6  0  0  0
 20 21  1  6  0  0  0
 20 29  1  0  0  0  0
 22 13  1  0  0  0  0
 22 23  1  6  0  0  0
 24 25  1  1  0  0  0
 24 33  1  0  0  0  0
 26 27  1  1  0  0  0
 26 35  1  0  0  0  0
 28  2  1  6  0  0  0
 28 18  1  0  0  0  0
 29 30  1  0  0  0  0
 29 39  1  1  0  0  0
 31 22  1  0  0  0  0
 31 32  1  6  0  0  0
 31 41  1  0  0  0  0
 33 34  1  6  0  0  0
 33 43  1  0  0  0  0
 35 36  1  0  0  0  0
 35 45  1  1  0  0  0
 37 28  1  0  0  0  0
 37 38  1  1  0  0  0
 39 40  1  0  0  0  0
 41 42  1  0  0  0  0
 41 49  1  1  0  0  0
 43 44  1  0  0  0  0
 43 51  1  1  0  0  0
 45 46  1  0  0  0  0
 47 37  1  0  0  0  0
 47 48  1  1  0  0  0
 49 50  1  0  0  0  0
 51 52  1  0  0  0  0
M  END
>  <CHROM.1>
-158.75319500,71.59578962,-74.93099871,88.87827282,179.44494605,45.98939426
-65.66330561,127.39053787,-67.90473798,123.55818295,174.83618166,-172.11551524
-0.61637873,-50.36209141,9.50235170,-2.23288445,0.20895604,1.49540920

>  <Name>
2fd0_lig

>  <RI>
0

>  <Rbt.Current_Directory>
/home/itssahil/PROJECTS/Mol_Feturizer/New_Systems/rnas/2fd0

>  <Rbt.Executable>
rbdock ($Id: //depot/dev/client3/rdock/2013.1/src/exe/rbdock.cxx#4 $)

>  <Rbt.Library>
libRbt.so (2013.1, Build901 2013/11/27)

>  <Rbt.Parameter_File>
/export/apps/rDock/src/rDock_2013.1_src/data/scripts/dock_solv.prm

>  <Rbt.Receptor>
prm/pocket_docking_5.prm

>  <SCORE>
-8.81344

>  <SCORE.INTER>
-9.24389

>  <SCORE.INTER.CONST>
1

>  <SCORE.INTER.POLAR>
-0.894427

>  <SCORE.INTER.ROT>
12

>  <SCORE.INTER.SOLV>
10.5078

>  <SCORE.INTER.VDW>
-18.2838

>  <SCORE.INTER.norm>
-0.177767

>  <SCORE.INTRA>
0.430445

>  <SCORE.INTRA.DIHEDRAL>
0.0756953

>  <SCORE.INTRA.DIHEDRAL.0>
23.9727

>  <SCORE.INTRA.POLAR>
0

>  <SCORE.INTRA.POLAR.0>
0

>  <SCORE.INTRA.REPUL>
0.000194117

>  <SCORE.INTRA.REPUL.0>
0

>  <SCORE.INTRA.SOLV>
-0.0304102

>  <SCORE.INTRA.SOLV.lig_0>
-115.028

>  <SCORE.INTRA.VDW>
0.406832

>  <SCORE.INTRA.VDW.0>
-6.82393

>  <SCORE.INTRA.norm>
0.00827779

>  <SCORE.RESTR>
0

>  <SCORE.RESTR.CAVITY>
0

>  <SCORE.RESTR.norm>
0

>  <SCORE.SYSTEM>
0

>  <SCORE.SYSTEM.CONST>
0

>  <SCORE.SYSTEM.DIHEDRAL>
0

>  <SCORE.SYSTEM.SOLV>
0

>  <SCORE.SYSTEM.norm>
0

>  <SCORE.heavy>
52

>  <SCORE.norm>
-0.169489

>  <RMSD>
12.267

$$$$
2fd0_lig
 OpenBabel11021811433D
libRbt.so/2013.1/901 2013/11/27
 52 56  0  0  0  0  0  0  0  0999 V2000
   -3.1372  -51.3268    3.1444 C   0  0  2  0  0  0  0  0  0  0  0  0
   -4.2168  -50.3828    3.1614 O   0  0  0  0  0  0  0  0  0  0  0  0
   -4.7958  -46.4574    4.9358 C   0  0  2  0  0  0  0  0  0  0  0  0
   -5.0010  -45.3889    5.9274 N   0  0  0  0  0  0  0  0  0  0  0  0
   -1.4006  -49.1107    5.7069 C   0  0  1  0  0  0  0  0  0  0  0  0
   -0.3257  -51.1870    9.5269 C   0  0  1  0  0  0  0  0  0  0  0  0
    3.0077  -48.9010   12.6269 C   0  0  1  0  0  0  0  0  0  0  0  0
   -3.1612  -52.0891    1.7697 C   0  0  2  0  0  0  0  0  0  0  0  0
   -3.0785  -51.1736    0.6402 N   0  0  0  0  0  0  0  0  0  0  0  0
   -5.9683  -47.5296    5.0288 C   0  0  0  0  0  0  0  0  0  0  0  0
   -2.1925  -50.1369    6.4966 C   0  0  2  0  0  0  0  0  0  0  0  0
   -3.2702  -49.5304    7.2640 O   0  0  0  0  0  0  0  0  0  0  0  0
   -0.8413  -50.8991   11.0137 C   0  0  2  0  0  0  0  0  0  0  0  0
   -0.9610  -49.4345   11.2499 N   0  0  0  0  0  0  0  0  0  0  0  0
    3.4273  -49.8359   13.7835 C   0  0  1  0  0  0  0  0  0  0  0  0
    3.9239  -51.0792   13.2291 O   0  0  0  0  0  0  0  0  0  0  0  0
   -4.4375  -53.0046    1.6733 C   0  0  0  0  0  0  0  0  0  0  0  0
   -5.7486  -48.6861    3.9408 C   0  0  2  0  0  0  0  0  0  0  0  0
   -6.8184  -49.6925    4.0074 N   0  0  0  0  0  0  0  0  0  0  0  0
   -1.1185  -50.8489    7.3015 C   0  0  2  0  0  0  0  0  0  0  0  0
   -1.1774  -50.4994    8.6577 O   0  0  0  0  0  0  0  0  0  0  0  0
    0.1400  -51.6893   12.0254 C   0  0  1  0  0  0  0  0  0  0  0  0
    0.1248  -53.0816   11.6618 O   0  0  0  0  0  0  0  0  0  0  0  0
    4.4827  -49.3007   14.7888 C   0  0  1  0  0  0  0  0  0  0  0  0
    5.7760  -49.7229   14.3378 O   0  0  0  0  0  0  0  0  0  0  0  0
   -4.4552  -53.9636    2.9081 C   0  0  2  0  0  0  0  0  0  0  0  0
   -5.5886  -54.8239    2.8485 O   0  0  0  0  0  0  0  0  0  0  0  0
   -4.3676  -49.3570    4.1822 C   0  0  2  0  0  0  0  0  0  0  0  0
    0.2682  -50.3639    6.8155 C   0  0  2  0  0  0  0  0  0  0  0  0
   -0.0620  -49.5746    5.6817 O   0  0  0  0  0  0  0  0  0  0  0  0
    1.6732  -51.1950   11.8863 C   0  0  2  0  0  0  0  0  0  0  0  0
    1.6422  -49.8087   12.2747 O   0  0  0  0  0  0  0  0  0  0  0  0
    4.5050  -47.7692   15.0003 C   0  0  2  0  0  0  0  0  0  0  0  0
    4.6947  -47.5724   16.4187 O   0  0  0  0  0  0  0  0  0  0  0  0
   -4.4965  -53.1224    4.2159 C   0  0  2  0  0  0  0  0  0  0  0  0
   -3.2967  -52.2571    4.2465 O   0  0  0  0  0  0  0  0  0  0  0  0
   -3.1885  -48.3371    4.1584 C   0  0  2  0  0  0  0  0  0  0  0  0
   -1.9721  -49.0709    4.4377 O   0  0  0  0  0  0  0  0  0  0  0  0
    1.2202  -51.4682    6.3699 C   0  0  0  0  0  0  0  0  0  0  0  0
    2.5040  -50.8594    6.1642 O   0  0  0  0  0  0  0  0  0  0  0  0
    1.9961  -51.2749   10.4062 C   0  0  1  0  0  0  0  0  0  0  0  0
    1.1471  -50.7732    9.3528 O   0  0  0  0  0  0  0  0  0  0  0  0
    3.2328  -47.1226   14.4590 C   0  0  2  0  0  0  0  0  0  0  0  0
    2.8989  -47.4868   13.0911 O   0  0  0  0  0  0  0  0  0  0  0  0
   -4.4790  -53.9832    5.4390 C   0  0  0  0  0  0  0  0  0  0  0  0
   -5.6883  -54.6910    5.4888 O   0  0  0  0  0  0  0  0  0  0  0  0
   -3.4318  -47.2049    5.2222 C   0  0  1  0  0  0  0  0  0  0  0  0
   -2.3296  -46.2370    5.1349 O   0  0  0  0  0  0  0  0  0  0  0  0
    3.4473  -50.7849   10.0619 C   0  0  0  0  0  0  0  0  0  0  0  0
    4.4788  -51.8424   10.1928 N   0  0  0  0  0  0  0  0  0  0  0  0
    2.9989  -45.6152   14.5295 C   0  0  0  0  0  0  0  0  0  0  0  0
    1.6142  -45.2992   14.1869 O   0  0  0  0  0  0  0  0  0  0  0  0
  1  2  1  6  0  0  0
  1  8  1  0  0  0  0
  1 36  1  0  0  0  0
  3  4  1  1  0  0  0
  3 10  1  0  0  0  0
  3 47  1  0  0  0  0
  5 11  1  0  0  0  0
  5 30  1  0  0  0  0
  5 38  1  6  0  0  0
  6 21  1  6  0  0  0
  6 42  1  0  0  0  0
  7 15  1  0  0  0  0
  7 44  1  0  0  0  0
  7 32  1  1  0  0  0
  8  9  1  6  0  0  0
  8 17  1  0  0  0  0
 11 12  1  1  0  0  0
 11 20  1  0  0  0  0
 13  6  1  0  0  0  0
 13 14  1  1  0  0  0
 15 16  1  6  0  0  0
 15 24  1  0  0  0  0
 17 26  1  0  0  0  0
 18 10  1  0  0  0  0
 18 19  1  1  0  0  0
 20 21  1  1  0  0  0
 20 29  1  0  0  0  0
 22 13  1  0  0  0  0
 22 23  1  6  0  0  0
 24 25  1  6  0  0  0
 24 33  1  0  0  0  0
 26 27  1  6  0  0  0
 26 35  1  0  0  0  0
 28  2  1  6  0  0  0
 28 18  1  0  0  0  0
 29 30  1  0  0  0  0
 29 39  1  6  0  0  0
 31 22  1  0  0  0  0
 31 32  1  6  0  0  0
 31 41  1  0  0  0  0
 33 34  1  1  0  0  0
 33 43  1  0  0  0  0
 35 36  1  0  0  0  0
 35 45  1  1  0  0  0
 37 28  1  0  0  0  0
 37 38  1  1  0  0  0
 39 40  1  0  0  0  0
 41 42  1  0  0  0  0
 41 49  1  1  0  0  0
 43 44  1  0  0  0  0
 43 51  1  6  0  0  0
 45 46  1  0  0  0  0
 47 37  1  0  0  0  0
 47 48  1  6  0  0  0
 49 50  1  0  0  0  0
 51 52  1  0  0  0  0
M  END
>  <CHROM.1>
-169.66466711,79.71126635,-165.41488172,-59.90100662,173.90936062,-172.55403356
-170.93540959,166.27920212,-67.54089906,-98.32539681,86.00423482,-168.94066547
-0.77195105,-50.06100042,8.09148088,-2.71217915,-0.84488028,0.34699706

>  <Name>
2fd0_lig

>  <RI>
0

>  <Rbt.Current_Directory>
/home/itssahil/PROJECTS/Mol_Feturizer/New_Systems/rnas/2fd0

>  <Rbt.Executable>
rbdock ($Id: //depot/dev/client3/rdock/2013.1/src/exe/rbdock.cxx#4 $)

>  <Rbt.Library>
libRbt.so (2013.1, Build901 2013/11/27)

>  <Rbt.Parameter_File>
/export/apps/rDock/src/rDock_2013.1_src/data/scripts/dock_solv.prm

>  <Rbt.Receptor>
prm/pocket_docking_6.prm

>  <SCORE>
-9.75644

>  <SCORE.INTER>
-6.28723

>  <SCORE.INTER.CONST>
1

>  <SCORE.INTER.POLAR>
-1.8721

>  <SCORE.INTER.ROT>
12

>  <SCORE.INTER.SOLV>
14.35

>  <SCORE.INTER.VDW>
-14.3345

>  <SCORE.INTER.norm>
-0.120908

>  <SCORE.INTRA>
-3.46921

>  <SCORE.INTRA.DIHEDRAL>
-10.4462

>  <SCORE.INTRA.DIHEDRAL.0>
23.9727

>  <SCORE.INTRA.POLAR>
0

>  <SCORE.INTRA.POLAR.0>
0

>  <SCORE.INTRA.REPUL>
0

>  <SCORE.INTRA.REPUL.0>
0

>  <SCORE.INTRA.SOLV>
-2.96937

>  <SCORE.INTRA.SOLV.lig_0>
-115.028

>  <SCORE.INTRA.VDW>
3.23856

>  <SCORE.INTRA.VDW.0>
-6.82393

>  <SCORE.INTRA.norm>
-0.0667155

>  <SCORE.RESTR>
0

>  <SCORE.RESTR.CAVITY>
0

>  <SCORE.RESTR.norm>
0

>  <SCORE.SYSTEM>
0

>  <SCORE.SYSTEM.CONST>
0

>  <SCORE.SYSTEM.DIHEDRAL>
0

>  <SCORE.SYSTEM.SOLV>
0

>  <SCORE.SYSTEM.norm>
0

>  <SCORE.heavy>
52

>  <SCORE.norm>
-0.187624

>  <RMSD>
12.282

$$$$
2fd0_lig
 OpenBabel11021811433D
libRbt.so/2013.1/901 2013/11/27
 52 56  0  0  0  0  0  0  0  0999 V2000
   -0.6383  -49.4696   13.3849 C   0  0  2  0  0  0  0  0  0  0  0  0
    0.7388  -49.8152   13.1820 O   0  0  0  0  0  0  0  0  0  0  0  0
    2.8598  -52.6879   10.7037 C   0  0  2  0  0  0  0  0  0  0  0  0
    3.3442  -53.4301    9.5284 N   0  0  0  0  0  0  0  0  0  0  0  0
    4.4024  -48.4895   11.6391 C   0  0  1  0  0  0  0  0  0  0  0  0
    6.4104  -44.6835   11.8084 C   0  0  1  0  0  0  0  0  0  0  0  0
   10.1943  -41.9035   11.9485 C   0  0  1  0  0  0  0  0  0  0  0  0
   -1.0520  -48.4076   12.3020 C   0  0  2  0  0  0  0  0  0  0  0  0
   -0.8250  -48.8958   10.9489 N   0  0  0  0  0  0  0  0  0  0  0  0
    1.2720  -52.7600   10.7864 C   0  0  0  0  0  0  0  0  0  0  0  0
    4.3384  -46.9912   11.8730 C   0  0  2  0  0  0  0  0  0  0  0  0
    4.2405  -46.2425   10.6289 O   0  0  0  0  0  0  0  0  0  0  0  0
    7.6689  -44.1724   10.9632 C   0  0  2  0  0  0  0  0  0  0  0  0
    8.9397  -44.6056   11.6057 N   0  0  0  0  0  0  0  0  0  0  0  0
   11.0261  -41.9879   13.2480 C   0  0  1  0  0  0  0  0  0  0  0  0
   10.9914  -43.3493   13.7432 O   0  0  0  0  0  0  0  0  0  0  0  0
   -0.3018  -47.0474   12.5541 C   0  0  0  0  0  0  0  0  0  0  0  0
    0.7476  -51.9606   12.0730 C   0  0  2  0  0  0  0  0  0  0  0  0
   -0.7186  -52.0096   12.1714 N   0  0  0  0  0  0  0  0  0  0  0  0
    5.5740  -46.7259   12.7164 C   0  0  2  0  0  0  0  0  0  0  0  0
    6.5650  -46.0621   11.9800 O   0  0  0  0  0  0  0  0  0  0  0  0
    7.4988  -42.5781   10.7622 C   0  0  1  0  0  0  0  0  0  0  0  0
    6.2316  -42.3441   10.1216 O   0  0  0  0  0  0  0  0  0  0  0  0
   12.5106  -41.5382   13.1776 C   0  0  1  0  0  0  0  0  0  0  0  0
   13.3107  -42.6969   12.9102 O   0  0  0  0  0  0  0  0  0  0  0  0
   -0.5975  -46.5809   14.0169 C   0  0  2  0  0  0  0  0  0  0  0  0
    0.0506  -45.3403   14.2796 O   0  0  0  0  0  0  0  0  0  0  0  0
    1.2286  -50.4852   11.9869 C   0  0  2  0  0  0  0  0  0  0  0  0
    6.2026  -48.0825   13.1150 C   0  0  2  0  0  0  0  0  0  0  0  0
    5.2346  -49.0161   12.6579 O   0  0  0  0  0  0  0  0  0  0  0  0
    7.4505  -41.7946   12.1758 C   0  0  2  0  0  0  0  0  0  0  0  0
    8.7387  -42.0420   12.7698 O   0  0  0  0  0  0  0  0  0  0  0  0
   12.8428  -40.4513   12.1293 C   0  0  2  0  0  0  0  0  0  0  0  0
   13.7671  -39.5508   12.7782 O   0  0  0  0  0  0  0  0  0  0  0  0
   -0.0966  -47.6626   15.0162 C   0  0  2  0  0  0  0  0  0  0  0  0
   -0.8046  -48.9278   14.7205 O   0  0  0  0  0  0  0  0  0  0  0  0
    2.7765  -50.3621   11.8461 C   0  0  2  0  0  0  0  0  0  0  0  0
    3.0929  -48.9540   11.7310 O   0  0  0  0  0  0  0  0  0  0  0  0
    6.3983  -48.2897   14.6127 C   0  0  0  0  0  0  0  0  0  0  0  0
    7.3180  -47.2821   15.0602 O   0  0  0  0  0  0  0  0  0  0  0  0
    6.3937  -42.5043   13.0010 C   0  0  1  0  0  0  0  0  0  0  0  0
    6.2930  -43.9361   13.1493 O   0  0  0  0  0  0  0  0  0  0  0  0
   11.5738  -39.7671   11.6281 C   0  0  2  0  0  0  0  0  0  0  0  0
   10.5319  -40.6740   11.1729 O   0  0  0  0  0  0  0  0  0  0  0  0
   -0.3829  -47.2917   16.4366 C   0  0  0  0  0  0  0  0  0  0  0  0
    0.3495  -46.1351   16.7392 O   0  0  0  0  0  0  0  0  0  0  0  0
    3.2701  -51.1649   10.5873 C   0  0  1  0  0  0  0  0  0  0  0  0
    4.7348  -51.0693   10.5168 O   0  0  0  0  0  0  0  0  0  0  0  0
    6.2314  -41.9078   14.4440 C   0  0  0  0  0  0  0  0  0  0  0  0
    5.7754  -40.4967   14.4565 N   0  0  0  0  0  0  0  0  0  0  0  0
   11.6133  -38.6595   10.5776 C   0  0  0  0  0  0  0  0  0  0  0  0
   12.4185  -37.5368   11.0528 O   0  0  0  0  0  0  0  0  0  0  0  0
  1  2  1  6  0  0  0
  1  8  1  0  0  0  0
  1 36  1  0  0  0  0
  3  4  1  6  0  0  0
  3 10  1  0  0  0  0
  3 47  1  0  0  0  0
  5 11  1  0  0  0  0
  5 30  1  0  0  0  0
  5 38  1  1  0  0  0
  6 21  1  1  0  0  0
  6 42  1  0  0  0  0
  7 15  1  0  0  0  0
  7 44  1  0  0  0  0
  7 32  1  1  0  0  0
  8  9  1  6  0  0  0
  8 17  1  0  0  0  0
 11 12  1  6  0  0  0
 11 20  1  0  0  0  0
 13  6  1  0  0  0  0
 13 14  1  1  0  0  0
 15 16  1  6  0  0  0
 15 24  1  0  0  0  0
 17 26  1  0  0  0  0
 18 10  1  0  0  0  0
 18 19  1  6  0  0  0
 20 21  1  6  0  0  0
 20 29  1  0  0  0  0
 22 13  1  0  0  0  0
 22 23  1  1  0  0  0
 24 25  1  6  0  0  0
 24 33  1  0  0  0  0
 26 27  1  1  0  0  0
 26 35  1  0  0  0  0
 28  2  1  1  0  0  0
 28 18  1  0  0  0  0
 29 30  1  0  0  0  0
 29 39  1  1  0  0  0
 31 22  1  0  0  0  0
 31 32  1  1  0  0  0
 31 41  1  0  0  0  0
 33 34  1  1  0  0  0
 33 43  1  0  0  0  0
 35 36  1  0  0  0  0
 35 45  1  1  0  0  0
 37 28  1  0  0  0  0
 37 38  1  6  0  0  0
 39 40  1  0  0  0  0
 41 42  1  0  0  0  0
 41 49  1  1  0  0  0
 43 44  1  0  0  0  0
 43 51  1  6  0  0  0
 45 46  1  0  0  0  0
 47 37  1  0  0  0  0
 47 48  1  1  0  0  0
 49 50  1  0  0  0  0
 51 52  1  0  0  0  0
M  END
>  <CHROM.1>
-64.47306329,-166.62327473,179.18427732,168.07161428,79.45997552,-72.94991255
-62.54441549,46.25113315,-64.22580865,177.59456626,62.82522356,-59.41358147
5.38866496,-45.85314135,12.50761231,2.48301339,-0.34209531,-2.77374054

>  <Name>
2fd0_lig

>  <RI>
0

>  <Rbt.Current_Directory>
/home/itssahil/PROJECTS/Mol_Feturizer/New_Systems/rnas/2fd0

>  <Rbt.Executable>
rbdock ($Id: //depot/dev/client3/rdock/2013.1/src/exe/rbdock.cxx#4 $)

>  <Rbt.Library>
libRbt.so (2013.1, Build901 2013/11/27)

>  <Rbt.Parameter_File>
/export/apps/rDock/src/rDock_2013.1_src/data/scripts/dock_solv.prm

>  <Rbt.Receptor>
prm/pocket_docking_8.prm

>  <SCORE>
-12.1706

>  <SCORE.INTER>
-6.72188

>  <SCORE.INTER.CONST>
1

>  <SCORE.INTER.POLAR>
-0.91689

>  <SCORE.INTER.ROT>
12

>  <SCORE.INTER.SOLV>
15.2578

>  <SCORE.INTER.VDW>
-18.1109

>  <SCORE.INTER.norm>
-0.129267

>  <SCORE.INTRA>
-5.44868

>  <SCORE.INTRA.DIHEDRAL>
-17.1672

>  <SCORE.INTRA.DIHEDRAL.0>
23.9727

>  <SCORE.INTRA.POLAR>
0

>  <SCORE.INTRA.POLAR.0>
0

>  <SCORE.INTRA.REPUL>
0

>  <SCORE.INTRA.REPUL.0>
0

>  <SCORE.INTRA.SOLV>
1.23857

>  <SCORE.INTRA.SOLV.lig_0>
-115.028

>  <SCORE.INTRA.VDW>
2.51564

>  <SCORE.INTRA.VDW.0>
-6.82393

>  <SCORE.INTRA.norm>
-0.104782

>  <SCORE.RESTR>
0

>  <SCORE.RESTR.CAVITY>
0

>  <SCORE.RESTR.norm>
0

>  <SCORE.SYSTEM>
0

>  <SCORE.SYSTEM.CONST>
0

>  <SCORE.SYSTEM.DIHEDRAL>
0

>  <SCORE.SYSTEM.SOLV>
0

>  <SCORE.SYSTEM.norm>
0

>  <SCORE.heavy>
52

>  <SCORE.norm>
-0.234049

>  <RMSD>
12.309

$$$$
2fd0_lig
 OpenBabel11021811433D
libRbt.so/2013.1/901 2013/11/27
 52 56  0  0  0  0  0  0  0  0999 V2000
   -0.8871  -51.0616    5.2439 C   0  0  2  0  0  0  0  0  0  0  0  0
   -1.3511  -51.7047    6.4389 O   0  0  0  0  0  0  0  0  0  0  0  0
   -0.5824  -55.0233    9.1386 C   0  0  2  0  0  0  0  0  0  0  0  0
    0.0649  -56.1749    9.7880 N   0  0  0  0  0  0  0  0  0  0  0  0
    0.6372  -50.5407    9.7546 C   0  0  1  0  0  0  0  0  0  0  0  0
    3.5748  -48.0567   11.4135 C   0  0  1  0  0  0  0  0  0  0  0  0
    5.9908  -47.2774   15.5697 C   0  0  1  0  0  0  0  0  0  0  0  0
   -1.6174  -49.6763    5.1057 C   0  0  2  0  0  0  0  0  0  0  0  0
   -1.4064  -48.8329    6.2740 N   0  0  0  0  0  0  0  0  0  0  0  0
   -0.8175  -55.3211    7.5930 C   0  0  0  0  0  0  0  0  0  0  0  0
    1.9400  -49.7773    9.6019 C   0  0  2  0  0  0  0  0  0  0  0  0
    3.0533  -50.4503   10.2544 O   0  0  0  0  0  0  0  0  0  0  0  0
    4.0729  -48.8051   12.7369 C   0  0  2  0  0  0  0  0  0  0  0  0
    3.3574  -48.2823   13.9327 N   0  0  0  0  0  0  0  0  0  0  0  0
    7.5069  -47.0202   15.4177 C   0  0  1  0  0  0  0  0  0  0  0  0
    7.7592  -45.5985   15.5405 O   0  0  0  0  0  0  0  0  0  0  0  0
   -3.1505  -49.8912    4.8232 C   0  0  0  0  0  0  0  0  0  0  0  0
   -1.5325  -54.0703    6.8905 C   0  0  2  0  0  0  0  0  0  0  0  0
   -1.7591  -54.3190    5.4592 N   0  0  0  0  0  0  0  0  0  0  0  0
    1.5898  -48.3976   10.1334 C   0  0  2  0  0  0  0  0  0  0  0  0
    2.1814  -48.1636   11.3824 O   0  0  0  0  0  0  0  0  0  0  0  0
    5.6836  -48.6841   12.7814 C   0  0  1  0  0  0  0  0  0  0  0  0
    6.2048  -49.2445   11.5627 O   0  0  0  0  0  0  0  0  0  0  0  0
    8.4599  -47.7649   16.3914 C   0  0  1  0  0  0  0  0  0  0  0  0
    8.7013  -46.9079   17.5145 O   0  0  0  0  0  0  0  0  0  0  0  0
   -3.3002  -50.7939    3.5554 C   0  0  2  0  0  0  0  0  0  0  0  0
   -4.6771  -50.9978    3.2544 O   0  0  0  0  0  0  0  0  0  0  0  0
   -0.6487  -52.8059    7.0801 C   0  0  2  0  0  0  0  0  0  0  0  0
    0.0645  -48.3370   10.3873 C   0  0  2  0  0  0  0  0  0  0  0  0
   -0.3879  -49.5659    9.8372 O   0  0  0  0  0  0  0  0  0  0  0  0
    6.1708  -47.1429   12.8235 C   0  0  2  0  0  0  0  0  0  0  0  0
    5.6431  -46.6311   14.0617 O   0  0  0  0  0  0  0  0  0  0  0  0
    7.9676  -49.1363   16.9086 C   0  0  2  0  0  0  0  0  0  0  0  0
    9.1256  -49.9995   16.8931 O   0  0  0  0  0  0  0  0  0  0  0  0
   -2.6050  -52.1621    3.8094 C   0  0  2  0  0  0  0  0  0  0  0  0
   -1.1769  -51.9073    4.1011 O   0  0  0  0  0  0  0  0  0  0  0  0
   -0.3408  -52.5036    8.5784 C   0  0  2  0  0  0  0  0  0  0  0  0
    0.5191  -51.3396    8.6202 O   0  0  0  0  0  0  0  0  0  0  0  0
   -0.6640  -47.1989    9.6813 C   0  0  0  0  0  0  0  0  0  0  0  0
   -0.1608  -47.1466    8.3378 O   0  0  0  0  0  0  0  0  0  0  0  0
    5.4573  -46.4567   11.6740 C   0  0  1  0  0  0  0  0  0  0  0  0
    4.0505  -46.5927   11.3831 O   0  0  0  0  0  0  0  0  0  0  0  0
    6.8073  -49.6562   16.0642 C   0  0  2  0  0  0  0  0  0  0  0  0
    5.7171  -48.7114   15.8794 O   0  0  0  0  0  0  0  0  0  0  0  0
   -2.6816  -53.0618    2.6170 C   0  0  0  0  0  0  0  0  0  0  0  0
   -4.0169  -53.4587    2.4581 O   0  0  0  0  0  0  0  0  0  0  0  0
    0.3463  -53.7481    9.2505 C   0  0  1  0  0  0  0  0  0  0  0  0
    0.5735  -53.4461   10.6706 O   0  0  0  0  0  0  0  0  0  0  0  0
    5.7720  -44.9217   11.5780 C   0  0  0  0  0  0  0  0  0  0  0  0
    5.0157  -44.2253   10.5093 N   0  0  0  0  0  0  0  0  0  0  0  0
    6.1228  -50.9881   16.3633 C   0  0  0  0  0  0  0  0  0  0  0  0
    7.1132  -52.0575   16.4627 O   0  0  0  0  0  0  0  0  0  0  0  0
  1  2  1  1  0  0  0
  1  8  1  0  0  0  0
  1 36  1  0  0  0  0
  3  4  1  6  0  0  0
  3 10  1  0  0  0  0
  3 47  1  0  0  0  0
  5 11  1  0  0  0  0
  5 30  1  0  0  0  0
  5 38  1  6  0  0  0
  6 21  1  1  0  0  0
  6 42  1  0  0  0  0
  7 15  1  0  0  0  0
  7 44  1  0  0  0  0
  7 32  1  6  0  0  0
  8  9  1  1  0  0  0
  8 17  1  0  0  0  0
 11 12  1  1  0  0  0
 11 20  1  0  0  0  0
 13  6  1  0  0  0  0
 13 14  1  1  0  0  0
 15 16  1  1  0  0  0
 15 24  1  0  0  0  0
 17 26  1  0  0  0  0
 18 10  1  0  0  0  0
 18 19  1  6  0  0  0
 20 21  1  1  0  0  0
 20 29  1  0  0  0  0
 22 13  1  0  0  0  0
 22 23  1  6  0  0  0
 24 25  1  1  0  0  0
 24 33  1  0  0  0  0
 26 27  1  1  0  0  0
 26 35  1  0  0  0  0
 28  2  1  1  0  0  0
 28 18  1  0  0  0  0
 29 30  1  0  0  0  0
 29 39  1  6  0  0  0
 31 22  1  0  0  0  0
 31 32  1  1  0  0  0
 31 41  1  0  0  0  0
 33 34  1  6  0  0  0
 33 43  1  0  0  0  0
 35 36  1  0  0  0  0
 35 45  1  6  0  0  0
 37 28  1  0  0  0  0
 37 38  1  6  0  0  0
 39 40  1  0  0  0  0
 41 42  1  0  0  0  0
 41 49  1  1  0  0  0
 43 44  1  0  0  0  0
 43 51  1  1  0  0  0
 45 46  1  0  0  0  0
 47 37  1  0  0  0  0
 47 48  1  1  0  0  0
 49 50  1  0  0  0  0
 51 52  1  0  0  0  0
M  END
>  <CHROM.1>
-162.47639725,159.92492690,-140.49441816,60.01282902,67.42236723,-111.17879610
44.08066950,58.25843916,-69.29595258,158.54520572,-176.47215495,-52.16165753
2.20177827,-49.91037042,10.28196408,3.02026973,0.86579995,2.89792254

>  <Name>
2fd0_lig

>  <RI>
1.29864e+07

>  <Rbt.Current_Directory>
/home/itssahil/PROJECTS/Mol_Feturizer/New_Systems/rnas/2fd0

>  <Rbt.Executable>
rbdock ($Id: //depot/dev/client3/rdock/2013.1/src/exe/rbdock.cxx#4 $)

>  <Rbt.Library>
libRbt.so (2013.1, Build901 2013/11/27)

>  <Rbt.Parameter_File>
/export/apps/rDock/src/rDock_2013.1_src/data/scripts/dock_solv.prm

>  <Rbt.Receptor>
prm/pocket_docking_3.prm

>  <SCORE>
-5.68015

>  <SCORE.INTER>
-7.46951

>  <SCORE.INTER.CONST>
1

>  <SCORE.INTER.POLAR>
-1.56974

>  <SCORE.INTER.ROT>
12

>  <SCORE.INTER.SOLV>
17.3498

>  <SCORE.INTER.VDW>
-17.1305

>  <SCORE.INTER.norm>
-0.143644

>  <SCORE.INTRA>
0.833807

>  <SCORE.INTRA.DIHEDRAL>
-3.30229

>  <SCORE.INTRA.DIHEDRAL.0>
23.9727

>  <SCORE.INTRA.POLAR>
0

>  <SCORE.INTRA.POLAR.0>
0

>  <SCORE.INTRA.REPUL>
0.00231341

>  <SCORE.INTRA.REPUL.0>
0

>  <SCORE.INTRA.SOLV>
2.73325

>  <SCORE.INTRA.SOLV.lig_0>
-115.028

>  <SCORE.INTRA.VDW>
1.10676

>  <SCORE.INTRA.VDW.0>
-6.82393

>  <SCORE.INTRA.norm>
0.0160347

>  <SCORE.RESTR>
0.955552

>  <SCORE.RESTR.CAVITY>
0.955552

>  <SCORE.RESTR.norm>
0.018376

>  <SCORE.SYSTEM>
0

>  <SCORE.SYSTEM.CONST>
0

>  <SCORE.SYSTEM.DIHEDRAL>
0

>  <SCORE.SYSTEM.SOLV>
0

>  <SCORE.SYSTEM.norm>
0

>  <SCORE.heavy>
52

>  <SCORE.norm>
-0.109234

>  <RMSD>
12.312

$$$$
2fd0_lig
 OpenBabel11021811433D
libRbt.so/2013.1/901 2013/11/27
 52 56  0  0  0  0  0  0  0  0999 V2000
   -3.0428  -50.0124    3.8788 C   0  0  2  0  0  0  0  0  0  0  0  0
   -1.6200  -50.1276    3.7396 O   0  0  0  0  0  0  0  0  0  0  0  0
   -0.7037  -54.0322    5.4150 C   0  0  2  0  0  0  0  0  0  0  0  0
    0.0423  -55.1810    5.9540 N   0  0  0  0  0  0  0  0  0  0  0  0
    0.2077  -49.7244    6.6208 C   0  0  1  0  0  0  0  0  0  0  0  0
    2.2265  -47.0886    9.2621 C   0  0  1  0  0  0  0  0  0  0  0  0
    5.7779  -45.2770   12.0815 C   0  0  1  0  0  0  0  0  0  0  0  0
   -3.6200  -49.3448    2.5778 C   0  0  2  0  0  0  0  0  0  0  0  0
   -3.2667  -50.0948    1.3806 N   0  0  0  0  0  0  0  0  0  0  0  0
   -0.1900  -53.6780    3.9509 C   0  0  0  0  0  0  0  0  0  0  0  0
    0.2735  -49.0155    7.9612 C   0  0  2  0  0  0  0  0  0  0  0  0
   -0.1454  -47.6246    7.8707 O   0  0  0  0  0  0  0  0  0  0  0  0
    3.4687  -46.0813    9.2211 C   0  0  2  0  0  0  0  0  0  0  0  0
    4.7485  -46.8245    9.3795 N   0  0  0  0  0  0  0  0  0  0  0  0
    6.5351  -46.4019   12.8224 C   0  0  1  0  0  0  0  0  0  0  0  0
    6.7416  -47.5106   11.9126 O   0  0  0  0  0  0  0  0  0  0  0  0
   -3.1489  -47.8467    2.4756 C   0  0  0  0  0  0  0  0  0  0  0  0
   -1.0113  -52.4340    3.3617 C   0  0  2  0  0  0  0  0  0  0  0  0
   -0.5537  -52.0842    2.0089 N   0  0  0  0  0  0  0  0  0  0  0  0
    1.7082  -49.2533    8.4014 C   0  0  2  0  0  0  0  0  0  0  0  0
    2.4734  -48.0824    8.3107 O   0  0  0  0  0  0  0  0  0  0  0  0
    3.1918  -44.9300   10.3205 C   0  0  1  0  0  0  0  0  0  0  0  0
    1.9296  -44.3129   10.0089 O   0  0  0  0  0  0  0  0  0  0  0  0
    7.9034  -46.0420   13.4623 C   0  0  1  0  0  0  0  0  0  0  0  0
    8.9300  -46.3476   12.5100 O   0  0  0  0  0  0  0  0  0  0  0  0
   -3.5686  -47.1037    3.7857 C   0  0  2  0  0  0  0  0  0  0  0  0
   -3.1753  -45.7362    3.7250 O   0  0  0  0  0  0  0  0  0  0  0  0
   -0.8448  -51.2168    4.3138 C   0  0  2  0  0  0  0  0  0  0  0  0
    2.3692  -50.2493    7.4189 C   0  0  2  0  0  0  0  0  0  0  0  0
    1.2743  -50.6572    6.6113 O   0  0  0  0  0  0  0  0  0  0  0  0
    3.0487  -45.5416   11.8103 C   0  0  2  0  0  0  0  0  0  0  0  0
    4.3341  -46.1302   12.0839 O   0  0  0  0  0  0  0  0  0  0  0  0
    8.0734  -44.5762   13.9242 C   0  0  2  0  0  0  0  0  0  0  0  0
    8.7638  -44.6425   15.1912 O   0  0  0  0  0  0  0  0  0  0  0  0
   -2.8997  -47.7937    5.0089 C   0  0  2  0  0  0  0  0  0  0  0  0
   -3.3463  -49.2039    5.0448 O   0  0  0  0  0  0  0  0  0  0  0  0
   -1.2814  -51.5310    5.7772 C   0  0  2  0  0  0  0  0  0  0  0  0
   -1.0386  -50.3433    6.5687 O   0  0  0  0  0  0  0  0  0  0  0  0
    2.9760  -51.4895    8.0655 C   0  0  0  0  0  0  0  0  0  0  0  0
    1.8995  -52.2116    8.6827 O   0  0  0  0  0  0  0  0  0  0  0  0
    2.0222  -46.6531   11.6994 C   0  0  1  0  0  0  0  0  0  0  0  0
    2.0191  -47.6679   10.6735 O   0  0  0  0  0  0  0  0  0  0  0  0
    6.7248  -43.8655   14.0001 C   0  0  2  0  0  0  0  0  0  0  0  0
    5.9096  -43.9760   12.8007 O   0  0  0  0  0  0  0  0  0  0  0  0
   -3.2910  -47.1501    6.3011 C   0  0  0  0  0  0  0  0  0  0  0  0
   -2.6376  -47.8291    7.3393 O   0  0  0  0  0  0  0  0  0  0  0  0
   -0.4742  -52.7624    6.3294 C   0  0  1  0  0  0  0  0  0  0  0  0
   -0.9481  -53.0606    7.6880 O   0  0  0  0  0  0  0  0  0  0  0  0
    1.7779  -47.4075   13.0542 C   0  0  0  0  0  0  0  0  0  0  0  0
    1.2762  -46.5315   14.1407 N   0  0  0  0  0  0  0  0  0  0  0  0
    6.6045  -42.4023   14.4202 C   0  0  0  0  0  0  0  0  0  0  0  0
    5.1993  -42.0102   14.4996 O   0  0  0  0  0  0  0  0  0  0  0  0
  1  2  1  6  0  0  0
  1  8  1  0  0  0  0
  1 36  1  0  0  0  0
  3  4  1  1  0  0  0
  3 10  1  0  0  0  0
  3 47  1  0  0  0  0
  5 11  1  0  0  0  0
  5 30  1  0  0  0  0
  5 38  1  1  0  0  0
  6 21  1  6  0  0  0
  6 42  1  0  0  0  0
  7 15  1  0  0  0  0
  7 44  1  0  0  0  0
  7 32  1  1  0  0  0
  8  9  1  6  0  0  0
  8 17  1  0  0  0  0
 11 12  1  6  0  0  0
 11 20  1  0  0  0  0
 13  6  1  0  0  0  0
 13 14  1  1  0  0  0
 15 16  1  6  0  0  0
 15 24  1  0  0  0  0
 17 26  1  0  0  0  0
 18 10  1  0  0  0  0
 18 19  1  6  0  0  0
 20 21  1  6  0  0  0
 20 29  1  0  0  0  0
 22 13  1  0  0  0  0
 22 23  1  6  0  0  0
 24 25  1  6  0  0  0
 24 33  1  0  0  0  0
 26 27  1  6  0  0  0
 26 35  1  0  0  0  0
 28  2  1  6  0  0  0
 28 18  1  0  0  0  0
 29 30  1  0  0  0  0
 29 39  1  1  0  0  0
 31 22  1  0  0  0  0
 31 32  1  6  0  0  0
 31 41  1  0  0  0  0
 33 34  1  1  0  0  0
 33 43  1  0  0  0  0
 35 36  1  0  0  0  0
 35 45  1  1  0  0  0
 37 28  1  0  0  0  0
 37 38  1  1  0  0  0
 39 40  1  0  0  0  0
 41 42  1  0  0  0  0
 41 49  1  1  0  0  0
 43 44  1  0  0  0  0
 43 51  1  6  0  0  0
 45 46  1  0  0  0  0
 47 37  1  0  0  0  0
 47 48  1  1  0  0  0
 49 50  1  0  0  0  0
 51 52  1  0  0  0  0
M  END
>  <CHROM.1>
-147.15972784,-153.15999299,163.87352708,164.61960267,72.68938782,79.76565057
62.93732521,59.21547759,-179.62867751,-54.65406240,60.41773859,-175.87520726
1.55412448,-48.22060575,8.42471801,2.45852045,0.67470885,-2.79200710

>  <Name>
2fd0_lig

>  <RI>
2.00683e+07

>  <Rbt.Current_Directory>
/home/itssahil/PROJECTS/Mol_Feturizer/New_Systems/rnas/2fd0

>  <Rbt.Executable>
rbdock ($Id: //depot/dev/client3/rdock/2013.1/src/exe/rbdock.cxx#4 $)

>  <Rbt.Library>
libRbt.so (2013.1, Build901 2013/11/27)

>  <Rbt.Parameter_File>
/export/apps/rDock/src/rDock_2013.1_src/data/scripts/dock_solv.prm

>  <Rbt.Receptor>
prm/pocket_docking_4.prm

>  <SCORE>
-7.623

>  <SCORE.INTER>
-4.59683

>  <SCORE.INTER.CONST>
1

>  <SCORE.INTER.POLAR>
-0.940832

>  <SCORE.INTER.ROT>
12

>  <SCORE.INTER.SOLV>
10.1359

>  <SCORE.INTER.VDW>
-14.9071

>  <SCORE.INTER.norm>
-0.0884006

>  <SCORE.INTRA>
-3.87503

>  <SCORE.INTRA.DIHEDRAL>
-10.1171

>  <SCORE.INTRA.DIHEDRAL.0>
23.9727

>  <SCORE.INTRA.POLAR>
0

>  <SCORE.INTRA.POLAR.0>
0

>  <SCORE.INTRA.REPUL>
0

>  <SCORE.INTRA.REPUL.0>
0

>  <SCORE.INTRA.SOLV>
0.282592

>  <SCORE.INTRA.SOLV.lig_0>
-115.028

>  <SCORE.INTRA.VDW>
1.04222

>  <SCORE.INTRA.VDW.0>
-6.82393

>  <SCORE.INTRA.norm>
-0.0745198

>  <SCORE.RESTR>
0.848863

>  <SCORE.RESTR.CAVITY>
0.848863

>  <SCORE.RESTR.norm>
0.0163243

>  <SCORE.SYSTEM>
0

>  <SCORE.SYSTEM.CONST>
0

>  <SCORE.SYSTEM.DIHEDRAL>
0

>  <SCORE.SYSTEM.SOLV>
0

>  <SCORE.SYSTEM.norm>
0

>  <SCORE.heavy>
52

>  <SCORE.norm>
-0.146596

>  <RMSD>
12.334

$$$$
2fd0_lig
 OpenBabel11021811433D
libRbt.so/2013.1/901 2013/11/27
 52 56  0  0  0  0  0  0  0  0999 V2000
   -6.0448  -50.4796    6.9225 C   0  0  2  0  0  0  0  0  0  0  0  0
   -5.9286  -51.8531    6.5262 O   0  0  0  0  0  0  0  0  0  0  0  0
   -4.5196  -53.9450    2.9863 C   0  0  2  0  0  0  0  0  0  0  0  0
   -4.4235  -54.4471    1.6058 N   0  0  0  0  0  0  0  0  0  0  0  0
   -3.3420  -49.6360    4.6999 C   0  0  1  0  0  0  0  0  0  0  0  0
    0.4645  -48.8863    7.0456 C   0  0  1  0  0  0  0  0  0  0  0  0
    1.9397  -48.1841   11.6823 C   0  0  1  0  0  0  0  0  0  0  0  0
   -6.0525  -50.4114    8.4931 C   0  0  2  0  0  0  0  0  0  0  0  0
   -4.8651  -51.0273    9.0687 N   0  0  0  0  0  0  0  0  0  0  0  0
   -5.9124  -54.3658    3.6312 C   0  0  0  0  0  0  0  0  0  0  0  0
   -3.0084  -49.7907    6.1724 C   0  0  2  0  0  0  0  0  0  0  0  0
   -3.5498  -48.7058    6.9774 O   0  0  0  0  0  0  0  0  0  0  0  0
    0.4826  -49.6145    8.4700 C   0  0  2  0  0  0  0  0  0  0  0  0
   -0.4067  -48.9051    9.4299 N   0  0  0  0  0  0  0  0  0  0  0  0
    3.4621  -48.0320   11.8991 C   0  0  1  0  0  0  0  0  0  0  0  0
    3.7866  -46.6231   11.9966 O   0  0  0  0  0  0  0  0  0  0  0  0
   -7.3682  -51.0599    9.0631 C   0  0  0  0  0  0  0  0  0  0  0  0
   -6.0102  -53.8276    5.1378 C   0  0  2  0  0  0  0  0  0  0  0  0
   -7.2906  -54.2011    5.7566 N   0  0  0  0  0  0  0  0  0  0  0  0
   -1.4950  -49.9259    6.1656 C   0  0  2  0  0  0  0  0  0  0  0  0
   -0.8745  -48.7711    6.6615 O   0  0  0  0  0  0  0  0  0  0  0  0
    2.0279  -49.7497    8.9224 C   0  0  1  0  0  0  0  0  0  0  0  0
    2.7312  -50.4665    7.8916 O   0  0  0  0  0  0  0  0  0  0  0  0
    4.0863  -48.7564   13.1225 C   0  0  1  0  0  0  0  0  0  0  0  0
    4.1111  -47.8319   14.2175 O   0  0  0  0  0  0  0  0  0  0  0  0
   -8.5968  -50.3458    8.4109 C   0  0  2  0  0  0  0  0  0  0  0  0
   -9.8108  -50.8931    8.9157 O   0  0  0  0  0  0  0  0  0  0  0  0
   -5.8471  -52.2819    5.1382 C   0  0  2  0  0  0  0  0  0  0  0  0
   -1.0152  -50.0487    4.6996 C   0  0  2  0  0  0  0  0  0  0  0  0
   -2.2372  -50.1606    3.9843 O   0  0  0  0  0  0  0  0  0  0  0  0
    2.7464  -48.3069    9.0506 C   0  0  2  0  0  0  0  0  0  0  0  0
    2.0238  -47.6356   10.0997 O   0  0  0  0  0  0  0  0  0  0  0  0
    3.3768  -50.0515   13.5806 C   0  0  2  0  0  0  0  0  0  0  0  0
    4.4323  -50.9821   13.9063 O   0  0  0  0  0  0  0  0  0  0  0  0
   -8.5378  -50.5220    6.8665 C   0  0  2  0  0  0  0  0  0  0  0  0
   -7.2727  -49.9271    6.3818 O   0  0  0  0  0  0  0  0  0  0  0  0
   -4.5214  -51.8146    4.4636 C   0  0  2  0  0  0  0  0  0  0  0  0
   -4.5078  -50.3671    4.4862 O   0  0  0  0  0  0  0  0  0  0  0  0
   -0.1684  -51.2799    4.3971 C   0  0  0  0  0  0  0  0  0  0  0  0
    1.0026  -51.1986    5.2236 O   0  0  0  0  0  0  0  0  0  0  0  0
    2.4692  -47.5940    7.7405 C   0  0  1  0  0  0  0  0  0  0  0  0
    1.1769  -47.5226    7.1026 O   0  0  0  0  0  0  0  0  0  0  0  0
    2.4220  -50.5632   12.5054 C   0  0  2  0  0  0  0  0  0  0  0  0
    1.4875  -49.5708   11.9982 O   0  0  0  0  0  0  0  0  0  0  0  0
   -9.6702  -49.8288    6.1778 C   0  0  0  0  0  0  0  0  0  0  0  0
   -9.6294  -50.1752    4.8198 O   0  0  0  0  0  0  0  0  0  0  0  0
   -4.4400  -52.3655    2.9930 C   0  0  1  0  0  0  0  0  0  0  0  0
   -3.1575  -51.9497    2.4084 O   0  0  0  0  0  0  0  0  0  0  0  0
    3.0565  -46.1389    7.6912 C   0  0  0  0  0  0  0  0  0  0  0  0
    2.3959  -45.1989    8.6290 N   0  0  0  0  0  0  0  0  0  0  0  0
    1.5833  -51.8241   12.7023 C   0  0  0  0  0  0  0  0  0  0  0  0
    0.5315  -51.5861   13.6879 O   0  0  0  0  0  0  0  0  0  0  0  0
  1  2  1  1  0  0  0
  1  8  1  0  0  0  0
  1 36  1  0  0  0  0
  3  4  1  6  0  0  0
  3 10  1  0  0  0  0
  3 47  1  0  0  0  0
  5 11  1  0  0  0  0
  5 30  1  0  0  0  0
  5 38  1  1  0  0  0
  6 21  1  1  0  0  0
  6 42  1  0  0  0  0
  7 15  1  0  0  0  0
  7 44  1  0  0  0  0
  7 32  1  6  0  0  0
  8  9  1  1  0  0  0
  8 17  1  0  0  0  0
 11 12  1  1  0  0  0
 11 20  1  0  0  0  0
 13  6  1  0  0  0  0
 13 14  1  1  0  0  0
 15 16  1  1  0  0  0
 15 24  1  0  0  0  0
 17 26  1  0  0  0  0
 18 10  1  0  0  0  0
 18 19  1  6  0  0  0
 20 21  1  6  0  0  0
 20 29  1  0  0  0  0
 22 13  1  0  0  0  0
 22 23  1  6  0  0  0
 24 25  1  1  0  0  0
 24 33  1  0  0  0  0
 26 27  1  1  0  0  0
 26 35  1  0  0  0  0
 28  2  1  1  0  0  0
 28 18  1  0  0  0  0
 29 30  1  0  0  0  0
 29 39  1  1  0  0  0
 31 22  1  0  0  0  0
 31 32  1  1  0  0  0
 31 41  1  0  0  0  0
 33 34  1  6  0  0  0
 33 43  1  0  0  0  0
 35 36  1  0  0  0  0
 35 45  1  6  0  0  0
 37 28  1  0  0  0  0
 37 38  1  6  0  0  0
 39 40  1  0  0  0  0
 41 42  1  0  0  0  0
 41 49  1  1  0  0  0
 43 44  1  0  0  0  0
 43 51  1  1  0  0  0
 45 46  1  0  0  0  0
 47 37  1  0  0  0  0
 47 48  1  1  0  0  0
 49 50  1  0  0  0  0
 51 52  1  0  0  0  0
M  END
>  <CHROM.1>
-177.94811113,-73.21655385,-77.26886415,63.06083289,163.25821568,-169.27419367
-60.87791209,61.73101148,-172.88947191,142.80510146,-67.29409198,70.63723347
-1.88055672,-50.16501542,7.76485012,2.55628200,-0.21710666,-1.70627929

>  <Name>
2fd0_lig

>  <RI>
0

>  <Rbt.Current_Directory>
/home/itssahil/PROJECTS/Mol_Feturizer/New_Systems/rnas/2fd0

>  <Rbt.Executable>
rbdock ($Id: //depot/dev/client3/rdock/2013.1/src/exe/rbdock.cxx#4 $)

>  <Rbt.Library>
libRbt.so (2013.1, Build901 2013/11/27)

>  <Rbt.Parameter_File>
/export/apps/rDock/src/rDock_2013.1_src/data/scripts/dock_solv.prm

>  <Rbt.Receptor>
prm/pocket_docking_6.prm

>  <SCORE>
-8.61148

>  <SCORE.INTER>
-2.4712

>  <SCORE.INTER.CONST>
1

>  <SCORE.INTER.POLAR>
-0.493683

>  <SCORE.INTER.ROT>
12

>  <SCORE.INTER.SOLV>
13.2843

>  <SCORE.INTER.VDW>
-16.03

>  <SCORE.INTER.norm>
-0.047523

>  <SCORE.INTRA>
-6.14029

>  <SCORE.INTRA.DIHEDRAL>
-12.4938

>  <SCORE.INTRA.DIHEDRAL.0>
23.9727

>  <SCORE.INTRA.POLAR>
0

>  <SCORE.INTRA.POLAR.0>
0

>  <SCORE.INTRA.REPUL>
0

>  <SCORE.INTRA.REPUL.0>
0

>  <SCORE.INTRA.SOLV>
1.03122

>  <SCORE.INTRA.SOLV.lig_0>
-115.028

>  <SCORE.INTRA.VDW>
-0.408986

>  <SCORE.INTRA.VDW.0>
-6.82393

>  <SCORE.INTRA.norm>
-0.118082

>  <SCORE.RESTR>
0

>  <SCORE.RESTR.CAVITY>
0

>  <SCORE.RESTR.norm>
0

>  <SCORE.SYSTEM>
0

>  <SCORE.SYSTEM.CONST>
0

>  <SCORE.SYSTEM.DIHEDRAL>
0

>  <SCORE.SYSTEM.SOLV>
0

>  <SCORE.SYSTEM.norm>
0

>  <SCORE.heavy>
52

>  <SCORE.norm>
-0.165605

>  <RMSD>
12.384

$$$$
2fd0_lig
 OpenBabel11021811433D
libRbt.so/2013.1/901 2013/11/27
 52 56  0  0  0  0  0  0  0  0999 V2000
   -0.6539  -46.6724   13.4700 C   0  0  2  0  0  0  0  0  0  0  0  0
    0.3323  -45.7139   13.0631 O   0  0  0  0  0  0  0  0  0  0  0  0
    1.9329  -47.4461    9.4121 C   0  0  2  0  0  0  0  0  0  0  0  0
    2.6714  -47.6067    8.1488 N   0  0  0  0  0  0  0  0  0  0  0  0
    3.9504  -45.5821   12.9702 C   0  0  1  0  0  0  0  0  0  0  0  0
    7.5777  -43.4919   14.8398 C   0  0  1  0  0  0  0  0  0  0  0  0
   11.3730  -41.1546   12.1916 C   0  0  1  0  0  0  0  0  0  0  0  0
   -1.2775  -46.2001   14.8336 C   0  0  2  0  0  0  0  0  0  0  0  0
   -1.8498  -44.8647   14.7348 N   0  0  0  0  0  0  0  0  0  0  0  0
    0.9233  -46.2201    9.3095 C   0  0  0  0  0  0  0  0  0  0  0  0
    4.5695  -45.4544   14.3501 C   0  0  2  0  0  0  0  0  0  0  0  0
    3.8530  -44.5065   15.1905 O   0  0  0  0  0  0  0  0  0  0  0  0
    7.6985  -41.9003   14.9490 C   0  0  2  0  0  0  0  0  0  0  0  0
    7.3578  -41.2609   13.6489 N   0  0  0  0  0  0  0  0  0  0  0  0
   10.8577  -42.2829   11.2700 C   0  0  1  0  0  0  0  0  0  0  0  0
    9.6368  -41.8444   10.6243 O   0  0  0  0  0  0  0  0  0  0  0  0
   -0.2058  -46.2808   15.9831 C   0  0  0  0  0  0  0  0  0  0  0  0
    0.1125  -46.0541   10.6822 C   0  0  2  0  0  0  0  0  0  0  0  0
   -0.8267  -44.9248   10.6147 N   0  0  0  0  0  0  0  0  0  0  0  0
    6.0176  -45.1122   14.0426 C   0  0  2  0  0  0  0  0  0  0  0  0
    6.3026  -43.7726   14.3407 O   0  0  0  0  0  0  0  0  0  0  0  0
    9.1715  -41.5673   15.5236 C   0  0  1  0  0  0  0  0  0  0  0  0
    9.3230  -42.2516   16.7805 O   0  0  0  0  0  0  0  0  0  0  0  0
   11.8228  -42.8062   10.1720 C   0  0  1  0  0  0  0  0  0  0  0  0
   11.5618  -42.0726    8.9687 O   0  0  0  0  0  0  0  0  0  0  0  0
    0.3563  -47.7389   16.0367 C   0  0  2  0  0  0  0  0  0  0  0  0
    1.3189  -47.8587   17.0793 O   0  0  0  0  0  0  0  0  0  0  0  0
    1.1201  -45.8425   11.8466 C   0  0  2  0  0  0  0  0  0  0  0  0
    6.2457  -45.2479   12.5181 C   0  0  2  0  0  0  0  0  0  0  0  0
    5.0222  -45.8160   12.0733 O   0  0  0  0  0  0  0  0  0  0  0  0
   10.3374  -42.1264   14.5528 C   0  0  2  0  0  0  0  0  0  0  0  0
   10.1576  -41.4045   13.3199 O   0  0  0  0  0  0  0  0  0  0  0  0
   13.3324  -42.7142   10.4934 C   0  0  2  0  0  0  0  0  0  0  0  0
   13.9110  -43.9474   10.0129 O   0  0  0  0  0  0  0  0  0  0  0  0
    1.0088  -48.0925   14.6696 C   0  0  2  0  0  0  0  0  0  0  0  0
   -0.0262  -47.9721   13.6190 O   0  0  0  0  0  0  0  0  0  0  0  0
    2.1690  -46.9912   11.9534 C   0  0  2  0  0  0  0  0  0  0  0  0
    3.0700  -46.6589   13.0368 O   0  0  0  0  0  0  0  0  0  0  0  0
    7.3819  -46.1810   12.1146 C   0  0  0  0  0  0  0  0  0  0  0  0
    7.3922  -46.2356   10.6800 O   0  0  0  0  0  0  0  0  0  0  0  0
   10.0032  -43.5863   14.3109 C   0  0  1  0  0  0  0  0  0  0  0  0
    8.6943  -44.0811   13.9586 O   0  0  0  0  0  0  0  0  0  0  0  0
   13.5619  -42.4717   11.9827 C   0  0  2  0  0  0  0  0  0  0  0  0
   12.8089  -41.3601   12.5420 O   0  0  0  0  0  0  0  0  0  0  0  0
    1.5360  -49.4919   14.6433 C   0  0  0  0  0  0  0  0  0  0  0  0
    2.6064  -49.5693   15.5455 O   0  0  0  0  0  0  0  0  0  0  0  0
    2.9416  -47.1457   10.5926 C   0  0  1  0  0  0  0  0  0  0  0  0
    3.8822  -48.2681   10.7140 O   0  0  0  0  0  0  0  0  0  0  0  0
   11.0103  -44.2993   13.3405 C   0  0  0  0  0  0  0  0  0  0  0  0
   10.7088  -45.7345   13.1201 N   0  0  0  0  0  0  0  0  0  0  0  0
   14.9634  -42.3295   12.5723 C   0  0  0  0  0  0  0  0  0  0  0  0
   15.5903  -41.0968   12.1013 O   0  0  0  0  0  0  0  0  0  0  0  0
  1  2  1  1  0  0  0
  1  8  1  0  0  0  0
  1 36  1  0  0  0  0
  3  4  1  6  0  0  0
  3 10  1  0  0  0  0
  3 47  1  0  0  0  0
  5 11  1  0  0  0  0
  5 30  1  0  0  0  0
  5 38  1  1  0  0  0
  6 21  1  6  0  0  0
  6 42  1  0  0  0  0
  7 15  1  0  0  0  0
  7 44  1  0  0  0  0
  7 32  1  1  0  0  0
  8  9  1  6  0  0  0
  8 17  1  0  0  0  0
 11 12  1  1  0  0  0
 11 20  1  0  0  0  0
 13  6  1  0  0  0  0
 13 14  1  6  0  0  0
 15 16  1  6  0  0  0
 15 24  1  0  0  0  0
 17 26  1  0  0  0  0
 18 10  1  0  0  0  0
 18 19  1  6  0  0  0
 20 21  1  6  0  0  0
 20 29  1  0  0  0  0
 22 13  1  0  0  0  0
 22 23  1  1  0  0  0
 24 25  1  6  0  0  0
 24 33  1  0  0  0  0
 26 27  1  1  0  0  0
 26 35  1  0  0  0  0
 28  2  1  1  0  0  0
 28 18  1  0  0  0  0
 29 30  1  0  0  0  0
 29 39  1  1  0  0  0
 31 22  1  0  0  0  0
 31 32  1  6  0  0  0
 31 41  1  0  0  0  0
 33 34  1  1  0  0  0
 33 43  1  0  0  0  0
 35 36  1  0  0  0  0
 35 45  1  1  0  0  0
 37 28  1  0  0  0  0
 37 38  1  1  0  0  0
 39 40  1  0  0  0  0
 41 42  1  0  0  0  0
 41 49  1  6  0  0  0
 43 44  1  0  0  0  0
 43 51  1  6  0  0  0
 45 46  1  0  0  0  0
 47 37  1  0  0  0  0
 47 48  1  1  0  0  0
 49 50  1  0  0  0  0
 51 52  1  0  0  0  0
M  END
>  <CHROM.1>
179.39274796,172.39061412,174.16940763,100.99653954,144.63315357,52.89541651
176.88088243,156.34486097,-66.66235032,-67.47297608,178.78144071,67.82197410
6.07713169,-44.83071816,12.87892317,-3.13673271,-0.39420868,-1.79048506

>  <Name>
2fd0_lig

>  <RI>
0

>  <Rbt.Current_Directory>
/home/itssahil/PROJECTS/Mol_Feturizer/New_Systems/rnas/2fd0

>  <Rbt.Executable>
rbdock ($Id: //depot/dev/client3/rdock/2013.1/src/exe/rbdock.cxx#4 $)

>  <Rbt.Library>
libRbt.so (2013.1, Build901 2013/11/27)

>  <Rbt.Parameter_File>
/export/apps/rDock/src/rDock_2013.1_src/data/scripts/dock_solv.prm

>  <Rbt.Receptor>
prm/pocket_docking_8.prm

>  <SCORE>
-13.5491

>  <SCORE.INTER>
-9.11408

>  <SCORE.INTER.CONST>
1

>  <SCORE.INTER.POLAR>
-1.17815

>  <SCORE.INTER.ROT>
12

>  <SCORE.INTER.SOLV>
13.2145

>  <SCORE.INTER.VDW>
-18.1537

>  <SCORE.INTER.norm>
-0.175271

>  <SCORE.INTRA>
-4.43499

>  <SCORE.INTRA.DIHEDRAL>
-8.46779

>  <SCORE.INTRA.DIHEDRAL.0>
23.9727

>  <SCORE.INTRA.POLAR>
0

>  <SCORE.INTRA.POLAR.0>
0

>  <SCORE.INTRA.REPUL>
0

>  <SCORE.INTRA.REPUL.0>
0

>  <SCORE.INTRA.SOLV>
-1.58904

>  <SCORE.INTRA.SOLV.lig_0>
-115.028

>  <SCORE.INTRA.VDW>
0.593421

>  <SCORE.INTRA.VDW.0>
-6.82393

>  <SCORE.INTRA.norm>
-0.0852883

>  <SCORE.RESTR>
0

>  <SCORE.RESTR.CAVITY>
0

>  <SCORE.RESTR.norm>
0

>  <SCORE.SYSTEM>
0

>  <SCORE.SYSTEM.CONST>
0

>  <SCORE.SYSTEM.DIHEDRAL>
0

>  <SCORE.SYSTEM.SOLV>
0

>  <SCORE.SYSTEM.norm>
0

>  <SCORE.heavy>
52

>  <SCORE.norm>
-0.260559

>  <RMSD>
12.423

$$$$
2fd0_lig
 OpenBabel11021811433D
libRbt.so/2013.1/901 2013/11/27
 52 56  0  0  0  0  0  0  0  0999 V2000
   -3.2411  -51.9810    4.9444 C   0  0  2  0  0  0  0  0  0  0  0  0
   -2.8269  -52.0731    6.3144 O   0  0  0  0  0  0  0  0  0  0  0  0
   -0.0727  -54.5494    8.5892 C   0  0  2  0  0  0  0  0  0  0  0  0
    1.1530  -55.2391    9.0239 N   0  0  0  0  0  0  0  0  0  0  0  0
    0.1587  -50.1863    8.6944 C   0  0  1  0  0  0  0  0  0  0  0  0
    2.3883  -46.5923   10.1881 C   0  0  1  0  0  0  0  0  0  0  0  0
    7.2619  -45.9066   11.4465 C   0  0  1  0  0  0  0  0  0  0  0  0
   -4.1112  -50.6832    4.7712 C   0  0  2  0  0  0  0  0  0  0  0  0
   -3.3903  -49.4875    5.1853 N   0  0  0  0  0  0  0  0  0  0  0  0
   -0.4468  -54.9733    7.1015 C   0  0  0  0  0  0  0  0  0  0  0  0
    0.2057  -48.7772    8.1324 C   0  0  2  0  0  0  0  0  0  0  0  0
    1.0658  -48.6785    6.9626 O   0  0  0  0  0  0  0  0  0  0  0  0
    3.6815  -45.8668    9.5877 C   0  0  2  0  0  0  0  0  0  0  0  0
    4.6790  -46.8725    9.1307 N   0  0  0  0  0  0  0  0  0  0  0  0
    7.6029  -45.8683   12.9531 C   0  0  1  0  0  0  0  0  0  0  0  0
    7.7332  -47.2261   13.4424 O   0  0  0  0  0  0  0  0  0  0  0  0
   -5.4727  -50.8290    5.5468 C   0  0  0  0  0  0  0  0  0  0  0  0
   -1.7878  -54.2296    6.6344 C   0  0  2  0  0  0  0  0  0  0  0  0
   -2.1545  -54.6024    5.2602 N   0  0  0  0  0  0  0  0  0  0  0  0
    0.6167  -47.9450    9.3354 C   0  0  2  0  0  0  0  0  0  0  0  0
    1.9398  -47.4963    9.2209 O   0  0  0  0  0  0  0  0  0  0  0  0
    4.2077  -44.8210   10.7014 C   0  0  1  0  0  0  0  0  0  0  0  0
    3.1270  -43.9233   11.0134 O   0  0  0  0  0  0  0  0  0  0  0  0
    8.8697  -45.0784   13.3799 C   0  0  1  0  0  0  0  0  0  0  0  0
    9.9674  -45.9985   13.4308 O   0  0  0  0  0  0  0  0  0  0  0  0
   -6.1932  -52.1232    5.0462 C   0  0  2  0  0  0  0  0  0  0  0  0
   -7.4418  -52.2821    5.7125 O   0  0  0  0  0  0  0  0  0  0  0  0
   -1.5790  -52.6927    6.7338 C   0  0  2  0  0  0  0  0  0  0  0  0
    0.6001  -48.8483   10.5917 C   0  0  2  0  0  0  0  0  0  0  0  0
    0.0261  -50.0504   10.0987 O   0  0  0  0  0  0  0  0  0  0  0  0
    4.6035  -45.5611   12.0834 C   0  0  2  0  0  0  0  0  0  0  0  0
    5.6940  -46.4315   11.7273 O   0  0  0  0  0  0  0  0  0  0  0  0
    9.2623  -43.8847   12.4790 C   0  0  2  0  0  0  0  0  0  0  0  0
    9.6687  -42.8311   13.3798 O   0  0  0  0  0  0  0  0  0  0  0  0
   -5.2868  -53.3579    5.3175 C   0  0  2  0  0  0  0  0  0  0  0  0
   -4.0101  -53.1611    4.5959 O   0  0  0  0  0  0  0  0  0  0  0  0
   -1.1538  -52.2323    8.1615 C   0  0  2  0  0  0  0  0  0  0  0  0
   -0.9484  -50.7999    8.1141 O   0  0  0  0  0  0  0  0  0  0  0  0
   -0.2633  -48.3414   11.7415 C   0  0  0  0  0  0  0  0  0  0  0  0
   -0.1339  -49.2874   12.8136 O   0  0  0  0  0  0  0  0  0  0  0  0
    3.4036  -46.4147   12.4485 C   0  0  1  0  0  0  0  0  0  0  0  0
    2.7012  -47.2784   11.5305 O   0  0  0  0  0  0  0  0  0  0  0  0
    8.1103  -43.4905   11.5586 C   0  0  2  0  0  0  0  0  0  0  0  0
    7.5333  -44.5892   10.8001 O   0  0  0  0  0  0  0  0  0  0  0  0
   -5.9056  -54.6284    4.8275 C   0  0  0  0  0  0  0  0  0  0  0  0
   -7.0295  -54.8979    5.6211 O   0  0  0  0  0  0  0  0  0  0  0  0
    0.1541  -52.9843    8.6047 C   0  0  1  0  0  0  0  0  0  0  0  0
    0.4942  -52.5647    9.9713 O   0  0  0  0  0  0  0  0  0  0  0  0
    3.6177  -47.2566   13.7561 C   0  0  0  0  0  0  0  0  0  0  0  0
    2.3996  -47.9704   14.2099 N   0  0  0  0  0  0  0  0  0  0  0  0
    8.2321  -42.3455   10.5556 C   0  0  0  0  0  0  0  0  0  0  0  0
    9.4848  -42.4528    9.8114 O   0  0  0  0  0  0  0  0  0  0  0  0
  1  2  1  1  0  0  0
  1  8  1  0  0  0  0
  1 36  1  0  0  0  0
  3  4  1  6  0  0  0
  3 10  1  0  0  0  0
  3 47  1  0  0  0  0
  5 11  1  0  0  0  0
  5 30  1  0  0  0  0
  5 38  1  6  0  0  0
  6 21  1  6  0  0  0
  6 42  1  0  0  0  0
  7 15  1  0  0  0  0
  7 44  1  0  0  0  0
  7 32  1  1  0  0  0
  8  9  1  1  0  0  0
  8 17  1  0  0  0  0
 11 12  1  6  0  0  0
 11 20  1  0  0  0  0
 13  6  1  0  0  0  0
 13 14  1  1  0  0  0
 15 16  1  6  0  0  0
 15 24  1  0  0  0  0
 17 26  1  0  0  0  0
 18 10  1  0  0  0  0
 18 19  1  6  0  0  0
 20 21  1  6  0  0  0
 20 29  1  0  0  0  0
 22 13  1  0  0  0  0
 22 23  1  1  0  0  0
 24 25  1  6  0  0  0
 24 33  1  0  0  0  0
 26 27  1  1  0  0  0
 26 35  1  0  0  0  0
 28  2  1  1  0  0  0
 28 18  1  0  0  0  0
 29 30  1  0  0  0  0
 29 39  1  1  0  0  0
 31 22  1  0  0  0  0
 31 32  1  6  0  0  0
 31 41  1  0  0  0  0
 33 34  1  1  0  0  0
 33 43  1  0  0  0  0
 35 36  1  0  0  0  0
 35 45  1  6  0  0  0
 37 28  1  0  0  0  0
 37 38  1  6  0  0  0
 39 40  1  0  0  0  0
 41 42  1  0  0  0  0
 41 49  1  1  0  0  0
 43 44  1  0  0  0  0
 43 51  1  6  0  0  0
 45 46  1  0  0  0  0
 47 37  1  0  0  0  0
 47 48  1  1  0  0  0
 49 50  1  0  0  0  0
 51 52  1  0  0  0  0
M  END
>  <CHROM.1>
-149.62946714,165.55690917,-161.04016769,81.84192672,172.78794124,-75.91394272
-178.94243078,75.70159025,-67.85475928,-134.78345119,173.22465718,46.92313157
1.50727155,-48.98934564,9.31521054,2.73836624,0.63484128,2.83046458

>  <Name>
2fd0_lig

>  <RI>
3.4301e+07

>  <Rbt.Current_Directory>
/home/itssahil/PROJECTS/Mol_Feturizer/New_Systems/rnas/2fd0

>  <Rbt.Executable>
rbdock ($Id: //depot/dev/client3/rdock/2013.1/src/exe/rbdock.cxx#4 $)

>  <Rbt.Library>
libRbt.so (2013.1, Build901 2013/11/27)

>  <Rbt.Parameter_File>
/export/apps/rDock/src/rDock_2013.1_src/data/scripts/dock_solv.prm

>  <Rbt.Receptor>
prm/pocket_docking_7.prm

>  <SCORE>
-2.85452

>  <SCORE.INTER>
-4.78673

>  <SCORE.INTER.CONST>
1

>  <SCORE.INTER.POLAR>
-0.979796

>  <SCORE.INTER.ROT>
12

>  <SCORE.INTER.SOLV>
14.0824

>  <SCORE.INTER.VDW>
-16.2193

>  <SCORE.INTER.norm>
-0.0920525

>  <SCORE.INTRA>
1.9322

>  <SCORE.INTRA.DIHEDRAL>
-4.38358

>  <SCORE.INTRA.DIHEDRAL.0>
23.9727

>  <SCORE.INTRA.POLAR>
0

>  <SCORE.INTRA.POLAR.0>
0

>  <SCORE.INTRA.REPUL>
0

>  <SCORE.INTRA.REPUL.0>
0

>  <SCORE.INTRA.SOLV>
0.597232

>  <SCORE.INTRA.SOLV.lig_0>
-115.028

>  <SCORE.INTRA.VDW>
3.82538

>  <SCORE.INTRA.VDW.0>
-6.82393

>  <SCORE.INTRA.norm>
0.0371578

>  <SCORE.RESTR>
0

>  <SCORE.RESTR.CAVITY>
0

>  <SCORE.RESTR.norm>
0

>  <SCORE.SYSTEM>
0

>  <SCORE.SYSTEM.CONST>
0

>  <SCORE.SYSTEM.DIHEDRAL>
0

>  <SCORE.SYSTEM.SOLV>
0

>  <SCORE.SYSTEM.norm>
0

>  <SCORE.heavy>
52

>  <SCORE.norm>
-0.0548947

>  <RMSD>
12.436

$$$$
2fd0_lig
 OpenBabel11021811433D
libRbt.so/2013.1/901 2013/11/27
 52 56  0  0  0  0  0  0  0  0999 V2000
   -3.5996  -52.4919    3.7073 C   0  0  2  0  0  0  0  0  0  0  0  0
   -3.9930  -51.5066    4.6723 O   0  0  0  0  0  0  0  0  0  0  0  0
   -7.7064  -49.7219    6.0575 C   0  0  2  0  0  0  0  0  0  0  0  0
   -9.0832  -49.5710    6.5561 N   0  0  0  0  0  0  0  0  0  0  0  0
   -4.1108  -50.9665    8.7279 C   0  0  1  0  0  0  0  0  0  0  0  0
   -0.3884  -50.9186   11.0095 C   0  0  1  0  0  0  0  0  0  0  0  0
    2.2601  -49.5950   14.7845 C   0  0  1  0  0  0  0  0  0  0  0  0
   -3.8093  -53.9180    4.3348 C   0  0  2  0  0  0  0  0  0  0  0  0
   -5.1846  -54.1236    4.7671 N   0  0  0  0  0  0  0  0  0  0  0  0
   -7.7007  -50.5330    4.6882 C   0  0  0  0  0  0  0  0  0  0  0  0
   -2.6475  -51.3563    8.8304 C   0  0  2  0  0  0  0  0  0  0  0  0
   -2.4589  -52.6053    9.5532 O   0  0  0  0  0  0  0  0  0  0  0  0
   -0.2389  -51.1130   12.5904 C   0  0  2  0  0  0  0  0  0  0  0  0
   -0.5068  -49.8329   13.3011 N   0  0  0  0  0  0  0  0  0  0  0  0
    2.4846  -48.0673   14.8450 C   0  0  1  0  0  0  0  0  0  0  0  0
    1.2734  -47.3950   14.4197 O   0  0  0  0  0  0  0  0  0  0  0  0
   -2.7961  -54.1510    5.5161 C   0  0  0  0  0  0  0  0  0  0  0  0
   -6.2017  -50.6864    4.1416 C   0  0  2  0  0  0  0  0  0  0  0  0
   -6.1683  -51.4355    2.8768 N   0  0  0  0  0  0  0  0  0  0  0  0
   -2.0101  -50.1238    9.4495 C   0  0  2  0  0  0  0  0  0  0  0  0
   -1.6453  -50.3502   10.7838 O   0  0  0  0  0  0  0  0  0  0  0  0
    1.2135  -51.7680   12.8600 C   0  0  1  0  0  0  0  0  0  0  0  0
    1.2934  -52.9943   12.1111 O   0  0  0  0  0  0  0  0  0  0  0  0
    2.9193  -47.4616   16.2070 C   0  0  1  0  0  0  0  0  0  0  0  0
    1.7374  -47.0434   16.9016 O   0  0  0  0  0  0  0  0  0  0  0  0
   -1.3456  -53.9233    4.9786 C   0  0  2  0  0  0  0  0  0  0  0  0
   -0.3948  -54.1431    6.0159 O   0  0  0  0  0  0  0  0  0  0  0  0
   -5.3400  -51.4094    5.2141 C   0  0  2  0  0  0  0  0  0  0  0  0
   -3.0655  -48.9934    9.5018 C   0  0  2  0  0  0  0  0  0  0  0  0
   -4.1495  -49.5507    8.7725 O   0  0  0  0  0  0  0  0  0  0  0  0
    2.4098  -50.8225   12.3222 C   0  0  2  0  0  0  0  0  0  0  0  0
    2.3013  -49.6208   13.1081 O   0  0  0  0  0  0  0  0  0  0  0  0
    3.7387  -48.3897   17.1333 C   0  0  2  0  0  0  0  0  0  0  0  0
    4.7727  -47.5587   17.7049 O   0  0  0  0  0  0  0  0  0  0  0  0
   -1.2156  -52.4699    4.4398 C   0  0  2  0  0  0  0  0  0  0  0  0
   -2.2065  -52.2889    3.3558 O   0  0  0  0  0  0  0  0  0  0  0  0
   -5.3593  -50.6835    6.5938 C   0  0  2  0  0  0  0  0  0  0  0  0
   -4.5637  -51.4713    7.5117 O   0  0  0  0  0  0  0  0  0  0  0  0
   -2.6524  -47.6909    8.8256 C   0  0  0  0  0  0  0  0  0  0  0  0
   -2.5465  -47.9618    7.4197 O   0  0  0  0  0  0  0  0  0  0  0  0
    2.0559  -50.4930   10.8843 C   0  0  1  0  0  0  0  0  0  0  0  0
    0.7540  -50.0588   10.4385 O   0  0  0  0  0  0  0  0  0  0  0  0
    4.2778  -49.5935   16.3653 C   0  0  2  0  0  0  0  0  0  0  0  0
    3.2811  -50.3210   15.5954 O   0  0  0  0  0  0  0  0  0  0  0  0
    0.1430  -52.1983    3.8764 C   0  0  0  0  0  0  0  0  0  0  0  0
    0.2247  -50.8302    3.5809 O   0  0  0  0  0  0  0  0  0  0  0  0
   -6.8390  -50.5312    7.1035 C   0  0  1  0  0  0  0  0  0  0  0  0
   -6.8215  -49.7987    8.3773 O   0  0  0  0  0  0  0  0  0  0  0  0
    3.0905  -49.5332   10.1966 C   0  0  0  0  0  0  0  0  0  0  0  0
    4.1293  -50.2429    9.4114 N   0  0  0  0  0  0  0  0  0  0  0  0
    5.1142  -50.6765   17.0430 C   0  0  0  0  0  0  0  0  0  0  0  0
    6.2803  -50.0849   17.6946 O   0  0  0  0  0  0  0  0  0  0  0  0
  1  2  1  1  0  0  0
  1  8  1  0  0  0  0
  1 36  1  0  0  0  0
  3  4  1  1  0  0  0
  3 10  1  0  0  0  0
  3 47  1  0  0  0  0
  5 11  1  0  0  0  0
  5 30  1  0  0  0  0
  5 38  1  6  0  0  0
  6 21  1  1  0  0  0
  6 42  1  0  0  0  0
  7 15  1  0  0  0  0
  7 44  1  0  0  0  0
  7 32  1  6  0  0  0
  8  9  1  1  0  0  0
  8 17  1  0  0  0  0
 11 12  1  1  0  0  0
 11 20  1  0  0  0  0
 13  6  1  0  0  0  0
 13 14  1  1  0  0  0
 15 16  1  1  0  0  0
 15 24  1  0  0  0  0
 17 26  1  0  0  0  0
 18 10  1  0  0  0  0
 18 19  1  6  0  0  0
 20 21  1  1  0  0  0
 20 29  1  0  0  0  0
 22 13  1  0  0  0  0
 22 23  1  6  0  0  0
 24 25  1  1  0  0  0
 24 33  1  0  0  0  0
 26 27  1  1  0  0  0
 26 35  1  0  0  0  0
 28  2  1  6  0  0  0
 28 18  1  0  0  0  0
 29 30  1  0  0  0  0
 29 39  1  6  0  0  0
 31 22  1  0  0  0  0
 31 32  1  1  0  0  0
 31 41  1  0  0  0  0
 33 34  1  6  0  0  0
 33 43  1  0  0  0  0
 35 36  1  0  0  0  0
 35 45  1  6  0  0  0
 37 28  1  0  0  0  0
 37 38  1  1  0  0  0
 39 40  1  0  0  0  0
 41 42  1  0  0  0  0
 41 49  1  1  0  0  0
 43 44  1  0  0  0  0
 43 51  1  1  0  0  0
 45 46  1  0  0  0  0
 47 37  1  0  0  0  0
 47 48  1  1  0  0  0
 49 50  1  0  0  0  0
 51 52  1  0  0  0  0
M  END
>  <CHROM.1>
-60.77226331,-133.94280311,-178.24166795,167.29592566,86.35692803,-79.12745742
66.47418132,53.04787114,-172.33785970,164.58061985,95.20344632,-55.87678343
-1.12722492,-50.58130208,9.60041178,-2.26685107,-0.32171631,1.08977807

>  <Name>
2fd0_lig

>  <RI>
2.00683e+07

>  <Rbt.Current_Directory>
/home/itssahil/PROJECTS/Mol_Feturizer/New_Systems/rnas/2fd0

>  <Rbt.Executable>
rbdock ($Id: //depot/dev/client3/rdock/2013.1/src/exe/rbdock.cxx#4 $)

>  <Rbt.Library>
libRbt.so (2013.1, Build901 2013/11/27)

>  <Rbt.Parameter_File>
/export/apps/rDock/src/rDock_2013.1_src/data/scripts/dock_solv.prm

>  <Rbt.Receptor>
prm/pocket_docking_4.prm

>  <SCORE>
-11.5222

>  <SCORE.INTER>
-9.85752

>  <SCORE.INTER.CONST>
1

>  <SCORE.INTER.POLAR>
-0.881175

>  <SCORE.INTER.ROT>
12

>  <SCORE.INTER.SOLV>
14.5452

>  <SCORE.INTER.VDW>
-20.0828

>  <SCORE.INTER.norm>
-0.189568

>  <SCORE.INTRA>
-1.66472

>  <SCORE.INTRA.DIHEDRAL>
-6.89189

>  <SCORE.INTRA.DIHEDRAL.0>
23.9727

>  <SCORE.INTRA.POLAR>
0

>  <SCORE.INTRA.POLAR.0>
0

>  <SCORE.INTRA.REPUL>
0

>  <SCORE.INTRA.REPUL.0>
0

>  <SCORE.INTRA.SOLV>
0.552222

>  <SCORE.INTRA.SOLV.lig_0>
-115.028

>  <SCORE.INTRA.VDW>
1.50511

>  <SCORE.INTRA.VDW.0>
-6.82393

>  <SCORE.INTRA.norm>
-0.0320139

>  <SCORE.RESTR>
0

>  <SCORE.RESTR.CAVITY>
0

>  <SCORE.RESTR.norm>
0

>  <SCORE.SYSTEM>
0

>  <SCORE.SYSTEM.CONST>
0

>  <SCORE.SYSTEM.DIHEDRAL>
0

>  <SCORE.SYSTEM.SOLV>
0

>  <SCORE.SYSTEM.norm>
0

>  <SCORE.heavy>
52

>  <SCORE.norm>
-0.221582

>  <RMSD>
12.438

$$$$
2fd0_lig
 OpenBabel11021811433D
libRbt.so/2013.1/901 2013/11/27
 52 56  0  0  0  0  0  0  0  0999 V2000
   -4.3946  -50.2884    3.9692 C   0  0  2  0  0  0  0  0  0  0  0  0
   -5.0343  -51.5263    3.6298 O   0  0  0  0  0  0  0  0  0  0  0  0
   -8.1374  -53.9905    5.4162 C   0  0  2  0  0  0  0  0  0  0  0  0
   -8.8512  -54.8837    6.3434 N   0  0  0  0  0  0  0  0  0  0  0  0
   -5.5865  -50.4725    6.8361 C   0  0  1  0  0  0  0  0  0  0  0  0
   -3.5273  -47.5723    9.4972 C   0  0  1  0  0  0  0  0  0  0  0  0
    1.2787  -45.7595    9.7694 C   0  0  1  0  0  0  0  0  0  0  0  0
   -3.7123  -49.7076    2.6774 C   0  0  2  0  0  0  0  0  0  0  0  0
   -4.6679  -49.5271    1.5935 N   0  0  0  0  0  0  0  0  0  0  0  0
   -6.7986  -54.6821    4.9041 C   0  0  0  0  0  0  0  0  0  0  0  0
   -5.3734  -49.0216    7.2274 C   0  0  2  0  0  0  0  0  0  0  0  0
   -4.2837  -48.4047    6.4857 O   0  0  0  0  0  0  0  0  0  0  0  0
   -2.9610  -46.8244    8.2013 C   0  0  2  0  0  0  0  0  0  0  0  0
   -1.8651  -47.6163    7.5790 N   0  0  0  0  0  0  0  0  0  0  0  0
    1.8805  -46.5505    8.5862 C   0  0  1  0  0  0  0  0  0  0  0  0
    1.8250  -45.7301    7.3929 O   0  0  0  0  0  0  0  0  0  0  0  0
   -2.5098  -50.6213    2.2352 C   0  0  0  0  0  0  0  0  0  0  0  0
   -6.0287  -53.7122    3.8862 C   0  0  2  0  0  0  0  0  0  0  0  0
   -4.7850  -54.3273    3.3995 N   0  0  0  0  0  0  0  0  0  0  0  0
   -5.1957  -49.0986    8.7344 C   0  0  2  0  0  0  0  0  0  0  0  0
   -3.8634  -48.8715    9.1061 O   0  0  0  0  0  0  0  0  0  0  0  0
   -2.5678  -45.3215    8.6459 C   0  0  1  0  0  0  0  0  0  0  0  0
   -3.7390  -44.7047    9.2105 O   0  0  0  0  0  0  0  0  0  0  0  0
    3.3331  -47.0764    8.7425 C   0  0  1  0  0  0  0  0  0  0  0  0
    4.2195  -46.0967    8.1870 O   0  0  0  0  0  0  0  0  0  0  0  0
   -1.5238  -50.7624    3.4405 C   0  0  2  0  0  0  0  0  0  0  0  0
   -0.4091  -51.5696    3.0744 O   0  0  0  0  0  0  0  0  0  0  0  0
   -5.7162  -52.3681    4.6012 C   0  0  2  0  0  0  0  0  0  0  0  0
   -5.5075  -50.5420    9.1969 C   0  0  2  0  0  0  0  0  0  0  0  0
   -6.0065  -51.1440    8.0111 O   0  0  0  0  0  0  0  0  0  0  0  0
   -1.4398  -45.3116    9.8042 C   0  0  2  0  0  0  0  0  0  0  0  0
   -0.2873  -45.9195    9.1910 O   0  0  0  0  0  0  0  0  0  0  0  0
    3.7881  -47.3984   10.1847 C   0  0  2  0  0  0  0  0  0  0  0  0
    4.5462  -48.6245   10.0917 O   0  0  0  0  0  0  0  0  0  0  0  0
   -2.2689  -51.4033    4.6463 C   0  0  2  0  0  0  0  0  0  0  0  0
   -3.4066  -50.5276    5.0045 O   0  0  0  0  0  0  0  0  0  0  0  0
   -6.9918  -51.6776    5.1731 C   0  0  2  0  0  0  0  0  0  0  0  0
   -6.5676  -50.4690    5.8479 O   0  0  0  0  0  0  0  0  0  0  0  0
   -6.5751  -50.6581   10.2791 C   0  0  0  0  0  0  0  0  0  0  0  0
   -6.7016  -52.0523   10.5975 O   0  0  0  0  0  0  0  0  0  0  0  0
   -1.9570  -46.2401   10.8868 C   0  0  1  0  0  0  0  0  0  0  0  0
   -2.5052  -47.5534   10.6485 O   0  0  0  0  0  0  0  0  0  0  0  0
    2.5926  -47.4900   11.1291 C   0  0  2  0  0  0  0  0  0  0  0  0
    1.6861  -46.3538   11.0762 O   0  0  0  0  0  0  0  0  0  0  0  0
   -1.3873  -51.5333    5.8475 C   0  0  0  0  0  0  0  0  0  0  0  0
   -2.1204  -52.1742    6.8563 O   0  0  0  0  0  0  0  0  0  0  0  0
   -7.7383  -52.6512    6.1567 C   0  0  1  0  0  0  0  0  0  0  0  0
   -8.9594  -51.9875    6.6340 O   0  0  0  0  0  0  0  0  0  0  0  0
   -0.9644  -46.3983   12.0927 C   0  0  0  0  0  0  0  0  0  0  0  0
   -1.5121  -47.2022   13.2122 N   0  0  0  0  0  0  0  0  0  0  0  0
    2.7589  -47.7874   12.6177 C   0  0  0  0  0  0  0  0  0  0  0  0
    3.5407  -46.7349   13.2620 O   0  0  0  0  0  0  0  0  0  0  0  0
  1  2  1  6  0  0  0
  1  8  1  0  0  0  0
  1 36  1  0  0  0  0
  3  4  1  1  0  0  0
  3 10  1  0  0  0  0
  3 47  1  0  0  0  0
  5 11  1  0  0  0  0
  5 30  1  0  0  0  0
  5 38  1  6  0  0  0
  6 21  1  6  0  0  0
  6 42  1  0  0  0  0
  7 15  1  0  0  0  0
  7 44  1  0  0  0  0
  7 32  1  6  0  0  0
  8  9  1  6  0  0  0
  8 17  1  0  0  0  0
 11 12  1  6  0  0  0
 11 20  1  0  0  0  0
 13  6  1  0  0  0  0
 13 14  1  1  0  0  0
 15 16  1  6  0  0  0
 15 24  1  0  0  0  0
 17 26  1  0  0  0  0
 18 10  1  0  0  0  0
 18 19  1  1  0  0  0
 20 21  1  6  0  0  0
 20 29  1  0  0  0  0
 22 13  1  0  0  0  0
 22 23  1  1  0  0  0
 24 25  1  1  0  0  0
 24 33  1  0  0  0  0
 26 27  1  6  0  0  0
 26 35  1  0  0  0  0
 28  2  1  6  0  0  0
 28 18  1  0  0  0  0
 29 30  1  0  0  0  0
 29 39  1  1  0  0  0
 31 22  1  0  0  0  0
 31 32  1  6  0  0  0
 31 41  1  0  0  0  0
 33 34  1  6  0  0  0
 33 43  1  0  0  0  0
 35 36  1  0  0  0  0
 35 45  1  1  0  0  0
 37 28  1  0  0  0  0
 37 38  1  1  0  0  0
 39 40  1  0  0  0  0
 41 42  1  0  0  0  0
 41 49  1  1  0  0  0
 43 44  1  0  0  0  0
 43 51  1  1  0  0  0
 45 46  1  0  0  0  0
 47 37  1  0  0  0  0
 47 48  1  6  0  0  0
 49 50  1  0  0  0  0
 51 52  1  0  0  0  0
M  END
>  <CHROM.1>
177.22997544,176.70093596,-94.34054111,-176.09679575,96.41161529,-169.72119735
-178.62920151,161.09731134,-177.25414941,-53.58053554,174.64675007,61.97299716
-2.71285718,-49.34775544,7.56624855,-2.42510223,0.34971060,1.12424629

>  <Name>
2fd0_lig

>  <RI>
0

>  <Rbt.Current_Directory>
/home/itssahil/PROJECTS/Mol_Feturizer/New_Systems/rnas/2fd0

>  <Rbt.Executable>
rbdock ($Id: //depot/dev/client3/rdock/2013.1/src/exe/rbdock.cxx#4 $)

>  <Rbt.Library>
libRbt.so (2013.1, Build901 2013/11/27)

>  <Rbt.Parameter_File>
/export/apps/rDock/src/rDock_2013.1_src/data/scripts/dock_solv.prm

>  <Rbt.Receptor>
prm/pocket_docking_8.prm

>  <SCORE>
-13.2521

>  <SCORE.INTER>
-7.61918

>  <SCORE.INTER.CONST>
1

>  <SCORE.INTER.POLAR>
-1.65001

>  <SCORE.INTER.ROT>
12

>  <SCORE.INTER.SOLV>
11.1208

>  <SCORE.INTER.VDW>
-14.8863

>  <SCORE.INTER.norm>
-0.146523

>  <SCORE.INTRA>
-5.64218

>  <SCORE.INTRA.DIHEDRAL>
-10.542

>  <SCORE.INTRA.DIHEDRAL.0>
23.9727

>  <SCORE.INTRA.POLAR>
0

>  <SCORE.INTRA.POLAR.0>
0

>  <SCORE.INTRA.REPUL>
0

>  <SCORE.INTRA.REPUL.0>
0

>  <SCORE.INTRA.SOLV>
-1.90329

>  <SCORE.INTRA.SOLV.lig_0>
-115.028

>  <SCORE.INTRA.VDW>
0.580476

>  <SCORE.INTRA.VDW.0>
-6.82393

>  <SCORE.INTRA.norm>
-0.108504

>  <SCORE.RESTR>
0.00928857

>  <SCORE.RESTR.CAVITY>
0.00928857

>  <SCORE.RESTR.norm>
0.000178626

>  <SCORE.SYSTEM>
0

>  <SCORE.SYSTEM.CONST>
0

>  <SCORE.SYSTEM.DIHEDRAL>
0

>  <SCORE.SYSTEM.SOLV>
0

>  <SCORE.SYSTEM.norm>
0

>  <SCORE.heavy>
52

>  <SCORE.norm>
-0.254848

>  <RMSD>
12.480

$$$$
2fd0_lig
 OpenBabel11021811433D
libRbt.so/2013.1/901 2013/11/27
 52 56  0  0  0  0  0  0  0  0999 V2000
   -2.2745  -47.3433    5.2595 C   0  0  2  0  0  0  0  0  0  0  0  0
   -2.7345  -48.6380    4.8483 O   0  0  0  0  0  0  0  0  0  0  0  0
   -1.0118  -52.5249    3.9446 C   0  0  2  0  0  0  0  0  0  0  0  0
   -0.1968  -53.5814    3.3229 N   0  0  0  0  0  0  0  0  0  0  0  0
    0.4632  -49.3589    7.1165 C   0  0  1  0  0  0  0  0  0  0  0  0
    2.6415  -47.6620   10.6426 C   0  0  1  0  0  0  0  0  0  0  0  0
    6.6680  -45.2816   12.1416 C   0  0  1  0  0  0  0  0  0  0  0  0
   -3.3884  -46.6748    6.1447 C   0  0  2  0  0  0  0  0  0  0  0  0
   -3.7365  -47.4997    7.2933 N   0  0  0  0  0  0  0  0  0  0  0  0
   -1.9087  -51.8014    2.8468 C   0  0  0  0  0  0  0  0  0  0  0  0
    1.6239  -48.3814    7.1472 C   0  0  2  0  0  0  0  0  0  0  0  0
    2.8902  -49.0184    6.8171 O   0  0  0  0  0  0  0  0  0  0  0  0
    3.4036  -46.2668   10.4630 C   0  0  2  0  0  0  0  0  0  0  0  0
    4.6918  -46.4647    9.7441 N   0  0  0  0  0  0  0  0  0  0  0  0
    6.7046  -44.9281   13.6454 C   0  0  1  0  0  0  0  0  0  0  0  0
    7.5203  -45.9038   14.3400 O   0  0  0  0  0  0  0  0  0  0  0  0
   -4.6555  -46.3428    5.2724 C   0  0  0  0  0  0  0  0  0  0  0  0
   -2.8034  -50.6590    3.5278 C   0  0  2  0  0  0  0  0  0  0  0  0
   -3.6407  -49.9723    2.5333 N   0  0  0  0  0  0  0  0  0  0  0  0
    1.5229  -47.7775    8.5377 C   0  0  2  0  0  0  0  0  0  0  0  0
    2.5464  -48.2429    9.3748 O   0  0  0  0  0  0  0  0  0  0  0  0
    3.5197  -45.5896   11.9255 C   0  0  1  0  0  0  0  0  0  0  0  0
    2.1908  -45.4637   12.4632 O   0  0  0  0  0  0  0  0  0  0  0  0
    7.2093  -43.5124   14.0353 C   0  0  1  0  0  0  0  0  0  0  0  0
    8.6153  -43.6021   14.2987 O   0  0  0  0  0  0  0  0  0  0  0  0
   -4.2095  -45.4506    4.0683 C   0  0  2  0  0  0  0  0  0  0  0  0
   -5.3336  -45.1121    3.2621 O   0  0  0  0  0  0  0  0  0  0  0  0
   -1.8714  -49.6381    4.2384 C   0  0  2  0  0  0  0  0  0  0  0  0
    0.2079  -48.2619    9.1939 C   0  0  2  0  0  0  0  0  0  0  0  0
   -0.4387  -48.9375    8.1248 O   0  0  0  0  0  0  0  0  0  0  0  0
    4.3461  -46.5211   12.9568 C   0  0  2  0  0  0  0  0  0  0  0  0
    5.6670  -46.6042   12.3892 O   0  0  0  0  0  0  0  0  0  0  0  0
    6.9681  -42.3942   12.9951 C   0  0  2  0  0  0  0  0  0  0  0  0
    6.5602  -41.2348   13.7539 O   0  0  0  0  0  0  0  0  0  0  0  0
   -3.1585  -46.2185    3.2166 C   0  0  2  0  0  0  0  0  0  0  0  0
   -2.0032  -46.5358    4.0850 O   0  0  0  0  0  0  0  0  0  0  0  0
   -0.9295  -50.3075    5.2852 C   0  0  2  0  0  0  0  0  0  0  0  0
   -0.0877  -49.2688    5.8408 O   0  0  0  0  0  0  0  0  0  0  0  0
   -0.7149  -47.1535    9.6883 C   0  0  0  0  0  0  0  0  0  0  0  0
   -1.0451  -46.3423    8.5507 O   0  0  0  0  0  0  0  0  0  0  0  0
    3.6997  -47.8913   12.8785 C   0  0  1  0  0  0  0  0  0  0  0  0
    3.3661  -48.5724   11.6509 O   0  0  0  0  0  0  0  0  0  0  0  0
    5.9456  -42.8299   11.9490 C   0  0  2  0  0  0  0  0  0  0  0  0
    6.2216  -44.1146   11.3255 O   0  0  0  0  0  0  0  0  0  0  0  0
   -2.6632  -45.4026    2.0651 C   0  0  0  0  0  0  0  0  0  0  0  0
   -1.8278  -46.2149    1.2853 O   0  0  0  0  0  0  0  0  0  0  0  0
   -0.0728  -51.4335    4.5991 C   0  0  1  0  0  0  0  0  0  0  0  0
    0.7625  -52.0750    5.6239 O   0  0  0  0  0  0  0  0  0  0  0  0
    4.4025  -48.9602   13.7885 C   0  0  0  0  0  0  0  0  0  0  0  0
    5.7734  -49.3105   13.3442 N   0  0  0  0  0  0  0  0  0  0  0  0
    5.5290  -41.9185   10.7967 C   0  0  0  0  0  0  0  0  0  0  0  0
    4.8609  -40.7245   11.3091 O   0  0  0  0  0  0  0  0  0  0  0  0
  1  2  1  6  0  0  0
  1  8  1  0  0  0  0
  1 36  1  0  0  0  0
  3  4  1  6  0  0  0
  3 10  1  0  0  0  0
  3 47  1  0  0  0  0
  5 11  1  0  0  0  0
  5 30  1  0  0  0  0
  5 38  1  6  0  0  0
  6 21  1  6  0  0  0
  6 42  1  0  0  0  0
  7 15  1  0  0  0  0
  7 44  1  0  0  0  0
  7 32  1  1  0  0  0
  8  9  1  1  0  0  0
  8 17  1  0  0  0  0
 11 12  1  1  0  0  0
 11 20  1  0  0  0  0
 13  6  1  0  0  0  0
 13 14  1  1  0  0  0
 15 16  1  1  0  0  0
 15 24  1  0  0  0  0
 17 26  1  0  0  0  0
 18 10  1  0  0  0  0
 18 19  1  6  0  0  0
 20 21  1  1  0  0  0
 20 29  1  0  0  0  0
 22 13  1  0  0  0  0
 22 23  1  1  0  0  0
 24 25  1  6  0  0  0
 24 33  1  0  0  0  0
 26 27  1  6  0  0  0
 26 35  1  0  0  0  0
 28  2  1  1  0  0  0
 28 18  1  0  0  0  0
 29 30  1  0  0  0  0
 29 39  1  6  0  0  0
 31 22  1  0  0  0  0
 31 32  1  6  0  0  0
 31 41  1  0  0  0  0
 33 34  1  1  0  0  0
 33 43  1  0  0  0  0
 35 36  1  0  0  0  0
 35 45  1  6  0  0  0
 37 28  1  0  0  0  0
 37 38  1  6  0  0  0
 39 40  1  0  0  0  0
 41 42  1  0  0  0  0
 41 49  1  6  0  0  0
 43 44  1  0  0  0  0
 43 51  1  6  0  0  0
 45 46  1  0  0  0  0
 47 37  1  0  0  0  0
 47 48  1  1  0  0  0
 49 50  1  0  0  0  0
 51 52  1  0  0  0  0
M  END
>  <CHROM.1>
-167.76633650,160.56990413,-80.43581919,60.80670898,173.92310910,-161.45906571
59.31864669,61.39814962,-174.27568135,153.47895705,-67.42537453,-63.76838974
1.48639305,-47.11646022,8.40208049,2.72297508,0.77356963,-3.00632526

>  <Name>
2fd0_lig

>  <RI>
3.4301e+07

>  <Rbt.Current_Directory>
/home/itssahil/PROJECTS/Mol_Feturizer/New_Systems/rnas/2fd0

>  <Rbt.Executable>
rbdock ($Id: //depot/dev/client3/rdock/2013.1/src/exe/rbdock.cxx#4 $)

>  <Rbt.Library>
libRbt.so (2013.1, Build901 2013/11/27)

>  <Rbt.Parameter_File>
/export/apps/rDock/src/rDock_2013.1_src/data/scripts/dock_solv.prm

>  <Rbt.Receptor>
prm/pocket_docking_7.prm

>  <SCORE>
-14.0363

>  <SCORE.INTER>
-7.6746

>  <SCORE.INTER.CONST>
1

>  <SCORE.INTER.POLAR>
-1.38203

>  <SCORE.INTER.ROT>
12

>  <SCORE.INTER.SOLV>
13.1042

>  <SCORE.INTER.VDW>
-16.4777

>  <SCORE.INTER.norm>
-0.147588

>  <SCORE.INTRA>
-6.36171

>  <SCORE.INTRA.DIHEDRAL>
-12.9839

>  <SCORE.INTRA.DIHEDRAL.0>
23.9727

>  <SCORE.INTRA.POLAR>
0

>  <SCORE.INTRA.POLAR.0>
0

>  <SCORE.INTRA.REPUL>
0

>  <SCORE.INTRA.REPUL.0>
0

>  <SCORE.INTRA.SOLV>
0.505474

>  <SCORE.INTRA.SOLV.lig_0>
-115.028

>  <SCORE.INTRA.VDW>
-0.122517

>  <SCORE.INTRA.VDW.0>
-6.82393

>  <SCORE.INTRA.norm>
-0.122341

>  <SCORE.RESTR>
0

>  <SCORE.RESTR.CAVITY>
0

>  <SCORE.RESTR.norm>
0

>  <SCORE.SYSTEM>
0

>  <SCORE.SYSTEM.CONST>
0

>  <SCORE.SYSTEM.DIHEDRAL>
0

>  <SCORE.SYSTEM.SOLV>
0

>  <SCORE.SYSTEM.norm>
0

>  <SCORE.heavy>
52

>  <SCORE.norm>
-0.269929

>  <RMSD>
12.490

$$$$
2fd0_lig
 OpenBabel11021811433D
libRbt.so/2013.1/901 2013/11/27
 52 56  0  0  0  0  0  0  0  0999 V2000
   -7.1665  -50.3529    4.9490 C   0  0  2  0  0  0  0  0  0  0  0  0
   -5.8891  -50.2240    5.5882 O   0  0  0  0  0  0  0  0  0  0  0  0
   -3.3950  -53.1227    3.5219 C   0  0  2  0  0  0  0  0  0  0  0  0
   -2.2141  -53.8229    2.9907 N   0  0  0  0  0  0  0  0  0  0  0  0
   -3.5314  -51.5797    7.7902 C   0  0  1  0  0  0  0  0  0  0  0  0
   -0.6855  -50.9577   11.1833 C   0  0  1  0  0  0  0  0  0  0  0  0
    2.1891  -46.9136   12.9931 C   0  0  1  0  0  0  0  0  0  0  0  0
   -8.2462  -49.6388    5.8410 C   0  0  2  0  0  0  0  0  0  0  0  0
   -7.9148  -48.2409    6.0791 N   0  0  0  0  0  0  0  0  0  0  0  0
   -3.4239  -51.6179    3.0045 C   0  0  0  0  0  0  0  0  0  0  0  0
   -3.7466  -51.8265    9.2722 C   0  0  2  0  0  0  0  0  0  0  0  0
   -4.5422  -50.7795    9.8958 O   0  0  0  0  0  0  0  0  0  0  0  0
   -0.8758  -50.3948   12.6687 C   0  0  2  0  0  0  0  0  0  0  0  0
   -1.5032  -49.0454   12.6389 N   0  0  0  0  0  0  0  0  0  0  0  0
    1.0931  -45.9151   12.5576 C   0  0  1  0  0  0  0  0  0  0  0  0
    0.0773  -45.8497   13.5889 O   0  0  0  0  0  0  0  0  0  0  0  0
   -8.4432  -50.4196    7.1931 C   0  0  0  0  0  0  0  0  0  0  0  0
   -4.7164  -50.8609    3.5752 C   0  0  2  0  0  0  0  0  0  0  0  0
   -4.7657  -49.4658    3.1135 N   0  0  0  0  0  0  0  0  0  0  0  0
   -2.3309  -51.9920    9.7983 C   0  0  2  0  0  0  0  0  0  0  0  0
   -1.9310  -50.8809   10.5535 O   0  0  0  0  0  0  0  0  0  0  0  0
    0.5610  -50.4782   13.4032 C   0  0  1  0  0  0  0  0  0  0  0  0
    1.0083  -51.8450   13.3499 O   0  0  0  0  0  0  0  0  0  0  0  0
    1.5377  -44.4649   12.2260 C   0  0  1  0  0  0  0  0  0  0  0  0
    1.4018  -43.6784   13.4165 O   0  0  0  0  0  0  0  0  0  0  0  0
   -8.8045  -51.9042    6.8612 C   0  0  2  0  0  0  0  0  0  0  0  0
   -9.0094  -52.6424    8.0617 O   0  0  0  0  0  0  0  0  0  0  0  0
   -4.6907  -50.9094    5.1285 C   0  0  2  0  0  0  0  0  0  0  0  0
   -1.3579  -52.0391    8.5960 C   0  0  2  0  0  0  0  0  0  0  0  0
   -2.2427  -52.0843    7.4858 O   0  0  0  0  0  0  0  0  0  0  0  0
    1.6809  -49.5983   12.6376 C   0  0  2  0  0  0  0  0  0  0  0  0
    1.2016  -48.2436   12.7311 O   0  0  0  0  0  0  0  0  0  0  0  0
    2.9764  -44.3020   11.6835 C   0  0  2  0  0  0  0  0  0  0  0  0
    2.8875  -43.3228   10.6253 O   0  0  0  0  0  0  0  0  0  0  0  0
   -7.6526  -52.5448    6.0351 C   0  0  2  0  0  0  0  0  0  0  0  0
   -7.4839  -51.7600    4.7920 O   0  0  0  0  0  0  0  0  0  0  0  0
   -4.6040  -52.3630    5.6857 C   0  0  2  0  0  0  0  0  0  0  0  0
   -4.5421  -52.2731    7.1294 O   0  0  0  0  0  0  0  0  0  0  0  0
   -0.4568  -53.2677    8.5409 C   0  0  0  0  0  0  0  0  0  0  0  0
   -1.3150  -54.4156    8.4582 O   0  0  0  0  0  0  0  0  0  0  0  0
    1.6203  -50.0329   11.1854 C   0  0  1  0  0  0  0  0  0  0  0  0
    0.4041  -50.1798   10.4228 O   0  0  0  0  0  0  0  0  0  0  0  0
    3.5456  -45.6430   11.2282 C   0  0  2  0  0  0  0  0  0  0  0  0
    3.4422  -46.7129   12.2080 O   0  0  0  0  0  0  0  0  0  0  0  0
   -7.9535  -53.9593    5.6535 C   0  0  0  0  0  0  0  0  0  0  0  0
   -9.0845  -53.9540    4.8249 O   0  0  0  0  0  0  0  0  0  0  0  0
   -3.3382  -53.0908    5.1021 C   0  0  1  0  0  0  0  0  0  0  0  0
   -3.3182  -54.4707    5.6070 O   0  0  0  0  0  0  0  0  0  0  0  0
    2.6172  -49.2470   10.2619 C   0  0  0  0  0  0  0  0  0  0  0  0
    3.9451  -49.8945   10.1333 N   0  0  0  0  0  0  0  0  0  0  0  0
    4.9566  -45.7710   10.6583 C   0  0  0  0  0  0  0  0  0  0  0  0
    4.9165  -45.7740    9.1978 O   0  0  0  0  0  0  0  0  0  0  0  0
  1  2  1  1  0  0  0
  1  8  1  0  0  0  0
  1 36  1  0  0  0  0
  3  4  1  6  0  0  0
  3 10  1  0  0  0  0
  3 47  1  0  0  0  0
  5 11  1  0  0  0  0
  5 30  1  0  0  0  0
  5 38  1  6  0  0  0
  6 21  1  6  0  0  0
  6 42  1  0  0  0  0
  7 15  1  0  0  0  0
  7 44  1  0  0  0  0
  7 32  1  6  0  0  0
  8  9  1  1  0  0  0
  8 17  1  0  0  0  0
 11 12  1  1  0  0  0
 11 20  1  0  0  0  0
 13  6  1  0  0  0  0
 13 14  1  6  0  0  0
 15 16  1  1  0  0  0
 15 24  1  0  0  0  0
 17 26  1  0  0  0  0
 18 10  1  0  0  0  0
 18 19  1  1  0  0  0
 20 21  1  1  0  0  0
 20 29  1  0  0  0  0
 22 13  1  0  0  0  0
 22 23  1  6  0  0  0
 24 25  1  1  0  0  0
 24 33  1  0  0  0  0
 26 27  1  1  0  0  0
 26 35  1  0  0  0  0
 28  2  1  1  0  0  0
 28 18  1  0  0  0  0
 29 30  1  0  0  0  0
 29 39  1  1  0  0  0
 31 22  1  0  0  0  0
 31 32  1  6  0  0  0
 31 41  1  0  0  0  0
 33 34  1  6  0  0  0
 33 43  1  0  0  0  0
 35 36  1  0  0  0  0
 35 45  1  6  0  0  0
 37 28  1  0  0  0  0
 37 38  1  1  0  0  0
 39 40  1  0  0  0  0
 41 42  1  0  0  0  0
 41 49  1  6  0  0  0
 43 44  1  0  0  0  0
 43 51  1  1  0  0  0
 45 46  1  0  0  0  0
 47 37  1  0  0  0  0
 47 48  1  1  0  0  0
 49 50  1  0  0  0  0
 51 52  1  0  0  0  0
M  END
>  <CHROM.1>
171.99794786,-174.95416719,-135.93118426,164.49777410,175.01539477,39.67586379
60.12954398,141.19899852,62.89294381,-58.96728360,90.96759686,-97.62918643
-2.08601899,-50.08648233,8.72004475,2.50253906,0.45540438,-2.79125139

>  <Name>
2fd0_lig

>  <RI>
0

>  <Rbt.Current_Directory>
/home/itssahil/PROJECTS/Mol_Feturizer/New_Systems/rnas/2fd0

>  <Rbt.Executable>
rbdock ($Id: //depot/dev/client3/rdock/2013.1/src/exe/rbdock.cxx#4 $)

>  <Rbt.Library>
libRbt.so (2013.1, Build901 2013/11/27)

>  <Rbt.Parameter_File>
/export/apps/rDock/src/rDock_2013.1_src/data/scripts/dock_solv.prm

>  <Rbt.Receptor>
prm/pocket_docking_5.prm

>  <SCORE>
-9.00528

>  <SCORE.INTER>
-7.12286

>  <SCORE.INTER.CONST>
1

>  <SCORE.INTER.POLAR>
-1.87422

>  <SCORE.INTER.ROT>
12

>  <SCORE.INTER.SOLV>
10.9545

>  <SCORE.INTER.VDW>
-13.7527

>  <SCORE.INTER.norm>
-0.136978

>  <SCORE.INTRA>
-1.88242

>  <SCORE.INTRA.DIHEDRAL>
-2.99712

>  <SCORE.INTRA.DIHEDRAL.0>
23.9727

>  <SCORE.INTRA.POLAR>
0

>  <SCORE.INTRA.POLAR.0>
0

>  <SCORE.INTRA.REPUL>
0

>  <SCORE.INTRA.REPUL.0>
0

>  <SCORE.INTRA.SOLV>
-2.82706

>  <SCORE.INTRA.SOLV.lig_0>
-115.028

>  <SCORE.INTRA.VDW>
1.02967

>  <SCORE.INTRA.VDW.0>
-6.82393

>  <SCORE.INTRA.norm>
-0.0362004

>  <SCORE.RESTR>
0

>  <SCORE.RESTR.CAVITY>
0

>  <SCORE.RESTR.norm>
0

>  <SCORE.SYSTEM>
0

>  <SCORE.SYSTEM.CONST>
0

>  <SCORE.SYSTEM.DIHEDRAL>
0

>  <SCORE.SYSTEM.SOLV>
0

>  <SCORE.SYSTEM.norm>
0

>  <SCORE.heavy>
52

>  <SCORE.norm>
-0.173178

>  <RMSD>
12.498

$$$$
2fd0_lig
 OpenBabel11021811433D
libRbt.so/2013.1/901 2013/11/27
 52 56  0  0  0  0  0  0  0  0999 V2000
   -6.8647  -48.7230    5.3304 C   0  0  2  0  0  0  0  0  0  0  0  0
   -5.5167  -48.7492    5.8196 O   0  0  0  0  0  0  0  0  0  0  0  0
   -3.7040  -51.9515    3.5062 C   0  0  2  0  0  0  0  0  0  0  0  0
   -2.7091  -52.8846    2.9525 N   0  0  0  0  0  0  0  0  0  0  0  0
   -3.9372  -50.7844    7.9516 C   0  0  1  0  0  0  0  0  0  0  0  0
   -1.4996  -51.4017   11.7834 C   0  0  1  0  0  0  0  0  0  0  0  0
    2.5635  -49.0217   13.5602 C   0  0  1  0  0  0  0  0  0  0  0  0
   -7.6146  -47.5121    5.9958 C   0  0  2  0  0  0  0  0  0  0  0  0
   -6.9370  -46.2484    5.7415 N   0  0  0  0  0  0  0  0  0  0  0  0
   -3.2703  -50.4474    3.2187 C   0  0  0  0  0  0  0  0  0  0  0  0
   -4.1542  -51.4349    9.3056 C   0  0  2  0  0  0  0  0  0  0  0  0
   -4.9583  -50.6073   10.1925 O   0  0  0  0  0  0  0  0  0  0  0  0
   -1.1407  -50.2098   12.7884 C   0  0  2  0  0  0  0  0  0  0  0  0
   -0.6121  -49.0372   12.0395 N   0  0  0  0  0  0  0  0  0  0  0  0
    3.5530  -49.9806   14.2595 C   0  0  1  0  0  0  0  0  0  0  0  0
    4.5554  -50.4047   13.3029 O   0  0  0  0  0  0  0  0  0  0  0  0
   -7.7996  -47.7631    7.5382 C   0  0  0  0  0  0  0  0  0  0  0  0
   -4.3606  -49.4336    3.8127 C   0  0  2  0  0  0  0  0  0  0  0  0
   -3.9819  -48.0351    3.5624 N   0  0  0  0  0  0  0  0  0  0  0  0
   -2.7385  -51.7320    9.7707 C   0  0  2  0  0  0  0  0  0  0  0  0
   -2.3479  -50.8724   10.8067 O   0  0  0  0  0  0  0  0  0  0  0  0
   -0.1579  -50.8134   13.9201 C   0  0  1  0  0  0  0  0  0  0  0  0
   -0.8291  -51.9221   14.5457 O   0  0  0  0  0  0  0  0  0  0  0  0
    4.2851  -49.4553   15.5241 C   0  0  1  0  0  0  0  0  0  0  0  0
    5.5387  -48.8981   15.1090 O   0  0  0  0  0  0  0  0  0  0  0  0
   -8.5391  -49.1267    7.7343 C   0  0  2  0  0  0  0  0  0  0  0  0
   -8.7427  -49.3828    9.1204 O   0  0  0  0  0  0  0  0  0  0  0  0
   -4.5086  -49.6823    5.3398 C   0  0  2  0  0  0  0  0  0  0  0  0
   -1.7625  -51.4372    8.6067 C   0  0  2  0  0  0  0  0  0  0  0  0
   -2.6445  -51.1769    7.5242 O   0  0  0  0  0  0  0  0  0  0  0  0
    1.2056  -51.4030   13.2816 C   0  0  2  0  0  0  0  0  0  0  0  0
    1.8483  -50.2608   12.6851 O   0  0  0  0  0  0  0  0  0  0  0  0
    3.5247  -48.4011   16.3613 C   0  0  2  0  0  0  0  0  0  0  0  0
    3.7583  -48.7548   17.7422 O   0  0  0  0  0  0  0  0  0  0  0  0
   -7.6935  -50.2694    7.1029 C   0  0  2  0  0  0  0  0  0  0  0  0
   -7.5198  -49.9741    5.6634 O   0  0  0  0  0  0  0  0  0  0  0  0
   -4.8771  -51.1590    5.6780 C   0  0  2  0  0  0  0  0  0  0  0  0
   -4.9417  -51.2726    7.1199 O   0  0  0  0  0  0  0  0  0  0  0  0
   -0.8530  -52.5966    8.2157 C   0  0  0  0  0  0  0  0  0  0  0  0
   -1.6940  -53.6277    7.6764 O   0  0  0  0  0  0  0  0  0  0  0  0
    0.7660  -52.3427   12.1747 C   0  0  1  0  0  0  0  0  0  0  0  0
   -0.2299  -52.0287   11.1789 O   0  0  0  0  0  0  0  0  0  0  0  0
    2.0466  -48.3625   15.9826 C   0  0  2  0  0  0  0  0  0  0  0  0
    1.7861  -48.2296   14.5579 O   0  0  0  0  0  0  0  0  0  0  0  0
   -8.3654  -51.6001    7.2257 C   0  0  0  0  0  0  0  0  0  0  0  0
   -8.4188  -51.9352    8.5860 O   0  0  0  0  0  0  0  0  0  0  0  0
   -3.8032  -52.1359    5.0738 C   0  0  1  0  0  0  0  0  0  0  0  0
   -4.2102  -53.5171    5.3672 O   0  0  0  0  0  0  0  0  0  0  0  0
    1.9674  -52.9869   11.3962 C   0  0  0  0  0  0  0  0  0  0  0  0
    1.5481  -53.8763   10.2860 N   0  0  0  0  0  0  0  0  0  0  0  0
    1.0657  -47.4011   16.6500 C   0  0  0  0  0  0  0  0  0  0  0  0
   -0.2904  -47.6378   16.1607 O   0  0  0  0  0  0  0  0  0  0  0  0
  1  2  1  1  0  0  0
  1  8  1  0  0  0  0
  1 36  1  0  0  0  0
  3  4  1  1  0  0  0
  3 10  1  0  0  0  0
  3 47  1  0  0  0  0
  5 11  1  0  0  0  0
  5 30  1  0  0  0  0
  5 38  1  6  0  0  0
  6 21  1  6  0  0  0
  6 42  1  0  0  0  0
  7 15  1  0  0  0  0
  7 44  1  0  0  0  0
  7 32  1  1  0  0  0
  8  9  1  1  0  0  0
  8 17  1  0  0  0  0
 11 12  1  1  0  0  0
 11 20  1  0  0  0  0
 13  6  1  0  0  0  0
 13 14  1  6  0  0  0
 15 16  1  6  0  0  0
 15 24  1  0  0  0  0
 17 26  1  0  0  0  0
 18 10  1  0  0  0  0
 18 19  1  1  0  0  0
 20 21  1  1  0  0  0
 20 29  1  0  0  0  0
 22 13  1  0  0  0  0
 22 23  1  6  0  0  0
 24 25  1  6  0  0  0
 24 33  1  0  0  0  0
 26 27  1  1  0  0  0
 26 35  1  0  0  0  0
 28  2  1  6  0  0  0
 28 18  1  0  0  0  0
 29 30  1  0  0  0  0
 29 39  1  6  0  0  0
 31 22  1  0  0  0  0
 31 32  1  6  0  0  0
 31 41  1  0  0  0  0
 33 34  1  1  0  0  0
 33 43  1  0  0  0  0
 35 36  1  0  0  0  0
 35 45  1  6  0  0  0
 37 28  1  0  0  0  0
 37 38  1  1  0  0  0
 39 40  1  0  0  0  0
 41 42  1  0  0  0  0
 41 49  1  6  0  0  0
 43 44  1  0  0  0  0
 43 51  1  1  0  0  0
 45 46  1  0  0  0  0
 47 37  1  0  0  0  0
 47 48  1  6  0  0  0
 49 50  1  0  0  0  0
 51 52  1  0  0  0  0
M  END
>  <CHROM.1>
-175.37224084,-163.80794396,176.77549010,59.30063649,145.97246453,59.42586149
66.29118119,71.35901367,-66.21774969,-48.48336934,-178.29650910,-176.33281851
-2.18546498,-50.37292031,9.79333561,2.42016035,0.41691601,-2.06330866

>  <Name>
2fd0_lig

>  <RI>
0

>  <Rbt.Current_Directory>
/home/itssahil/PROJECTS/Mol_Feturizer/New_Systems/rnas/2fd0

>  <Rbt.Executable>
rbdock ($Id: //depot/dev/client3/rdock/2013.1/src/exe/rbdock.cxx#4 $)

>  <Rbt.Library>
libRbt.so (2013.1, Build901 2013/11/27)

>  <Rbt.Parameter_File>
/export/apps/rDock/src/rDock_2013.1_src/data/scripts/dock_solv.prm

>  <Rbt.Receptor>
prm/pocket_docking_6.prm

>  <SCORE>
-14.0021

>  <SCORE.INTER>
-6.40201

>  <SCORE.INTER.CONST>
1

>  <SCORE.INTER.POLAR>
-0.34521

>  <SCORE.INTER.ROT>
12

>  <SCORE.INTER.SOLV>
9.51421

>  <SCORE.INTER.VDW>
-17.8887

>  <SCORE.INTER.norm>
-0.123116

>  <SCORE.INTRA>
-7.60006

>  <SCORE.INTRA.DIHEDRAL>
-15.0117

>  <SCORE.INTRA.DIHEDRAL.0>
23.9727

>  <SCORE.INTRA.POLAR>
0

>  <SCORE.INTRA.POLAR.0>
0

>  <SCORE.INTRA.REPUL>
0

>  <SCORE.INTRA.REPUL.0>
0

>  <SCORE.INTRA.SOLV>
-1.0126

>  <SCORE.INTRA.SOLV.lig_0>
-115.028

>  <SCORE.INTRA.VDW>
0.41211

>  <SCORE.INTRA.VDW.0>
-6.82393

>  <SCORE.INTRA.norm>
-0.146155

>  <SCORE.RESTR>
0

>  <SCORE.RESTR.CAVITY>
0

>  <SCORE.RESTR.norm>
0

>  <SCORE.SYSTEM>
0

>  <SCORE.SYSTEM.CONST>
0

>  <SCORE.SYSTEM.DIHEDRAL>
0

>  <SCORE.SYSTEM.SOLV>
0

>  <SCORE.SYSTEM.norm>
0

>  <SCORE.heavy>
52

>  <SCORE.norm>
-0.269271

>  <RMSD>
12.512

$$$$
2fd0_lig
 OpenBabel11021811433D
libRbt.so/2013.1/901 2013/11/27
 52 56  0  0  0  0  0  0  0  0999 V2000
   -3.0802  -48.4033    4.7694 C   0  0  2  0  0  0  0  0  0  0  0  0
   -2.4045  -49.5548    5.2933 O   0  0  0  0  0  0  0  0  0  0  0  0
    0.1573  -52.6423    3.6208 C   0  0  2  0  0  0  0  0  0  0  0  0
    1.2744  -53.3090    2.9319 N   0  0  0  0  0  0  0  0  0  0  0  0
    0.6031  -50.8779    7.8427 C   0  0  1  0  0  0  0  0  0  0  0  0
    2.0899  -49.5915   11.8307 C   0  0  1  0  0  0  0  0  0  0  0  0
    6.9877  -48.4470   13.5687 C   0  0  1  0  0  0  0  0  0  0  0  0
   -3.4687  -47.4632    5.9681 C   0  0  2  0  0  0  0  0  0  0  0  0
   -2.3053  -47.0789    6.7552 N   0  0  0  0  0  0  0  0  0  0  0  0
   -0.5665  -51.6206    2.6382 C   0  0  0  0  0  0  0  0  0  0  0  0
    0.8825  -49.7288    8.7941 C   0  0  2  0  0  0  0  0  0  0  0  0
    2.2265  -49.1941    8.6334 O   0  0  0  0  0  0  0  0  0  0  0  0
    3.1961  -48.6687   11.1349 C   0  0  2  0  0  0  0  0  0  0  0  0
    4.3074  -49.5009   10.5984 N   0  0  0  0  0  0  0  0  0  0  0  0
    6.7898  -48.9643   15.0113 C   0  0  1  0  0  0  0  0  0  0  0  0
    6.7783  -50.4133   14.9958 O   0  0  0  0  0  0  0  0  0  0  0  0
   -4.5678  -48.1448    6.8648 C   0  0  0  0  0  0  0  0  0  0  0  0
   -1.7893  -50.9041    3.3870 C   0  0  2  0  0  0  0  0  0  0  0  0
   -2.4743  -49.9517    2.5007 N   0  0  0  0  0  0  0  0  0  0  0  0
    0.5600  -50.3267   10.1532 C   0  0  2  0  0  0  0  0  0  0  0  0
    1.7233  -50.5657   10.8977 O   0  0  0  0  0  0  0  0  0  0  0  0
    3.6270  -47.5406   12.2085 C   0  0  1  0  0  0  0  0  0  0  0  0
    2.4404  -46.8300   12.6063 O   0  0  0  0  0  0  0  0  0  0  0  0
    7.8129  -48.5017   16.0838 C   0  0  1  0  0  0  0  0  0  0  0  0
    8.8492  -49.4889   16.1601 O   0  0  0  0  0  0  0  0  0  0  0  0
   -5.7854  -48.5202    5.9586 C   0  0  2  0  0  0  0  0  0  0  0  0
   -6.8126  -49.1249    6.7379 O   0  0  0  0  0  0  0  0  0  0  0  0
   -1.2546  -50.1707    4.6487 C   0  0  2  0  0  0  0  0  0  0  0  0
   -0.0819  -51.7188    9.9423 C   0  0  2  0  0  0  0  0  0  0  0  0
   -0.2581  -51.7661    8.5337 O   0  0  0  0  0  0  0  0  0  0  0  0
    4.2441  -48.1931   13.5530 C   0  0  2  0  0  0  0  0  0  0  0  0
    5.4324  -48.8755   13.1104 O   0  0  0  0  0  0  0  0  0  0  0  0
    8.4608  -47.1169   15.8527 C   0  0  2  0  0  0  0  0  0  0  0  0
    8.5067  -46.4846   17.1506 O   0  0  0  0  0  0  0  0  0  0  0  0
   -5.3186  -49.5006    4.8447 C   0  0  2  0  0  0  0  0  0  0  0  0
   -4.2661  -48.8295    4.0502 O   0  0  0  0  0  0  0  0  0  0  0  0
   -0.4854  -51.1194    5.6179 C   0  0  2  0  0  0  0  0  0  0  0  0
   -0.0029  -50.3164    6.7218 O   0  0  0  0  0  0  0  0  0  0  0  0
   -1.4430  -51.9102   10.6021 C   0  0  0  0  0  0  0  0  0  0  0  0
   -2.3042  -50.8784   10.0971 O   0  0  0  0  0  0  0  0  0  0  0  0
    3.2328  -49.2289   14.0065 C   0  0  1  0  0  0  0  0  0  0  0  0
    2.6137  -50.2047   13.1423 O   0  0  0  0  0  0  0  0  0  0  0  0
    7.6852  -46.3159   14.8104 C   0  0  2  0  0  0  0  0  0  0  0  0
    7.4313  -47.0222   13.5646 O   0  0  0  0  0  0  0  0  0  0  0  0
   -6.4331  -49.8717    3.9189 C   0  0  0  0  0  0  0  0  0  0  0  0
   -5.9260  -50.7666    2.9662 O   0  0  0  0  0  0  0  0  0  0  0  0
    0.6994  -51.8218    4.8594 C   0  0  1  0  0  0  0  0  0  0  0  0
    1.3671  -52.7446    5.7879 O   0  0  0  0  0  0  0  0  0  0  0  0
    3.6823  -50.0123   15.2905 C   0  0  0  0  0  0  0  0  0  0  0  0
    3.6961  -49.1821   16.5193 N   0  0  0  0  0  0  0  0  0  0  0  0
    8.1151  -44.9141   14.3837 C   0  0  0  0  0  0  0  0  0  0  0  0
    9.4298  -44.9572   13.7480 O   0  0  0  0  0  0  0  0  0  0  0  0
  1  2  1  1  0  0  0
  1  8  1  0  0  0  0
  1 36  1  0  0  0  0
  3  4  1  6  0  0  0
  3 10  1  0  0  0  0
  3 47  1  0  0  0  0
  5 11  1  0  0  0  0
  5 30  1  0  0  0  0
  5 38  1  6  0  0  0
  6 21  1  6  0  0  0
  6 42  1  0  0  0  0
  7 15  1  0  0  0  0
  7 44  1  0  0  0  0
  7 32  1  6  0  0  0
  8  9  1  1  0  0  0
  8 17  1  0  0  0  0
 11 12  1  1  0  0  0
 11 20  1  0  0  0  0
 13  6  1  0  0  0  0
 13 14  1  1  0  0  0
 15 16  1  6  0  0  0
 15 24  1  0  0  0  0
 17 26  1  0  0  0  0
 18 10  1  0  0  0  0
 18 19  1  6  0  0  0
 20 21  1  1  0  0  0
 20 29  1  0  0  0  0
 22 13  1  0  0  0  0
 22 23  1  1  0  0  0
 24 25  1  6  0  0  0
 24 33  1  0  0  0  0
 26 27  1  1  0  0  0
 26 35  1  0  0  0  0
 28  2  1  1  0  0  0
 28 18  1  0  0  0  0
 29 30  1  0  0  0  0
 29 39  1  1  0  0  0
 31 22  1  0  0  0  0
 31 32  1  6  0  0  0
 31 41  1  0  0  0  0
 33 34  1  1  0  0  0
 33 43  1  0  0  0  0
 35 36  1  0  0  0  0
 35 45  1  6  0  0  0
 37 28  1  0  0  0  0
 37 38  1  1  0  0  0
 39 40  1  0  0  0  0
 41 42  1  0  0  0  0
 41 49  1  1  0  0  0
 43 44  1  0  0  0  0
 43 51  1  6  0  0  0
 45 46  1  0  0  0  0
 47 37  1  0  0  0  0
 47 48  1  1  0  0  0
 49 50  1  0  0  0  0
 51 52  1  0  0  0  0
M  END
>  <CHROM.1>
-140.53726559,-176.55647142,-97.53008344,71.50909698,97.00865226,-72.69263078
56.79394132,114.90217014,-179.18302989,172.88726455,69.20689722,63.09865692
1.44113982,-49.40647548,9.56692687,2.37163301,0.24020173,-2.03235543

>  <Name>
2fd0_lig

>  <RI>
0

>  <Rbt.Current_Directory>
/home/itssahil/PROJECTS/Mol_Feturizer/New_Systems/rnas/2fd0

>  <Rbt.Executable>
rbdock ($Id: //depot/dev/client3/rdock/2013.1/src/exe/rbdock.cxx#4 $)

>  <Rbt.Library>
libRbt.so (2013.1, Build901 2013/11/27)

>  <Rbt.Parameter_File>
/export/apps/rDock/src/rDock_2013.1_src/data/scripts/dock_solv.prm

>  <Rbt.Receptor>
prm/pocket_docking_5.prm

>  <SCORE>
-7.08816

>  <SCORE.INTER>
-9.9614

>  <SCORE.INTER.CONST>
1

>  <SCORE.INTER.POLAR>
-1.66705

>  <SCORE.INTER.ROT>
12

>  <SCORE.INTER.SOLV>
14.8907

>  <SCORE.INTER.VDW>
-17.6477

>  <SCORE.INTER.norm>
-0.191565

>  <SCORE.INTRA>
2.87324

>  <SCORE.INTRA.DIHEDRAL>
1.51383

>  <SCORE.INTRA.DIHEDRAL.0>
23.9727

>  <SCORE.INTRA.POLAR>
0

>  <SCORE.INTRA.POLAR.0>
0

>  <SCORE.INTRA.REPUL>
0

>  <SCORE.INTRA.REPUL.0>
0

>  <SCORE.INTRA.SOLV>
1.28221

>  <SCORE.INTRA.SOLV.lig_0>
-115.028

>  <SCORE.INTRA.VDW>
1.47522

>  <SCORE.INTRA.VDW.0>
-6.82393

>  <SCORE.INTRA.norm>
0.0552546

>  <SCORE.RESTR>
0

>  <SCORE.RESTR.CAVITY>
0

>  <SCORE.RESTR.norm>
0

>  <SCORE.SYSTEM>
0

>  <SCORE.SYSTEM.CONST>
0

>  <SCORE.SYSTEM.DIHEDRAL>
0

>  <SCORE.SYSTEM.SOLV>
0

>  <SCORE.SYSTEM.norm>
0

>  <SCORE.heavy>
52

>  <SCORE.norm>
-0.136311

>  <RMSD>
12.521

$$$$
2fd0_lig
 OpenBabel11021811433D
libRbt.so/2013.1/901 2013/11/27
 52 56  0  0  0  0  0  0  0  0999 V2000
    3.4116  -47.9853   10.4911 C   0  0  2  0  0  0  0  0  0  0  0  0
    2.0920  -47.4327   10.3901 O   0  0  0  0  0  0  0  0  0  0  0  0
   -0.5117  -45.9636   13.5453 C   0  0  2  0  0  0  0  0  0  0  0  0
   -1.5149  -45.9199   14.6216 N   0  0  0  0  0  0  0  0  0  0  0  0
    3.6896  -47.6758   14.2334 C   0  0  1  0  0  0  0  0  0  0  0  0
    6.6686  -49.7664   17.0136 C   0  0  1  0  0  0  0  0  0  0  0  0
    6.0998  -52.7322   21.2778 C   0  0  1  0  0  0  0  0  0  0  0  0
    4.1510  -47.7679    9.1209 C   0  0  2  0  0  0  0  0  0  0  0  0
    4.1959  -46.3614    8.7459 N   0  0  0  0  0  0  0  0  0  0  0  0
   -1.1607  -46.5330   12.2083 C   0  0  0  0  0  0  0  0  0  0  0  0
    4.0580  -49.0531   14.7538 C   0  0  2  0  0  0  0  0  0  0  0  0
    3.1850  -49.4859   15.8348 O   0  0  0  0  0  0  0  0  0  0  0  0
    5.9000  -51.1355   17.3204 C   0  0  2  0  0  0  0  0  0  0  0  0
    4.7058  -50.8839   18.1723 N   0  0  0  0  0  0  0  0  0  0  0  0
    7.5636  -53.0431   21.6630 C   0  0  1  0  0  0  0  0  0  0  0  0
    8.0699  -51.9719   22.4974 O   0  0  0  0  0  0  0  0  0  0  0  0
    3.4838  -48.6405    7.9940 C   0  0  0  0  0  0  0  0  0  0  0  0
   -0.0694  -46.5692   11.0348 C   0  0  2  0  0  0  0  0  0  0  0  0
   -0.6435  -47.0946    9.7873 N   0  0  0  0  0  0  0  0  0  0  0  0
    5.5289  -48.9021   15.1033 C   0  0  2  0  0  0  0  0  0  0  0  0
    5.7264  -48.8760   16.4908 O   0  0  0  0  0  0  0  0  0  0  0  0
    6.9826  -52.1701   17.9276 C   0  0  1  0  0  0  0  0  0  0  0  0
    8.0530  -52.3025   16.9749 O   0  0  0  0  0  0  0  0  0  0  0  0
    7.8429  -54.3893   22.3846 C   0  0  1  0  0  0  0  0  0  0  0  0
    7.8062  -54.1490   23.7971 O   0  0  0  0  0  0  0  0  0  0  0  0
    3.4786  -50.1332    8.4594 C   0  0  2  0  0  0  0  0  0  0  0  0
    2.8978  -50.9608    7.4565 O   0  0  0  0  0  0  0  0  0  0  0  0
    1.1313  -47.4487   11.4827 C   0  0  2  0  0  0  0  0  0  0  0  0
    6.0199  -47.5253   14.5958 C   0  0  2  0  0  0  0  0  0  0  0  0
    4.9053  -47.0569   13.8503 O   0  0  0  0  0  0  0  0  0  0  0  0
    7.6482  -51.6136   19.2920 C   0  0  2  0  0  0  0  0  0  0  0  0
    6.5481  -51.5140   20.2159 O   0  0  0  0  0  0  0  0  0  0  0  0
    6.8789  -55.5516   22.0523 C   0  0  2  0  0  0  0  0  0  0  0  0
    7.7091  -56.7279   21.9359 O   0  0  0  0  0  0  0  0  0  0  0  0
    2.6720  -50.2596    9.7834 C   0  0  2  0  0  0  0  0  0  0  0  0
    3.3164  -49.3997   10.8007 O   0  0  0  0  0  0  0  0  0  0  0  0
    1.7674  -46.9652   12.8216 C   0  0  2  0  0  0  0  0  0  0  0  0
    2.8366  -47.8835   13.1525 O   0  0  0  0  0  0  0  0  0  0  0  0
    7.2304  -47.5712   13.6701 C   0  0  0  0  0  0  0  0  0  0  0  0
    7.6216  -46.2124   13.4213 O   0  0  0  0  0  0  0  0  0  0  0  0
    8.1353  -50.2138   18.9682 C   0  0  1  0  0  0  0  0  0  0  0  0
    7.3589  -49.2147   18.2745 O   0  0  0  0  0  0  0  0  0  0  0  0
    6.0687  -55.2492   20.7946 C   0  0  2  0  0  0  0  0  0  0  0  0
    5.3981  -53.9586   20.7976 O   0  0  0  0  0  0  0  0  0  0  0  0
    2.6591  -51.6623   10.3024 C   0  0  0  0  0  0  0  0  0  0  0  0
    3.9676  -51.9980   10.6778 O   0  0  0  0  0  0  0  0  0  0  0  0
    0.6770  -46.9235   13.9538 C   0  0  1  0  0  0  0  0  0  0  0  0
    1.2998  -46.4152   15.1840 O   0  0  0  0  0  0  0  0  0  0  0  0
    8.7798  -49.4826   20.1988 C   0  0  0  0  0  0  0  0  0  0  0  0
    9.3370  -48.1475   19.8724 N   0  0  0  0  0  0  0  0  0  0  0  0
    5.0313  -56.2266   20.2465 C   0  0  0  0  0  0  0  0  0  0  0  0
    5.6259  -57.5484   20.0622 O   0  0  0  0  0  0  0  0  0  0  0  0
  1  2  1  6  0  0  0
  1  8  1  0  0  0  0
  1 36  1  0  0  0  0
  3  4  1  1  0  0  0
  3 10  1  0  0  0  0
  3 47  1  0  0  0  0
  5 11  1  0  0  0  0
  5 30  1  0  0  0  0
  5 38  1  6  0  0  0
  6 21  1  1  0  0  0
  6 42  1  0  0  0  0
  7 15  1  0  0  0  0
  7 44  1  0  0  0  0
  7 32  1  6  0  0  0
  8  9  1  6  0  0  0
  8 17  1  0  0  0  0
 11 12  1  1  0  0  0
 11 20  1  0  0  0  0
 13  6  1  0  0  0  0
 13 14  1  1  0  0  0
 15 16  1  1  0  0  0
 15 24  1  0  0  0  0
 17 26  1  0  0  0  0
 18 10  1  0  0  0  0
 18 19  1  6  0  0  0
 20 21  1  1  0  0  0
 20 29  1  0  0  0  0
 22 13  1  0  0  0  0
 22 23  1  6  0  0  0
 24 25  1  1  0  0  0
 24 33  1  0  0  0  0
 26 27  1  6  0  0  0
 26 35  1  0  0  0  0
 28  2  1  6  0  0  0
 28 18  1  0  0  0  0
 29 30  1  0  0  0  0
 29 39  1  6  0  0  0
 31 22  1  0  0  0  0
 31 32  1  1  0  0  0
 31 41  1  0  0  0  0
 33 34  1  6  0  0  0
 33 43  1  0  0  0  0
 35 36  1  0  0  0  0
 35 45  1  1  0  0  0
 37 28  1  0  0  0  0
 37 38  1  1  0  0  0
 39 40  1  0  0  0  0
 41 42  1  0  0  0  0
 41 49  1  1  0  0  0
 43 44  1  0  0  0  0
 43 51  1  1  0  0  0
 45 46  1  0  0  0  0
 47 37  1  0  0  0  0
 47 48  1  1  0  0  0
 49 50  1  0  0  0  0
 51 52  1  0  0  0  0
M  END
>  <CHROM.1>
-179.48239475,147.45087066,-88.20343870,42.89391134,127.88514527,171.50773826
-174.03720053,92.41774109,66.38182541,174.36369154,176.31443005,-53.28247274
4.69000791,-50.04914697,15.52658584,2.75872754,-1.12882290,0.08786435

>  <Name>
2fd0_lig

>  <RI>
0

>  <Rbt.Current_Directory>
/home/itssahil/PROJECTS/Mol_Feturizer/New_Systems/rnas/2fd0

>  <Rbt.Executable>
rbdock ($Id: //depot/dev/client3/rdock/2013.1/src/exe/rbdock.cxx#4 $)

>  <Rbt.Library>
libRbt.so (2013.1, Build901 2013/11/27)

>  <Rbt.Parameter_File>
/export/apps/rDock/src/rDock_2013.1_src/data/scripts/dock_solv.prm

>  <Rbt.Receptor>
prm/pocket_docking_8.prm

>  <SCORE>
-8.0086

>  <SCORE.INTER>
-7.3773

>  <SCORE.INTER.CONST>
1

>  <SCORE.INTER.POLAR>
-1.26902

>  <SCORE.INTER.ROT>
12

>  <SCORE.INTER.SOLV>
19.8442

>  <SCORE.INTER.VDW>
-18.9029

>  <SCORE.INTER.norm>
-0.141871

>  <SCORE.INTRA>
-0.631308

>  <SCORE.INTRA.DIHEDRAL>
-1.96628

>  <SCORE.INTRA.DIHEDRAL.0>
23.9727

>  <SCORE.INTRA.POLAR>
0

>  <SCORE.INTRA.POLAR.0>
0

>  <SCORE.INTRA.REPUL>
0

>  <SCORE.INTRA.REPUL.0>
0

>  <SCORE.INTRA.SOLV>
-3.7716

>  <SCORE.INTRA.SOLV.lig_0>
-115.028

>  <SCORE.INTRA.VDW>
2.23763

>  <SCORE.INTRA.VDW.0>
-6.82393

>  <SCORE.INTRA.norm>
-0.0121405

>  <SCORE.RESTR>
0

>  <SCORE.RESTR.CAVITY>
0

>  <SCORE.RESTR.norm>
0

>  <SCORE.SYSTEM>
0

>  <SCORE.SYSTEM.CONST>
0

>  <SCORE.SYSTEM.DIHEDRAL>
0

>  <SCORE.SYSTEM.SOLV>
0

>  <SCORE.SYSTEM.norm>
0

>  <SCORE.heavy>
52

>  <SCORE.norm>
-0.154012

>  <RMSD>
12.531

$$$$
2fd0_lig
 OpenBabel11021811433D
libRbt.so/2013.1/901 2013/11/27
 52 56  0  0  0  0  0  0  0  0999 V2000
   -0.6699  -50.5968   10.8075 C   0  0  2  0  0  0  0  0  0  0  0  0
   -0.2700  -50.4656   12.1785 O   0  0  0  0  0  0  0  0  0  0  0  0
    1.0646  -46.3366   12.4285 C   0  0  2  0  0  0  0  0  0  0  0  0
    1.4885  -45.0358   12.9719 N   0  0  0  0  0  0  0  0  0  0  0  0
    2.8680  -50.0659   14.0997 C   0  0  1  0  0  0  0  0  0  0  0  0
    5.8929  -48.4881   16.9887 C   0  0  1  0  0  0  0  0  0  0  0  0
   10.5705  -50.4771   17.1711 C   0  0  1  0  0  0  0  0  0  0  0  0
   -0.8757  -52.1228   10.4905 C   0  0  2  0  0  0  0  0  0  0  0  0
   -1.8483  -52.7361   11.3842 N   0  0  0  0  0  0  0  0  0  0  0  0
   -0.3823  -46.7168   12.9715 C   0  0  0  0  0  0  0  0  0  0  0  0
    4.1263  -49.2409   14.2984 C   0  0  2  0  0  0  0  0  0  0  0  0
    5.3364  -50.0341   14.1415 O   0  0  0  0  0  0  0  0  0  0  0  0
    7.0427  -48.9144   15.9613 C   0  0  2  0  0  0  0  0  0  0  0  0
    7.1830  -50.3956   15.9206 N   0  0  0  0  0  0  0  0  0  0  0  0
   10.0806  -51.9340   17.3299 C   0  0  1  0  0  0  0  0  0  0  0  0
    9.0351  -52.1890   16.3594 O   0  0  0  0  0  0  0  0  0  0  0  0
    0.5020  -52.8821   10.5348 C   0  0  0  0  0  0  0  0  0  0  0  0
   -0.8464  -48.1281   12.3697 C   0  0  2  0  0  0  0  0  0  0  0  0
   -2.1810  -48.5045   12.8585 N   0  0  0  0  0  0  0  0  0  0  0  0
    3.9104  -48.6158   15.6663 C   0  0  2  0  0  0  0  0  0  0  0  0
    4.7422  -49.1975   16.6331 O   0  0  0  0  0  0  0  0  0  0  0  0
    8.3778  -48.0998   16.3672 C   0  0  1  0  0  0  0  0  0  0  0  0
    8.0654  -46.6952   16.3434 O   0  0  0  0  0  0  0  0  0  0  0  0
   11.1399  -53.0624   17.2051 C   0  0  1  0  0  0  0  0  0  0  0  0
   11.1576  -53.5024   15.8411 O   0  0  0  0  0  0  0  0  0  0  0  0
    1.4894  -52.1773    9.5484 C   0  0  2  0  0  0  0  0  0  0  0  0
    2.7460  -52.8474    9.5453 O   0  0  0  0  0  0  0  0  0  0  0  0
    0.1927  -49.2154   12.7616 C   0  0  2  0  0  0  0  0  0  0  0  0
    2.4673  -48.9260   16.1306 C   0  0  2  0  0  0  0  0  0  0  0  0
    1.8952  -49.5256   14.9770 O   0  0  0  0  0  0  0  0  0  0  0  0
    8.8553  -48.4386   17.8744 C   0  0  2  0  0  0  0  0  0  0  0  0
    9.1721  -49.8430   17.8456 O   0  0  0  0  0  0  0  0  0  0  0  0
   12.5805  -52.6924   17.6273 C   0  0  2  0  0  0  0  0  0  0  0  0
   13.0820  -53.8362   18.3529 O   0  0  0  0  0  0  0  0  0  0  0  0
    1.6804  -50.6947    9.9786 C   0  0  2  0  0  0  0  0  0  0  0  0
    0.3575  -50.0322    9.9525 O   0  0  0  0  0  0  0  0  0  0  0  0
    1.6398  -48.8613   12.3016 C   0  0  2  0  0  0  0  0  0  0  0  0
    2.5142  -49.9198   12.7608 O   0  0  0  0  0  0  0  0  0  0  0  0
    1.6309  -47.7064   16.5014 C   0  0  0  0  0  0  0  0  0  0  0  0
    0.3733  -48.1928   16.9944 O   0  0  0  0  0  0  0  0  0  0  0  0
    7.6304  -48.2375   18.7466 C   0  0  1  0  0  0  0  0  0  0  0  0
    6.3157  -48.7504   18.4458 O   0  0  0  0  0  0  0  0  0  0  0  0
   12.5991  -51.3991   18.4378 C   0  0  2  0  0  0  0  0  0  0  0  0
   11.9002  -50.2831   17.8202 O   0  0  0  0  0  0  0  0  0  0  0  0
    2.5893  -49.9526    9.0512 C   0  0  0  0  0  0  0  0  0  0  0  0
    3.9106  -50.2919    9.3750 O   0  0  0  0  0  0  0  0  0  0  0  0
    2.0683  -47.4679   12.8910 C   0  0  1  0  0  0  0  0  0  0  0  0
    3.4134  -47.1445   12.3953 O   0  0  0  0  0  0  0  0  0  0  0  0
    7.8871  -48.5671   20.2598 C   0  0  0  0  0  0  0  0  0  0  0  0
    8.2870  -49.9744   20.5024 N   0  0  0  0  0  0  0  0  0  0  0  0
   13.8972  -50.7986   18.9727 C   0  0  0  0  0  0  0  0  0  0  0  0
   14.8790  -50.6715   17.8983 O   0  0  0  0  0  0  0  0  0  0  0  0
  1  2  1  1  0  0  0
  1  8  1  0  0  0  0
  1 36  1  0  0  0  0
  3  4  1  1  0  0  0
  3 10  1  0  0  0  0
  3 47  1  0  0  0  0
  5 11  1  0  0  0  0
  5 30  1  0  0  0  0
  5 38  1  6  0  0  0
  6 21  1  6  0  0  0
  6 42  1  0  0  0  0
  7 15  1  0  0  0  0
  7 44  1  0  0  0  0
  7 32  1  1  0  0  0
  8  9  1  1  0  0  0
  8 17  1  0  0  0  0
 11 12  1  1  0  0  0
 11 20  1  0  0  0  0
 13  6  1  0  0  0  0
 13 14  1  1  0  0  0
 15 16  1  6  0  0  0
 15 24  1  0  0  0  0
 17 26  1  0  0  0  0
 18 10  1  0  0  0  0
 18 19  1  1  0  0  0
 20 21  1  1  0  0  0
 20 29  1  0  0  0  0
 22 13  1  0  0  0  0
 22 23  1  1  0  0  0
 24 25  1  6  0  0  0
 24 33  1  0  0  0  0
 26 27  1  1  0  0  0
 26 35  1  0  0  0  0
 28  2  1  6  0  0  0
 28 18  1  0  0  0  0
 29 30  1  0  0  0  0
 29 39  1  6  0  0  0
 31 22  1  0  0  0  0
 31 32  1  6  0  0  0
 31 41  1  0  0  0  0
 33 34  1  1  0  0  0
 33 43  1  0  0  0  0
 35 36  1  0  0  0  0
 35 45  1  6  0  0  0
 37 28  1  0  0  0  0
 37 38  1  1  0  0  0
 39 40  1  0  0  0  0
 41 42  1  0  0  0  0
 41 49  1  1  0  0  0
 43 44  1  0  0  0  0
 43 51  1  6  0  0  0
 45 46  1  0  0  0  0
 47 37  1  0  0  0  0
 47 48  1  6  0  0  0
 49 50  1  0  0  0  0
 51 52  1  0  0  0  0
M  END
>  <CHROM.1>
170.81770705,-89.66352526,-87.39404690,-172.03671030,100.76493446,49.28075608
-175.88583316,76.30356226,-79.04704513,-73.20731707,-61.04295259,51.71085024
5.08097668,-49.84469526,14.76380539,-2.82570802,-0.44740516,0.83687024

>  <Name>
2fd0_lig

>  <RI>
0

>  <Rbt.Current_Directory>
/home/itssahil/PROJECTS/Mol_Feturizer/New_Systems/rnas/2fd0

>  <Rbt.Executable>
rbdock ($Id: //depot/dev/client3/rdock/2013.1/src/exe/rbdock.cxx#4 $)

>  <Rbt.Library>
libRbt.so (2013.1, Build901 2013/11/27)

>  <Rbt.Parameter_File>
/export/apps/rDock/src/rDock_2013.1_src/data/scripts/dock_solv.prm

>  <Rbt.Receptor>
prm/pocket_docking_8.prm

>  <SCORE>
-14.38

>  <SCORE.INTER>
-13.9537

>  <SCORE.INTER.CONST>
1

>  <SCORE.INTER.POLAR>
-1.79297

>  <SCORE.INTER.ROT>
12

>  <SCORE.INTER.SOLV>
11.8655

>  <SCORE.INTER.VDW>
-18.8811

>  <SCORE.INTER.norm>
-0.268341

>  <SCORE.INTRA>
-0.426333

>  <SCORE.INTRA.DIHEDRAL>
-5.46856

>  <SCORE.INTRA.DIHEDRAL.0>
23.9727

>  <SCORE.INTRA.POLAR>
0

>  <SCORE.INTRA.POLAR.0>
0

>  <SCORE.INTRA.REPUL>
0.00358735

>  <SCORE.INTRA.REPUL.0>
0

>  <SCORE.INTRA.SOLV>
1.96429

>  <SCORE.INTRA.SOLV.lig_0>
-115.028

>  <SCORE.INTRA.VDW>
1.30787

>  <SCORE.INTRA.VDW.0>
-6.82393

>  <SCORE.INTRA.norm>
-0.00819871

>  <SCORE.RESTR>
0

>  <SCORE.RESTR.CAVITY>
0

>  <SCORE.RESTR.norm>
0

>  <SCORE.SYSTEM>
0

>  <SCORE.SYSTEM.CONST>
0

>  <SCORE.SYSTEM.DIHEDRAL>
0

>  <SCORE.SYSTEM.SOLV>
0

>  <SCORE.SYSTEM.norm>
0

>  <SCORE.heavy>
52

>  <SCORE.norm>
-0.276539

>  <RMSD>
12.542

$$$$
2fd0_lig
 OpenBabel11021811433D
libRbt.so/2013.1/901 2013/11/27
 52 56  0  0  0  0  0  0  0  0999 V2000
    2.1152  -51.5248    8.1779 C   0  0  2  0  0  0  0  0  0  0  0  0
    2.9328  -51.1427    9.2926 O   0  0  0  0  0  0  0  0  0  0  0  0
    0.0910  -50.9907   12.5780 C   0  0  2  0  0  0  0  0  0  0  0  0
   -0.4732  -50.8815   13.9332 N   0  0  0  0  0  0  0  0  0  0  0  0
    3.3770  -48.2112   11.0959 C   0  0  1  0  0  0  0  0  0  0  0  0
    6.0038  -44.7138   11.4128 C   0  0  1  0  0  0  0  0  0  0  0  0
    9.2384  -41.6666   13.7559 C   0  0  1  0  0  0  0  0  0  0  0  0
    3.0204  -51.5944    6.8945 C   0  0  2  0  0  0  0  0  0  0  0  0
    4.1377  -52.5122    7.0677 N   0  0  0  0  0  0  0  0  0  0  0  0
    1.1293  -52.1949   12.5075 C   0  0  0  0  0  0  0  0  0  0  0  0
    3.6972  -46.7908   10.6675 C   0  0  2  0  0  0  0  0  0  0  0  0
    4.6277  -46.7486    9.5493 O   0  0  0  0  0  0  0  0  0  0  0  0
    7.5710  -44.6152   11.7185 C   0  0  2  0  0  0  0  0  0  0  0  0
    7.8340  -44.8245   13.1684 N   0  0  0  0  0  0  0  0  0  0  0  0
    8.8120  -41.8743   15.2265 C   0  0  1  0  0  0  0  0  0  0  0  0
    8.6128  -43.2897   15.4649 O   0  0  0  0  0  0  0  0  0  0  0  0
    3.5172  -50.1553    6.4960 C   0  0  0  0  0  0  0  0  0  0  0  0
    1.7339  -52.3188   11.0282 C   0  0  2  0  0  0  0  0  0  0  0  0
    2.6995  -53.4239   10.9365 N   0  0  0  0  0  0  0  0  0  0  0  0
    4.1744  -46.1460   11.9579 C   0  0  2  0  0  0  0  0  0  0  0  0
    5.5591  -45.9290   11.9414 O   0  0  0  0  0  0  0  0  0  0  0  0
    8.0927  -43.2112   11.1121 C   0  0  1  0  0  0  0  0  0  0  0  0
    7.7688  -43.1853    9.7102 O   0  0  0  0  0  0  0  0  0  0  0  0
    9.7584  -41.3280   16.3296 C   0  0  1  0  0  0  0  0  0  0  0  0
   10.6411  -42.3880   16.7186 O   0  0  0  0  0  0  0  0  0  0  0  0
    2.2691  -49.2305    6.3183 C   0  0  2  0  0  0  0  0  0  0  0  0
    2.6762  -47.9197    5.9385 O   0  0  0  0  0  0  0  0  0  0  0  0
    2.4184  -50.9775   10.6436 C   0  0  2  0  0  0  0  0  0  0  0  0
    3.9305  -47.1329   13.1245 C   0  0  2  0  0  0  0  0  0  0  0  0
    3.1885  -48.1705   12.4997 O   0  0  0  0  0  0  0  0  0  0  0  0
    7.3371  -41.9481   11.7815 C   0  0  2  0  0  0  0  0  0  0  0  0
    7.7026  -42.0049   13.1732 O   0  0  0  0  0  0  0  0  0  0  0  0
   10.6038  -40.0908   15.9486 C   0  0  2  0  0  0  0  0  0  0  0  0
   10.5844  -39.2307   17.1089 O   0  0  0  0  0  0  0  0  0  0  0  0
    1.4738  -49.1723    7.6539 C   0  0  2  0  0  0  0  0  0  0  0  0
    1.0564  -50.5483    8.0031 O   0  0  0  0  0  0  0  0  0  0  0  0
    1.4560  -49.7556   10.7525 C   0  0  2  0  0  0  0  0  0  0  0  0
    2.2165  -48.5707   10.4153 O   0  0  0  0  0  0  0  0  0  0  0  0
    3.1017  -46.5788   14.2779 C   0  0  0  0  0  0  0  0  0  0  0  0
    3.8301  -45.4689   14.8244 O   0  0  0  0  0  0  0  0  0  0  0  0
    5.8547  -42.2462   11.6589 C   0  0  1  0  0  0  0  0  0  0  0  0
    5.2411  -43.5087   11.9931 O   0  0  0  0  0  0  0  0  0  0  0  0
   10.0631  -39.4250   14.6861 C   0  0  2  0  0  0  0  0  0  0  0  0
    9.8622  -40.3249   13.5612 O   0  0  0  0  0  0  0  0  0  0  0  0
    0.2437  -48.3292    7.5398 C   0  0  0  0  0  0  0  0  0  0  0  0
   -0.4515  -48.4094    8.7546 O   0  0  0  0  0  0  0  0  0  0  0  0
    0.8641  -49.6620   12.2063 C   0  0  1  0  0  0  0  0  0  0  0  0
   -0.0754  -48.5332   12.2566 O   0  0  0  0  0  0  0  0  0  0  0  0
    4.9455  -41.1401   12.3025 C   0  0  0  0  0  0  0  0  0  0  0  0
    3.5170  -41.5264   12.3991 N   0  0  0  0  0  0  0  0  0  0  0  0
   10.7184  -38.1852   14.0817 C   0  0  0  0  0  0  0  0  0  0  0  0
   12.0158  -38.5269   13.5031 O   0  0  0  0  0  0  0  0  0  0  0  0
  1  2  1  1  0  0  0
  1  8  1  0  0  0  0
  1 36  1  0  0  0  0
  3  4  1  1  0  0  0
  3 10  1  0  0  0  0
  3 47  1  0  0  0  0
  5 11  1  0  0  0  0
  5 30  1  0  0  0  0
  5 38  1  6  0  0  0
  6 21  1  1  0  0  0
  6 42  1  0  0  0  0
  7 15  1  0  0  0  0
  7 44  1  0  0  0  0
  7 32  1  6  0  0  0
  8  9  1  1  0  0  0
  8 17  1  0  0  0  0
 11 12  1  6  0  0  0
 11 20  1  0  0  0  0
 13  6  1  0  0  0  0
 13 14  1  1  0  0  0
 15 16  1  1  0  0  0
 15 24  1  0  0  0  0
 17 26  1  0  0  0  0
 18 10  1  0  0  0  0
 18 19  1  1  0  0  0
 20 21  1  6  0  0  0
 20 29  1  0  0  0  0
 22 13  1  0  0  0  0
 22 23  1  6  0  0  0
 24 25  1  6  0  0  0
 24 33  1  0  0  0  0
 26 27  1  1  0  0  0
 26 35  1  0  0  0  0
 28  2  1  6  0  0  0
 28 18  1  0  0  0  0
 29 30  1  0  0  0  0
 29 39  1  1  0  0  0
 31 22  1  0  0  0  0
 31 32  1  1  0  0  0
 31 41  1  0  0  0  0
 33 34  1  1  0  0  0
 33 43  1  0  0  0  0
 35 36  1  0  0  0  0
 35 45  1  6  0  0  0
 37 28  1  0  0  0  0
 37 38  1  1  0  0  0
 39 40  1  0  0  0  0
 41 42  1  0  0  0  0
 41 49  1  1  0  0  0
 43 44  1  0  0  0  0
 43 51  1  6  0  0  0
 45 46  1  0  0  0  0
 47 37  1  0  0  0  0
 47 48  1  6  0  0  0
 49 50  1  0  0  0  0
 51 52  1  0  0  0  0
M  END
>  <CHROM.1>
179.81751642,-167.85816487,171.21697486,177.67292590,88.74182167,56.02162883
-61.70621295,70.55441161,176.02964965,-56.98608597,-170.00655079,69.90455398
4.89644640,-46.07187738,11.67159654,-2.70212170,0.87459287,1.49149502

>  <Name>
2fd0_lig

>  <RI>
0

>  <Rbt.Current_Directory>
/home/itssahil/PROJECTS/Mol_Feturizer/New_Systems/rnas/2fd0

>  <Rbt.Executable>
rbdock ($Id: //depot/dev/client3/rdock/2013.1/src/exe/rbdock.cxx#4 $)

>  <Rbt.Library>
libRbt.so (2013.1, Build901 2013/11/27)

>  <Rbt.Parameter_File>
/export/apps/rDock/src/rDock_2013.1_src/data/scripts/dock_solv.prm

>  <Rbt.Receptor>
prm/pocket_docking_8.prm

>  <SCORE>
-19.7497

>  <SCORE.INTER>
-11.049

>  <SCORE.INTER.CONST>
1

>  <SCORE.INTER.POLAR>
-1.10664

>  <SCORE.INTER.ROT>
12

>  <SCORE.INTER.SOLV>
16.5546

>  <SCORE.INTER.VDW>
-20.7954

>  <SCORE.INTER.norm>
-0.212481

>  <SCORE.INTRA>
-8.70964

>  <SCORE.INTRA.DIHEDRAL>
-16.5896

>  <SCORE.INTRA.DIHEDRAL.0>
23.9727

>  <SCORE.INTRA.POLAR>
0

>  <SCORE.INTRA.POLAR.0>
0

>  <SCORE.INTRA.REPUL>
0

>  <SCORE.INTRA.REPUL.0>
0

>  <SCORE.INTRA.SOLV>
-2.05955

>  <SCORE.INTRA.SOLV.lig_0>
-115.028

>  <SCORE.INTRA.VDW>
0.614931

>  <SCORE.INTRA.VDW.0>
-6.82393

>  <SCORE.INTRA.norm>
-0.167493

>  <SCORE.RESTR>
0.00894027

>  <SCORE.RESTR.CAVITY>
0.00894027

>  <SCORE.RESTR.norm>
0.000171928

>  <SCORE.SYSTEM>
0

>  <SCORE.SYSTEM.CONST>
0

>  <SCORE.SYSTEM.DIHEDRAL>
0

>  <SCORE.SYSTEM.SOLV>
0

>  <SCORE.SYSTEM.norm>
0

>  <SCORE.heavy>
52

>  <SCORE.norm>
-0.379802

>  <RMSD>
12.544

$$$$
2fd0_lig
 OpenBabel11021811433D
libRbt.so/2013.1/901 2013/11/27
 52 56  0  0  0  0  0  0  0  0999 V2000
   -3.1895  -48.0136    7.4015 C   0  0  2  0  0  0  0  0  0  0  0  0
   -3.8556  -49.1959    6.9372 O   0  0  0  0  0  0  0  0  0  0  0  0
   -2.8295  -53.3198    6.0247 C   0  0  2  0  0  0  0  0  0  0  0  0
   -2.1891  -54.4990    5.4195 N   0  0  0  0  0  0  0  0  0  0  0  0
   -0.5364  -50.7918    9.0093 C   0  0  1  0  0  0  0  0  0  0  0  0
    2.5470  -49.1403   11.6237 C   0  0  1  0  0  0  0  0  0  0  0  0
    6.2016  -49.1657   15.2672 C   0  0  1  0  0  0  0  0  0  0  0  0
   -4.2619  -47.0476    8.0247 C   0  0  2  0  0  0  0  0  0  0  0  0
   -5.0095  -47.6873    9.0983 N   0  0  0  0  0  0  0  0  0  0  0  0
   -3.5144  -52.4255    4.9004 C   0  0  0  0  0  0  0  0  0  0  0  0
    0.2301  -49.5794    9.5053 C   0  0  2  0  0  0  0  0  0  0  0  0
    1.4792  -49.3839    8.7844 O   0  0  0  0  0  0  0  0  0  0  0  0
    4.0028  -49.7824   11.7903 C   0  0  2  0  0  0  0  0  0  0  0  0
    3.9760  -50.8833   12.7917 N   0  0  0  0  0  0  0  0  0  0  0  0
    5.6435  -50.4924   15.8295 C   0  0  1  0  0  0  0  0  0  0  0  0
    5.5132  -51.4464   14.7466 O   0  0  0  0  0  0  0  0  0  0  0  0
   -5.2222  -46.4998    6.9048 C   0  0  0  0  0  0  0  0  0  0  0  0
   -4.2205  -51.1480    5.5629 C   0  0  2  0  0  0  0  0  0  0  0  0
   -4.8596  -50.3024    4.5439 N   0  0  0  0  0  0  0  0  0  0  0  0
    0.3540  -49.8423   10.9966 C   0  0  2  0  0  0  0  0  0  0  0  0
    1.6655  -50.1897   11.3490 O   0  0  0  0  0  0  0  0  0  0  0  0
    5.0280  -48.5752   12.1105 C   0  0  1  0  0  0  0  0  0  0  0  0
    4.9321  -47.6161   11.0419 O   0  0  0  0  0  0  0  0  0  0  0  0
    6.4368  -51.1723   16.9782 C   0  0  1  0  0  0  0  0  0  0  0  0
    7.3425  -52.1154   16.3913 O   0  0  0  0  0  0  0  0  0  0  0  0
   -4.3547  -45.8210    5.7951 C   0  0  2  0  0  0  0  0  0  0  0  0
   -5.1900  -45.2945    4.7689 O   0  0  0  0  0  0  0  0  0  0  0  0
   -3.1583  -50.3288    6.3479 C   0  0  2  0  0  0  0  0  0  0  0  0
   -0.5052  -51.0783   11.3548 C   0  0  2  0  0  0  0  0  0  0  0  0
   -1.1944  -51.3364   10.1400 O   0  0  0  0  0  0  0  0  0  0  0  0
    4.6309  -47.7917   13.4679 C   0  0  2  0  0  0  0  0  0  0  0  0
    4.7573  -48.7815   14.5062 O   0  0  0  0  0  0  0  0  0  0  0  0
    7.2346  -50.2270   17.9058 C   0  0  2  0  0  0  0  0  0  0  0  0
    7.0430  -50.7372   19.2435 O   0  0  0  0  0  0  0  0  0  0  0  0
   -3.3722  -46.8668    5.1944 C   0  0  2  0  0  0  0  0  0  0  0  0
   -2.5140  -47.3753    6.2873 O   0  0  0  0  0  0  0  0  0  0  0  0
   -2.4163  -51.1775    7.4250 C   0  0  2  0  0  0  0  0  0  0  0  0
   -1.4305  -50.3217    8.0509 O   0  0  0  0  0  0  0  0  0  0  0  0
   -1.5382  -50.8517   12.4530 C   0  0  0  0  0  0  0  0  0  0  0  0
   -0.8172  -50.4921   13.6412 O   0  0  0  0  0  0  0  0  0  0  0  0
    3.1646  -47.4325   13.3189 C   0  0  1  0  0  0  0  0  0  0  0  0
    2.1373  -48.3440   12.8762 O   0  0  0  0  0  0  0  0  0  0  0  0
    6.7820  -48.7795   17.7338 C   0  0  2  0  0  0  0  0  0  0  0  0
    6.7539  -48.3095   16.3576 O   0  0  0  0  0  0  0  0  0  0  0  0
   -2.4858  -46.2695    4.1481 C   0  0  0  0  0  0  0  0  0  0  0  0
   -3.2833  -45.9298    3.0461 O   0  0  0  0  0  0  0  0  0  0  0  0
   -1.7442  -52.4317    6.7559 C   0  0  1  0  0  0  0  0  0  0  0  0
   -1.1005  -53.2330    7.8061 O   0  0  0  0  0  0  0  0  0  0  0  0
    2.5769  -46.6962   14.5747 C   0  0  0  0  0  0  0  0  0  0  0  0
    3.0584  -45.3016   14.7257 N   0  0  0  0  0  0  0  0  0  0  0  0
    7.4134  -47.6354   18.5240 C   0  0  0  0  0  0  0  0  0  0  0  0
    8.8185  -47.4783   18.1560 O   0  0  0  0  0  0  0  0  0  0  0  0
  1  2  1  6  0  0  0
  1  8  1  0  0  0  0
  1 36  1  0  0  0  0
  3  4  1  6  0  0  0
  3 10  1  0  0  0  0
  3 47  1  0  0  0  0
  5 11  1  0  0  0  0
  5 30  1  0  0  0  0
  5 38  1  6  0  0  0
  6 21  1  1  0  0  0
  6 42  1  0  0  0  0
  7 15  1  0  0  0  0
  7 44  1  0  0  0  0
  7 32  1  1  0  0  0
  8  9  1  1  0  0  0
  8 17  1  0  0  0  0
 11 12  1  6  0  0  0
 11 20  1  0  0  0  0
 13  6  1  0  0  0  0
 13 14  1  1  0  0  0
 15 16  1  6  0  0  0
 15 24  1  0  0  0  0
 17 26  1  0  0  0  0
 18 10  1  0  0  0  0
 18 19  1  6  0  0  0
 20 21  1  6  0  0  0
 20 29  1  0  0  0  0
 22 13  1  0  0  0  0
 22 23  1  6  0  0  0
 24 25  1  6  0  0  0
 24 33  1  0  0  0  0
 26 27  1  6  0  0  0
 26 35  1  0  0  0  0
 28  2  1  1  0  0  0
 28 18  1  0  0  0  0
 29 30  1  0  0  0  0
 29 39  1  1  0  0  0
 31 22  1  0  0  0  0
 31 32  1  1  0  0  0
 31 41  1  0  0  0  0
 33 34  1  1  0  0  0
 33 43  1  0  0  0  0
 35 36  1  0  0  0  0
 35 45  1  6  0  0  0
 37 28  1  0  0  0  0
 37 38  1  6  0  0  0
 39 40  1  0  0  0  0
 41 42  1  0  0  0  0
 41 49  1  1  0  0  0
 43 44  1  0  0  0  0
 43 51  1  1  0  0  0
 45 46  1  0  0  0  0
 47 37  1  0  0  0  0
 47 48  1  1  0  0  0
 49 50  1  0  0  0  0
 51 52  1  0  0  0  0
M  END
>  <CHROM.1>
-177.59690082,-174.86361026,-172.14308289,-163.29327971,86.43875229,-161.24195172
-61.60421616,84.13263018,-67.65603716,-176.16166018,72.06205777,64.76472982
0.90309825,-49.34958456,10.75519862,3.11471210,0.81434884,-3.08186516

>  <Name>
2fd0_lig

>  <RI>
0

>  <Rbt.Current_Directory>
/home/itssahil/PROJECTS/Mol_Feturizer/New_Systems/rnas/2fd0

>  <Rbt.Executable>
rbdock ($Id: //depot/dev/client3/rdock/2013.1/src/exe/rbdock.cxx#4 $)

>  <Rbt.Library>
libRbt.so (2013.1, Build901 2013/11/27)

>  <Rbt.Parameter_File>
/export/apps/rDock/src/rDock_2013.1_src/data/scripts/dock_solv.prm

>  <Rbt.Receptor>
prm/pocket_docking_5.prm

>  <SCORE>
-13.2257

>  <SCORE.INTER>
-6.72611

>  <SCORE.INTER.CONST>
1

>  <SCORE.INTER.POLAR>
-0.94207

>  <SCORE.INTER.ROT>
12

>  <SCORE.INTER.SOLV>
14.8119

>  <SCORE.INTER.VDW>
-17.8812

>  <SCORE.INTER.norm>
-0.129348

>  <SCORE.INTRA>
-6.49955

>  <SCORE.INTRA.DIHEDRAL>
-12.9709

>  <SCORE.INTRA.DIHEDRAL.0>
23.9727

>  <SCORE.INTRA.POLAR>
0

>  <SCORE.INTRA.POLAR.0>
0

>  <SCORE.INTRA.REPUL>
0

>  <SCORE.INTRA.REPUL.0>
0

>  <SCORE.INTRA.SOLV>
-2.9854

>  <SCORE.INTRA.SOLV.lig_0>
-115.028

>  <SCORE.INTRA.VDW>
1.47861

>  <SCORE.INTRA.VDW.0>
-6.82393

>  <SCORE.INTRA.norm>
-0.124991

>  <SCORE.RESTR>
0

>  <SCORE.RESTR.CAVITY>
0

>  <SCORE.RESTR.norm>
0

>  <SCORE.SYSTEM>
0

>  <SCORE.SYSTEM.CONST>
0

>  <SCORE.SYSTEM.DIHEDRAL>
0

>  <SCORE.SYSTEM.SOLV>
0

>  <SCORE.SYSTEM.norm>
0

>  <SCORE.heavy>
52

>  <SCORE.norm>
-0.25434

>  <RMSD>
12.552

$$$$
2fd0_lig
 OpenBabel11021811433D
libRbt.so/2013.1/901 2013/11/27
 52 56  0  0  0  0  0  0  0  0999 V2000
   10.9186  -36.8131   15.3577 C   0  0  2  0  0  0  0  0  0  0  0  0
   11.3766  -38.1672   15.4743 O   0  0  0  0  0  0  0  0  0  0  0  0
   10.5930  -41.6014   18.0208 C   0  0  2  0  0  0  0  0  0  0  0  0
    9.8849  -42.6421   18.7841 N   0  0  0  0  0  0  0  0  0  0  0  0
    9.5373  -41.3942   13.7924 C   0  0  1  0  0  0  0  0  0  0  0  0
    6.1459  -42.6178   12.2508 C   0  0  1  0  0  0  0  0  0  0  0  0
    5.3690  -47.1771   14.3161 C   0  0  1  0  0  0  0  0  0  0  0  0
   11.0104  -36.3824   13.8486 C   0  0  2  0  0  0  0  0  0  0  0  0
   10.2492  -37.2725   12.9831 N   0  0  0  0  0  0  0  0  0  0  0  0
   10.1445  -40.1554   18.5115 C   0  0  0  0  0  0  0  0  0  0  0  0
    8.3454  -40.4717   13.9708 C   0  0  2  0  0  0  0  0  0  0  0  0
    7.6621  -40.6920   15.2368 O   0  0  0  0  0  0  0  0  0  0  0  0
    4.6115  -43.0231   12.4526 C   0  0  2  0  0  0  0  0  0  0  0  0
    4.2839  -43.1209   13.9012 N   0  0  0  0  0  0  0  0  0  0  0  0
    4.4891  -46.7884   15.5254 C   0  0  1  0  0  0  0  0  0  0  0  0
    3.0985  -47.0229   15.1922 O   0  0  0  0  0  0  0  0  0  0  0  0
   12.5147  -36.2906   13.3957 C   0  0  0  0  0  0  0  0  0  0  0  0
   10.9249  -39.0240   17.6867 C   0  0  2  0  0  0  0  0  0  0  0  0
   10.5262  -37.6765   18.1194 N   0  0  0  0  0  0  0  0  0  0  0  0
    7.5266  -40.7279   12.7168 C   0  0  2  0  0  0  0  0  0  0  0  0
    6.3661  -41.4602   13.0026 O   0  0  0  0  0  0  0  0  0  0  0  0
    4.3493  -44.3626   11.5878 C   0  0  1  0  0  0  0  0  0  0  0  0
    4.7047  -44.0854   10.2211 O   0  0  0  0  0  0  0  0  0  0  0  0
    4.7850  -47.4880   16.8796 C   0  0  1  0  0  0  0  0  0  0  0  0
    3.9369  -48.6393   16.9763 O   0  0  0  0  0  0  0  0  0  0  0  0
   13.2650  -35.3150   14.3599 C   0  0  2  0  0  0  0  0  0  0  0  0
   14.6295  -35.1899   13.9718 O   0  0  0  0  0  0  0  0  0  0  0  0
   10.6340  -39.2066   16.1709 C   0  0  2  0  0  0  0  0  0  0  0  0
    8.3500  -41.6255   11.7624 C   0  0  2  0  0  0  0  0  0  0  0  0
    9.6144  -41.6813   12.4070 O   0  0  0  0  0  0  0  0  0  0  0  0
    5.2926  -45.5845   12.0689 C   0  0  2  0  0  0  0  0  0  0  0  0
    4.8912  -45.8367   13.4286 O   0  0  0  0  0  0  0  0  0  0  0  0
    6.2491  -47.9274   17.1122 C   0  0  2  0  0  0  0  0  0  0  0  0
    6.5388  -47.6103   18.4913 O   0  0  0  0  0  0  0  0  0  0  0  0
   13.1755  -35.8557   15.8157 C   0  0  2  0  0  0  0  0  0  0  0  0
   11.7459  -35.9545   16.1846 O   0  0  0  0  0  0  0  0  0  0  0  0
   11.0033  -40.6300   15.6525 C   0  0  2  0  0  0  0  0  0  0  0  0
   10.6472  -40.6889   14.2504 O   0  0  0  0  0  0  0  0  0  0  0  0
    8.5517  -41.0637   10.3594 C   0  0  0  0  0  0  0  0  0  0  0  0
    9.4343  -41.9617    9.6695 O   0  0  0  0  0  0  0  0  0  0  0  0
    6.7054  -45.0320   12.0769 C   0  0  1  0  0  0  0  0  0  0  0  0
    7.0883  -43.7664   12.6546 O   0  0  0  0  0  0  0  0  0  0  0  0
    7.1893  -47.2494   16.1193 C   0  0  2  0  0  0  0  0  0  0  0  0
    6.7914  -47.3679   14.7253 O   0  0  0  0  0  0  0  0  0  0  0  0
   13.8456  -34.9460   16.7957 C   0  0  0  0  0  0  0  0  0  0  0  0
   13.1807  -33.7120   16.7671 O   0  0  0  0  0  0  0  0  0  0  0  0
   10.2384  -41.7233   16.4844 C   0  0  1  0  0  0  0  0  0  0  0  0
   10.6499  -43.0494   16.0033 O   0  0  0  0  0  0  0  0  0  0  0  0
    7.7740  -46.0720   12.5676 C   0  0  0  0  0  0  0  0  0  0  0  0
    9.1709  -45.5861   12.4582 N   0  0  0  0  0  0  0  0  0  0  0  0
    8.6932  -47.5140   16.1196 C   0  0  0  0  0  0  0  0  0  0  0  0
    9.3386  -46.7808   15.0331 O   0  0  0  0  0  0  0  0  0  0  0  0
  1  2  1  6  0  0  0
  1  8  1  0  0  0  0
  1 36  1  0  0  0  0
  3  4  1  1  0  0  0
  3 10  1  0  0  0  0
  3 47  1  0  0  0  0
  5 11  1  0  0  0  0
  5 30  1  0  0  0  0
  5 38  1  6  0  0  0
  6 21  1  1  0  0  0
  6 42  1  0  0  0  0
  7 15  1  0  0  0  0
  7 44  1  0  0  0  0
  7 32  1  6  0  0  0
  8  9  1  6  0  0  0
  8 17  1  0  0  0  0
 11 12  1  1  0  0  0
 11 20  1  0  0  0  0
 13  6  1  0  0  0  0
 13 14  1  1  0  0  0
 15 16  1  6  0  0  0
 15 24  1  0  0  0  0
 17 26  1  0  0  0  0
 18 10  1  0  0  0  0
 18 19  1  1  0  0  0
 20 21  1  1  0  0  0
 20 29  1  0  0  0  0
 22 13  1  0  0  0  0
 22 23  1  6  0  0  0
 24 25  1  6  0  0  0
 24 33  1  0  0  0  0
 26 27  1  6  0  0  0
 26 35  1  0  0  0  0
 28  2  1  6  0  0  0
 28 18  1  0  0  0  0
 29 30  1  0  0  0  0
 29 39  1  6  0  0  0
 31 22  1  0  0  0  0
 31 32  1  1  0  0  0
 31 41  1  0  0  0  0
 33 34  1  1  0  0  0
 33 43  1  0  0  0  0
 35 36  1  0  0  0  0
 35 45  1  1  0  0  0
 37 28  1  0  0  0  0
 37 38  1  6  0  0  0
 39 40  1  0  0  0  0
 41 42  1  0  0  0  0
 41 49  1  1  0  0  0
 43 44  1  0  0  0  0
 43 51  1  6  0  0  0
 45 46  1  0  0  0  0
 47 37  1  0  0  0  0
 47 48  1  6  0  0  0
 49 50  1  0  0  0  0
 51 52  1  0  0  0  0
M  END
>  <CHROM.1>
-130.11906549,83.27707799,-164.03730849,-175.92405663,-127.29437091,-80.63542044
174.59795517,169.03252239,61.96379261,-105.98886284,174.53819315,177.59352973
8.61727941,-42.01827507,14.60106150,-0.38947992,0.93180530,2.13313359

>  <Name>
2fd0_lig

>  <RI>
2.60878e+07

>  <Rbt.Current_Directory>
/home/itssahil/PROJECTS/Mol_Feturizer/New_Systems/rnas/2fd0

>  <Rbt.Executable>
rbdock ($Id: //depot/dev/client3/rdock/2013.1/src/exe/rbdock.cxx#4 $)

>  <Rbt.Library>
libRbt.so (2013.1, Build901 2013/11/27)

>  <Rbt.Parameter_File>
/export/apps/rDock/src/rDock_2013.1_src/data/scripts/dock_solv.prm

>  <Rbt.Receptor>
prm/blind_docking_80.prm

>  <SCORE>
-6.09756

>  <SCORE.INTER>
-20.6425

>  <SCORE.INTER.CONST>
1

>  <SCORE.INTER.POLAR>
-1.52195

>  <SCORE.INTER.ROT>
12

>  <SCORE.INTER.SOLV>
26.2794

>  <SCORE.INTER.VDW>
-29.0483

>  <SCORE.INTER.norm>
-0.396972

>  <SCORE.INTRA>
13.1705

>  <SCORE.INTRA.DIHEDRAL>
3.88107

>  <SCORE.INTRA.DIHEDRAL.0>
23.9727

>  <SCORE.INTRA.POLAR>
0

>  <SCORE.INTRA.POLAR.0>
0

>  <SCORE.INTRA.REPUL>
0

>  <SCORE.INTRA.REPUL.0>
0

>  <SCORE.INTRA.SOLV>
2.20131

>  <SCORE.INTRA.SOLV.lig_0>
-115.028

>  <SCORE.INTRA.VDW>
10.1293

>  <SCORE.INTRA.VDW.0>
-6.82393

>  <SCORE.INTRA.norm>
0.253278

>  <SCORE.RESTR>
1.3745

>  <SCORE.RESTR.CAVITY>
1.3745

>  <SCORE.RESTR.norm>
0.0264328

>  <SCORE.SYSTEM>
0

>  <SCORE.SYSTEM.CONST>
0

>  <SCORE.SYSTEM.DIHEDRAL>
0

>  <SCORE.SYSTEM.SOLV>
0

>  <SCORE.SYSTEM.norm>
0

>  <SCORE.heavy>
52

>  <SCORE.norm>
-0.117261

>  <RMSD>
12.557

$$$$
2fd0_lig
 OpenBabel11021811433D
libRbt.so/2013.1/901 2013/11/27
 52 56  0  0  0  0  0  0  0  0999 V2000
   -6.2702  -49.6928    8.5867 C   0  0  2  0  0  0  0  0  0  0  0  0
   -5.2651  -50.5369    8.0086 O   0  0  0  0  0  0  0  0  0  0  0  0
   -3.2282  -51.1682    4.2211 C   0  0  2  0  0  0  0  0  0  0  0  0
   -2.5778  -50.9140    2.9252 N   0  0  0  0  0  0  0  0  0  0  0  0
   -1.0801  -50.2328    8.1361 C   0  0  1  0  0  0  0  0  0  0  0  0
    1.9078  -48.7637   11.0120 C   0  0  1  0  0  0  0  0  0  0  0  0
    6.6222  -48.4310   13.3306 C   0  0  1  0  0  0  0  0  0  0  0  0
   -6.2950  -49.9364   10.1396 C   0  0  2  0  0  0  0  0  0  0  0  0
   -4.9931  -49.6978   10.7471 N   0  0  0  0  0  0  0  0  0  0  0  0
   -4.7129  -50.5950    4.2156 C   0  0  0  0  0  0  0  0  0  0  0  0
   -0.7434  -49.2984    9.2837 C   0  0  2  0  0  0  0  0  0  0  0  0
   -0.1840  -48.0368    8.8217 O   0  0  0  0  0  0  0  0  0  0  0  0
    3.3195  -48.2034   10.5095 C   0  0  2  0  0  0  0  0  0  0  0  0
    4.2705  -49.3233   10.2716 N   0  0  0  0  0  0  0  0  0  0  0  0
    6.4006  -48.8573   14.7992 C   0  0  1  0  0  0  0  0  0  0  0  0
    6.2251  -50.2948   14.8522 O   0  0  0  0  0  0  0  0  0  0  0  0
   -6.8193  -51.3856   10.4584 C   0  0  0  0  0  0  0  0  0  0  0  0
   -5.4229  -50.8828    5.6236 C   0  0  2  0  0  0  0  0  0  0  0  0
   -6.7970  -50.3601    5.6458 N   0  0  0  0  0  0  0  0  0  0  0  0
    0.1609  -50.1486   10.1600 C   0  0  2  0  0  0  0  0  0  0  0  0
    1.4948  -49.7244   10.0845 O   0  0  0  0  0  0  0  0  0  0  0  0
    3.8051  -47.0930   11.5783 C   0  0  1  0  0  0  0  0  0  0  0  0
    2.7787  -46.0887   11.6726 O   0  0  0  0  0  0  0  0  0  0  0  0
    7.4940  -48.4668   15.8301 C   0  0  1  0  0  0  0  0  0  0  0  0
    8.4136  -49.5612   15.9343 O   0  0  0  0  0  0  0  0  0  0  0  0
   -8.2191  -51.5664    9.7855 C   0  0  2  0  0  0  0  0  0  0  0  0
   -8.7378  -52.8626   10.0664 O   0  0  0  0  0  0  0  0  0  0  0  0
   -4.5848  -50.2317    6.7591 C   0  0  2  0  0  0  0  0  0  0  0  0
    0.1621  -51.5962    9.6134 C   0  0  2  0  0  0  0  0  0  0  0  0
   -0.8418  -51.5469    8.6098 O   0  0  0  0  0  0  0  0  0  0  0  0
    3.9747  -47.7171   13.0602 C   0  0  2  0  0  0  0  0  0  0  0  0
    5.0182  -48.6995   12.9210 O   0  0  0  0  0  0  0  0  0  0  0  0
    8.2887  -47.1766   15.5226 C   0  0  2  0  0  0  0  0  0  0  0  0
    8.4359  -46.4962   16.7882 O   0  0  0  0  0  0  0  0  0  0  0  0
   -8.0832  -51.3716    8.2482 C   0  0  2  0  0  0  0  0  0  0  0  0
   -7.5585  -50.0105    7.9998 O   0  0  0  0  0  0  0  0  0  0  0  0
   -3.1036  -50.7183    6.7712 C   0  0  2  0  0  0  0  0  0  0  0  0
   -2.4219  -50.0126    7.8358 O   0  0  0  0  0  0  0  0  0  0  0  0
   -0.2238  -52.6698   10.6248 C   0  0  0  0  0  0  0  0  0  0  0  0
   -0.1223  -53.9353    9.9544 O   0  0  0  0  0  0  0  0  0  0  0  0
    2.6710  -48.4354   13.3533 C   0  0  1  0  0  0  0  0  0  0  0  0
    2.0047  -49.3318   12.4398 O   0  0  0  0  0  0  0  0  0  0  0  0
    7.5846  -46.3398   14.4578 C   0  0  2  0  0  0  0  0  0  0  0  0
    7.2238  -47.0676   13.2513 O   0  0  0  0  0  0  0  0  0  0  0  0
   -9.3984  -51.4969    7.5470 C   0  0  0  0  0  0  0  0  0  0  0  0
  -10.2303  -50.4618    7.9969 O   0  0  0  0  0  0  0  0  0  0  0  0
   -2.4319  -50.4396    5.3770 C   0  0  1  0  0  0  0  0  0  0  0  0
   -1.0568  -50.9570    5.4090 O   0  0  0  0  0  0  0  0  0  0  0  0
    2.6604  -49.1540   14.7489 C   0  0  0  0  0  0  0  0  0  0  0  0
    1.3424  -49.7292   15.1117 N   0  0  0  0  0  0  0  0  0  0  0  0
    8.1602  -45.0167   13.9579 C   0  0  0  0  0  0  0  0  0  0  0  0
    9.5116  -45.2140   13.4390 O   0  0  0  0  0  0  0  0  0  0  0  0
  1  2  1  6  0  0  0
  1  8  1  0  0  0  0
  1 36  1  0  0  0  0
  3  4  1  6  0  0  0
  3 10  1  0  0  0  0
  3 47  1  0  0  0  0
  5 11  1  0  0  0  0
  5 30  1  0  0  0  0
  5 38  1  1  0  0  0
  6 21  1  6  0  0  0
  6 42  1  0  0  0  0
  7 15  1  0  0  0  0
  7 44  1  0  0  0  0
  7 32  1  6  0  0  0
  8  9  1  6  0  0  0
  8 17  1  0  0  0  0
 11 12  1  6  0  0  0
 11 20  1  0  0  0  0
 13  6  1  0  0  0  0
 13 14  1  1  0  0  0
 15 16  1  6  0  0  0
 15 24  1  0  0  0  0
 17 26  1  0  0  0  0
 18 10  1  0  0  0  0
 18 19  1  6  0  0  0
 20 21  1  6  0  0  0
 20 29  1  0  0  0  0
 22 13  1  0  0  0  0
 22 23  1  1  0  0  0
 24 25  1  6  0  0  0
 24 33  1  0  0  0  0
 26 27  1  6  0  0  0
 26 35  1  0  0  0  0
 28  2  1  1  0  0  0
 28 18  1  0  0  0  0
 29 30  1  0  0  0  0
 29 39  1  1  0  0  0
 31 22  1  0  0  0  0
 31 32  1  6  0  0  0
 31 41  1  0  0  0  0
 33 34  1  1  0  0  0
 33 43  1  0  0  0  0
 35 36  1  0  0  0  0
 35 45  1  6  0  0  0
 37 28  1  0  0  0  0
 37 38  1  1  0  0  0
 39 40  1  0  0  0  0
 41 42  1  0  0  0  0
 41 49  1  1  0  0  0
 43 44  1  0  0  0  0
 43 51  1  6  0  0  0
 45 46  1  0  0  0  0
 47 37  1  0  0  0  0
 47 48  1  1  0  0  0
 49 50  1  0  0  0  0
 51 52  1  0  0  0  0
M  END
>  <CHROM.1>
-154.27172422,179.19984291,-166.82286313,87.50185355,90.55720540,-90.35795190
-178.07924196,98.74464744,63.52702350,178.81185681,173.51176470,56.65477699
0.00748143,-49.57654914,10.38442394,2.66424918,-0.24020396,-1.58722150

>  <Name>
2fd0_lig

>  <RI>
0

>  <Rbt.Current_Directory>
/home/itssahil/PROJECTS/Mol_Feturizer/New_Systems/rnas/2fd0

>  <Rbt.Executable>
rbdock ($Id: //depot/dev/client3/rdock/2013.1/src/exe/rbdock.cxx#4 $)

>  <Rbt.Library>
libRbt.so (2013.1, Build901 2013/11/27)

>  <Rbt.Parameter_File>
/export/apps/rDock/src/rDock_2013.1_src/data/scripts/dock_solv.prm

>  <Rbt.Receptor>
prm/pocket_docking_6.prm

>  <SCORE>
-9.56463

>  <SCORE.INTER>
-8.59101

>  <SCORE.INTER.CONST>
1

>  <SCORE.INTER.POLAR>
-1.82911

>  <SCORE.INTER.ROT>
12

>  <SCORE.INTER.SOLV>
13.3147

>  <SCORE.INTER.VDW>
-15.6685

>  <SCORE.INTER.norm>
-0.165212

>  <SCORE.INTRA>
-0.973618

>  <SCORE.INTRA.DIHEDRAL>
-3.07436

>  <SCORE.INTRA.DIHEDRAL.0>
23.9727

>  <SCORE.INTRA.POLAR>
0

>  <SCORE.INTRA.POLAR.0>
0

>  <SCORE.INTRA.REPUL>
0

>  <SCORE.INTRA.REPUL.0>
0

>  <SCORE.INTRA.SOLV>
-1.76019

>  <SCORE.INTRA.SOLV.lig_0>
-115.028

>  <SCORE.INTRA.VDW>
1.44366

>  <SCORE.INTRA.VDW.0>
-6.82393

>  <SCORE.INTRA.norm>
-0.0187234

>  <SCORE.RESTR>
0

>  <SCORE.RESTR.CAVITY>
0

>  <SCORE.RESTR.norm>
0

>  <SCORE.SYSTEM>
0

>  <SCORE.SYSTEM.CONST>
0

>  <SCORE.SYSTEM.DIHEDRAL>
0

>  <SCORE.SYSTEM.SOLV>
0

>  <SCORE.SYSTEM.norm>
0

>  <SCORE.heavy>
52

>  <SCORE.norm>
-0.183935

>  <RMSD>
12.647

$$$$
2fd0_lig
 OpenBabel11021811433D
libRbt.so/2013.1/901 2013/11/27
 52 56  0  0  0  0  0  0  0  0999 V2000
   -3.3905  -52.6283    3.0124 C   0  0  2  0  0  0  0  0  0  0  0  0
   -3.4742  -53.3554    4.2457 O   0  0  0  0  0  0  0  0  0  0  0  0
   -6.5772  -51.2521    6.4457 C   0  0  2  0  0  0  0  0  0  0  0  0
   -7.6209  -50.9406    7.4360 N   0  0  0  0  0  0  0  0  0  0  0  0
   -2.1145  -51.1797    7.5265 C   0  0  1  0  0  0  0  0  0  0  0  0
    1.3103  -49.9595   10.1862 C   0  0  1  0  0  0  0  0  0  0  0  0
    4.0125  -50.5587   14.7376 C   0  0  1  0  0  0  0  0  0  0  0  0
   -2.1244  -53.1251    2.2240 C   0  0  2  0  0  0  0  0  0  0  0  0
   -2.1618  -54.5616    1.9874 N   0  0  0  0  0  0  0  0  0  0  0  0
   -6.9585  -52.5690    5.6374 C   0  0  0  0  0  0  0  0  0  0  0  0
   -1.4067  -51.9422    8.6317 C   0  0  2  0  0  0  0  0  0  0  0  0
   -2.1842  -51.9791    9.8615 O   0  0  0  0  0  0  0  0  0  0  0  0
    2.2298  -51.2074   10.5819 C   0  0  2  0  0  0  0  0  0  0  0  0
    1.5778  -52.0194   11.6453 N   0  0  0  0  0  0  0  0  0  0  0  0
    3.4539  -49.2404   15.3188 C   0  0  1  0  0  0  0  0  0  0  0  0
    2.0579  -49.4285   15.6590 O   0  0  0  0  0  0  0  0  0  0  0  0
   -0.8091  -52.7024    2.9776 C   0  0  0  0  0  0  0  0  0  0  0  0
   -5.8261  -52.9000    4.5522 C   0  0  2  0  0  0  0  0  0  0  0  0
   -6.1533  -54.1155    3.7924 N   0  0  0  0  0  0  0  0  0  0  0  0
   -0.0584  -51.2467    8.7148 C   0  0  2  0  0  0  0  0  0  0  0  0
    0.0452  -50.4655    9.8740 O   0  0  0  0  0  0  0  0  0  0  0  0
    3.6943  -50.6301   10.9465 C   0  0  1  0  0  0  0  0  0  0  0  0
    4.1746  -49.8883    9.8107 O   0  0  0  0  0  0  0  0  0  0  0  0
    4.1754  -48.6419   16.5566 C   0  0  1  0  0  0  0  0  0  0  0  0
    3.5116  -49.1256   17.7312 O   0  0  0  0  0  0  0  0  0  0  0  0
   -0.8333  -51.1533    3.1878 C   0  0  2  0  0  0  0  0  0  0  0  0
    0.3519  -50.7269    3.8524 O   0  0  0  0  0  0  0  0  0  0  0  0
   -4.4618  -53.0732    5.2763 C   0  0  2  0  0  0  0  0  0  0  0  0
    0.0572  -50.2479    7.5387 C   0  0  2  0  0  0  0  0  0  0  0  0
   -1.0998  -50.5432    6.7694 O   0  0  0  0  0  0  0  0  0  0  0  0
    3.6413  -49.5914   12.1845 C   0  0  2  0  0  0  0  0  0  0  0  0
    3.1743  -50.3784   13.2963 O   0  0  0  0  0  0  0  0  0  0  0  0
    5.6861  -48.9483   16.6770 C   0  0  2  0  0  0  0  0  0  0  0  0
    6.3005  -47.7197   17.1236 O   0  0  0  0  0  0  0  0  0  0  0  0
   -2.0821  -50.7648    4.0301 C   0  0  2  0  0  0  0  0  0  0  0  0
   -3.2890  -51.2094    3.2985 O   0  0  0  0  0  0  0  0  0  0  0  0
   -4.0695  -51.8293    6.1306 C   0  0  2  0  0  0  0  0  0  0  0  0
   -2.8132  -52.1287    6.7848 O   0  0  0  0  0  0  0  0  0  0  0  0
    1.2828  -50.4329    6.6510 C   0  0  0  0  0  0  0  0  0  0  0  0
    1.2744  -51.7961    6.2008 O   0  0  0  0  0  0  0  0  0  0  0  0
    2.5694  -48.5801   11.8244 C   0  0  1  0  0  0  0  0  0  0  0  0
    1.2608  -48.9165   11.3177 O   0  0  0  0  0  0  0  0  0  0  0  0
    6.2474  -49.4664   15.3556 C   0  0  2  0  0  0  0  0  0  0  0  0
    5.5044  -50.5708   14.7694 O   0  0  0  0  0  0  0  0  0  0  0  0
   -2.1833  -49.2870    4.2372 C   0  0  0  0  0  0  0  0  0  0  0  0
   -3.2903  -49.0391    5.0611 O   0  0  0  0  0  0  0  0  0  0  0  0
   -5.1999  -51.5144    7.1774 C   0  0  1  0  0  0  0  0  0  0  0  0
   -4.8202  -50.3087    7.9267 O   0  0  0  0  0  0  0  0  0  0  0  0
    2.3364  -47.5011   12.9405 C   0  0  0  0  0  0  0  0  0  0  0  0
    1.2717  -46.5233   12.6094 N   0  0  0  0  0  0  0  0  0  0  0  0
    7.7154  -49.8564   15.1980 C   0  0  0  0  0  0  0  0  0  0  0  0
    8.0592  -50.9285   16.1291 O   0  0  0  0  0  0  0  0  0  0  0  0
  1  2  1  1  0  0  0
  1  8  1  0  0  0  0
  1 36  1  0  0  0  0
  3  4  1  1  0  0  0
  3 10  1  0  0  0  0
  3 47  1  0  0  0  0
  5 11  1  0  0  0  0
  5 30  1  0  0  0  0
  5 38  1  6  0  0  0
  6 21  1  1  0  0  0
  6 42  1  0  0  0  0
  7 15  1  0  0  0  0
  7 44  1  0  0  0  0
  7 32  1  6  0  0  0
  8  9  1  1  0  0  0
  8 17  1  0  0  0  0
 11 12  1  1  0  0  0
 11 20  1  0  0  0  0
 13  6  1  0  0  0  0
 13 14  1  1  0  0  0
 15 16  1  1  0  0  0
 15 24  1  0  0  0  0
 17 26  1  0  0  0  0
 18 10  1  0  0  0  0
 18 19  1  1  0  0  0
 20 21  1  1  0  0  0
 20 29  1  0  0  0  0
 22 13  1  0  0  0  0
 22 23  1  6  0  0  0
 24 25  1  1  0  0  0
 24 33  1  0  0  0  0
 26 27  1  1  0  0  0
 26 35  1  0  0  0  0
 28  2  1  6  0  0  0
 28 18  1  0  0  0  0
 29 30  1  0  0  0  0
 29 39  1  6  0  0  0
 31 22  1  0  0  0  0
 31 32  1  1  0  0  0
 31 41  1  0  0  0  0
 33 34  1  6  0  0  0
 33 43  1  0  0  0  0
 35 36  1  0  0  0  0
 35 45  1  6  0  0  0
 37 28  1  0  0  0  0
 37 38  1  1  0  0  0
 39 40  1  0  0  0  0
 41 42  1  0  0  0  0
 41 49  1  1  0  0  0
 43 44  1  0  0  0  0
 43 51  1  1  0  0  0
 45 46  1  0  0  0  0
 47 37  1  0  0  0  0
 47 48  1  6  0  0  0
 49 50  1  0  0  0  0
 51 52  1  0  0  0  0
M  END
>  <CHROM.1>
174.64274721,148.02327714,-67.91018250,83.95745297,169.32681133,45.13916483
54.77557344,122.60738739,-176.88212276,173.74346387,-178.87169174,59.77369691
0.07836613,-50.72760982,9.15155315,-2.24026745,0.00189482,1.32294661

>  <Name>
2fd0_lig

>  <RI>
2.00683e+07

>  <Rbt.Current_Directory>
/home/itssahil/PROJECTS/Mol_Feturizer/New_Systems/rnas/2fd0

>  <Rbt.Executable>
rbdock ($Id: //depot/dev/client3/rdock/2013.1/src/exe/rbdock.cxx#4 $)

>  <Rbt.Library>
libRbt.so (2013.1, Build901 2013/11/27)

>  <Rbt.Parameter_File>
/export/apps/rDock/src/rDock_2013.1_src/data/scripts/dock_solv.prm

>  <Rbt.Receptor>
prm/pocket_docking_4.prm

>  <SCORE>
-18.1875

>  <SCORE.INTER>
-13.8092

>  <SCORE.INTER.CONST>
1

>  <SCORE.INTER.POLAR>
-1.83227

>  <SCORE.INTER.ROT>
12

>  <SCORE.INTER.SOLV>
12.2536

>  <SCORE.INTER.VDW>
-18.7831

>  <SCORE.INTER.norm>
-0.265562

>  <SCORE.INTRA>
-4.37825

>  <SCORE.INTRA.DIHEDRAL>
-6.74411

>  <SCORE.INTRA.DIHEDRAL.0>
23.9727

>  <SCORE.INTRA.POLAR>
0

>  <SCORE.INTRA.POLAR.0>
0

>  <SCORE.INTRA.REPUL>
0

>  <SCORE.INTRA.REPUL.0>
0

>  <SCORE.INTRA.SOLV>
-1.06545

>  <SCORE.INTRA.SOLV.lig_0>
-115.028

>  <SCORE.INTRA.VDW>
-0.473469

>  <SCORE.INTRA.VDW.0>
-6.82393

>  <SCORE.INTRA.norm>
-0.0841971

>  <SCORE.RESTR>
0

>  <SCORE.RESTR.CAVITY>
0

>  <SCORE.RESTR.norm>
0

>  <SCORE.SYSTEM>
0

>  <SCORE.SYSTEM.CONST>
0

>  <SCORE.SYSTEM.DIHEDRAL>
0

>  <SCORE.SYSTEM.SOLV>
0

>  <SCORE.SYSTEM.norm>
0

>  <SCORE.heavy>
52

>  <SCORE.norm>
-0.349759

>  <RMSD>
12.678

$$$$
2fd0_lig
 OpenBabel11021811433D
libRbt.so/2013.1/901 2013/11/27
 52 56  0  0  0  0  0  0  0  0999 V2000
   10.8301  -35.4387   15.9833 C   0  0  2  0  0  0  0  0  0  0  0  0
   11.3814  -36.7205   16.3151 O   0  0  0  0  0  0  0  0  0  0  0  0
   11.0604  -39.9227   19.2367 C   0  0  2  0  0  0  0  0  0  0  0  0
   10.5204  -40.8252   20.2667 N   0  0  0  0  0  0  0  0  0  0  0  0
    9.3470  -40.3146   15.1664 C   0  0  1  0  0  0  0  0  0  0  0  0
    7.5743  -43.0418   12.1791 C   0  0  1  0  0  0  0  0  0  0  0  0
    6.2873  -47.9694   13.6453 C   0  0  1  0  0  0  0  0  0  0  0  0
   11.4250  -34.9811   14.6019 C   0  0  2  0  0  0  0  0  0  0  0  0
   11.1657  -35.9546   13.5503 N   0  0  0  0  0  0  0  0  0  0  0  0
   10.9866  -38.4121   19.7324 C   0  0  0  0  0  0  0  0  0  0  0  0
    8.4917  -39.9244   13.9749 C   0  0  2  0  0  0  0  0  0  0  0  0
    7.1223  -39.6136   14.3571 O   0  0  0  0  0  0  0  0  0  0  0  0
    6.0841  -43.6131   12.0677 C   0  0  2  0  0  0  0  0  0  0  0  0
    5.4881  -43.7831   13.4209 N   0  0  0  0  0  0  0  0  0  0  0  0
    4.9636  -48.1824   12.8770 C   0  0  1  0  0  0  0  0  0  0  0  0
    5.2552  -48.3253   11.4647 O   0  0  0  0  0  0  0  0  0  0  0  0
   12.9640  -34.6829   14.7401 C   0  0  0  0  0  0  0  0  0  0  0  0
   11.5853  -37.4324   18.6139 C   0  0  2  0  0  0  0  0  0  0  0  0
   11.5263  -36.0284   19.0466 N   0  0  0  0  0  0  0  0  0  0  0  0
    8.6704  -41.0998   13.0288 C   0  0  2  0  0  0  0  0  0  0  0  0
    7.5128  -41.8875   12.9649 O   0  0  0  0  0  0  0  0  0  0  0  0
    6.1470  -44.9498   11.1620 C   0  0  1  0  0  0  0  0  0  0  0  0
    6.7343  -44.6006    9.8954 O   0  0  0  0  0  0  0  0  0  0  0  0
    4.0706  -49.3773   13.3082 C   0  0  1  0  0  0  0  0  0  0  0  0
    4.4131  -50.5025   12.4892 O   0  0  0  0  0  0  0  0  0  0  0  0
   13.1653  -33.6273   15.8759 C   0  0  2  0  0  0  0  0  0  0  0  0
   14.5473  -33.3156   16.0206 O   0  0  0  0  0  0  0  0  0  0  0  0
   10.7871  -37.6189   17.2934 C   0  0  2  0  0  0  0  0  0  0  0  0
    9.7666  -42.0318   13.5981 C   0  0  2  0  0  0  0  0  0  0  0  0
   10.2689  -41.2818   14.6948 O   0  0  0  0  0  0  0  0  0  0  0  0
    7.1038  -46.0767   11.8169 C   0  0  2  0  0  0  0  0  0  0  0  0
    6.4704  -46.4056   13.0675 O   0  0  0  0  0  0  0  0  0  0  0  0
    4.1657  -49.7957   14.7937 C   0  0  2  0  0  0  0  0  0  0  0  0
    2.8119  -50.0839   15.2068 O   0  0  0  0  0  0  0  0  0  0  0  0
   12.6067  -34.1930   17.2129 C   0  0  2  0  0  0  0  0  0  0  0  0
   11.1688  -34.4872   17.0250 O   0  0  0  0  0  0  0  0  0  0  0  0
   10.7806  -39.0963   16.7954 C   0  0  2  0  0  0  0  0  0  0  0  0
    9.9749  -39.1474   15.5936 O   0  0  0  0  0  0  0  0  0  0  0  0
   10.9229  -42.3257   12.6489 C   0  0  0  0  0  0  0  0  0  0  0  0
   11.8134  -43.2191   13.3344 O   0  0  0  0  0  0  0  0  0  0  0  0
    8.4178  -45.3775   12.1101 C   0  0  1  0  0  0  0  0  0  0  0  0
    8.5376  -44.0940   12.7584 O   0  0  0  0  0  0  0  0  0  0  0  0
    4.8401  -48.7094   15.6271 C   0  0  2  0  0  0  0  0  0  0  0  0
    6.1131  -48.2412   15.1023 O   0  0  0  0  0  0  0  0  0  0  0  0
   12.7369  -33.2137   18.3359 C   0  0  0  0  0  0  0  0  0  0  0  0
   14.1028  -33.0015   18.5703 O   0  0  0  0  0  0  0  0  0  0  0  0
   10.2035  -40.0405   17.9126 C   0  0  1  0  0  0  0  0  0  0  0  0
   10.2612  -41.4268   17.4286 O   0  0  0  0  0  0  0  0  0  0  0  0
    9.4749  -46.3106   12.8003 C   0  0  0  0  0  0  0  0  0  0  0  0
    9.2794  -46.4500   14.2638 N   0  0  0  0  0  0  0  0  0  0  0  0
    5.0717  -48.8686   17.1281 C   0  0  0  0  0  0  0  0  0  0  0  0
    4.3423  -50.0286   17.6347 O   0  0  0  0  0  0  0  0  0  0  0  0
  1  2  1  1  0  0  0
  1  8  1  0  0  0  0
  1 36  1  0  0  0  0
  3  4  1  1  0  0  0
  3 10  1  0  0  0  0
  3 47  1  0  0  0  0
  5 11  1  0  0  0  0
  5 30  1  0  0  0  0
  5 38  1  6  0  0  0
  6 21  1  1  0  0  0
  6 42  1  0  0  0  0
  7 15  1  0  0  0  0
  7 44  1  0  0  0  0
  7 32  1  1  0  0  0
  8  9  1  6  0  0  0
  8 17  1  0  0  0  0
 11 12  1  1  0  0  0
 11 20  1  0  0  0  0
 13  6  1  0  0  0  0
 13 14  1  1  0  0  0
 15 16  1  6  0  0  0
 15 24  1  0  0  0  0
 17 26  1  0  0  0  0
 18 10  1  0  0  0  0
 18 19  1  1  0  0  0
 20 21  1  1  0  0  0
 20 29  1  0  0  0  0
 22 13  1  0  0  0  0
 22 23  1  6  0  0  0
 24 25  1  6  0  0  0
 24 33  1  0  0  0  0
 26 27  1  1  0  0  0
 26 35  1  0  0  0  0
 28  2  1  6  0  0  0
 28 18  1  0  0  0  0
 29 30  1  0  0  0  0
 29 39  1  6  0  0  0
 31 22  1  0  0  0  0
 31 32  1  1  0  0  0
 31 41  1  0  0  0  0
 33 34  1  1  0  0  0
 33 43  1  0  0  0  0
 35 36  1  0  0  0  0
 35 45  1  1  0  0  0
 37 28  1  0  0  0  0
 37 38  1  6  0  0  0
 39 40  1  0  0  0  0
 41 42  1  0  0  0  0
 41 49  1  1  0  0  0
 43 44  1  0  0  0  0
 43 51  1  1  0  0  0
 45 46  1  0  0  0  0
 47 37  1  0  0  0  0
 47 48  1  6  0  0  0
 49 50  1  0  0  0  0
 51 52  1  0  0  0  0
M  END
>  <CHROM.1>
-161.34503533,174.01009959,-170.41218921,-86.39841286,-176.78029965,-99.25152314
-178.76698644,136.77870669,-64.63002166,-155.50767847,-81.47072945,-11.02103560
8.86132778,-41.88182300,14.96814827,-0.14255947,-1.09031957,-1.47631838

>  <Name>
2fd0_lig

>  <RI>
2.60878e+07

>  <Rbt.Current_Directory>
/home/itssahil/PROJECTS/Mol_Feturizer/New_Systems/rnas/2fd0

>  <Rbt.Executable>
rbdock ($Id: //depot/dev/client3/rdock/2013.1/src/exe/rbdock.cxx#4 $)

>  <Rbt.Library>
libRbt.so (2013.1, Build901 2013/11/27)

>  <Rbt.Parameter_File>
/export/apps/rDock/src/rDock_2013.1_src/data/scripts/dock_solv.prm

>  <Rbt.Receptor>
prm/blind_docking_80.prm

>  <SCORE>
-7.96931

>  <SCORE.INTER>
-16.6426

>  <SCORE.INTER.CONST>
1

>  <SCORE.INTER.POLAR>
-0.697068

>  <SCORE.INTER.ROT>
12

>  <SCORE.INTER.SOLV>
27.7972

>  <SCORE.INTER.VDW>
-29.6373

>  <SCORE.INTER.norm>
-0.320051

>  <SCORE.INTRA>
6.74589

>  <SCORE.INTRA.DIHEDRAL>
1.65031

>  <SCORE.INTRA.DIHEDRAL.0>
23.9727

>  <SCORE.INTRA.POLAR>
0

>  <SCORE.INTRA.POLAR.0>
0

>  <SCORE.INTRA.REPUL>
0

>  <SCORE.INTRA.REPUL.0>
0

>  <SCORE.INTRA.SOLV>
1.73894

>  <SCORE.INTRA.SOLV.lig_0>
-115.028

>  <SCORE.INTRA.VDW>
5.05126

>  <SCORE.INTRA.VDW.0>
-6.82393

>  <SCORE.INTRA.norm>
0.129729

>  <SCORE.RESTR>
1.92743

>  <SCORE.RESTR.CAVITY>
1.92743

>  <SCORE.RESTR.norm>
0.037066

>  <SCORE.SYSTEM>
0

>  <SCORE.SYSTEM.CONST>
0

>  <SCORE.SYSTEM.DIHEDRAL>
0

>  <SCORE.SYSTEM.SOLV>
0

>  <SCORE.SYSTEM.norm>
0

>  <SCORE.heavy>
52

>  <SCORE.norm>
-0.153256

>  <RMSD>
12.739

$$$$
2fd0_lig
 OpenBabel11021811433D
libRbt.so/2013.1/901 2013/11/27
 52 56  0  0  0  0  0  0  0  0999 V2000
   10.6336  -36.1759   14.6861 C   0  0  2  0  0  0  0  0  0  0  0  0
   11.2497  -37.3353   15.2633 O   0  0  0  0  0  0  0  0  0  0  0  0
   10.6985  -40.4664   18.2273 C   0  0  2  0  0  0  0  0  0  0  0  0
   10.0811  -41.3394   19.2391 N   0  0  0  0  0  0  0  0  0  0  0  0
    9.3852  -40.9635   13.9866 C   0  0  1  0  0  0  0  0  0  0  0  0
    7.8283  -43.8700   13.4366 C   0  0  1  0  0  0  0  0  0  0  0  0
    6.8852  -48.9344   14.3710 C   0  0  1  0  0  0  0  0  0  0  0  0
   11.4695  -35.7396   13.4282 C   0  0  2  0  0  0  0  0  0  0  0  0
   11.5846  -36.8155   12.4536 N   0  0  0  0  0  0  0  0  0  0  0  0
   10.6109  -38.9443   18.6837 C   0  0  0  0  0  0  0  0  0  0  0  0
    7.8893  -40.9696   14.2432 C   0  0  2  0  0  0  0  0  0  0  0  0
    7.5456  -41.6462   15.4850 O   0  0  0  0  0  0  0  0  0  0  0  0
    7.7678  -44.9002   12.2142 C   0  0  2  0  0  0  0  0  0  0  0  0
    6.3775  -45.3932   12.0157 N   0  0  0  0  0  0  0  0  0  0  0  0
    5.4018  -48.7701   13.9710 C   0  0  1  0  0  0  0  0  0  0  0  0
    5.2720  -48.9790   12.5429 O   0  0  0  0  0  0  0  0  0  0  0  0
   12.8849  -35.2103   13.8677 C   0  0  0  0  0  0  0  0  0  0  0  0
   11.2936  -37.9968   17.5857 C   0  0  2  0  0  0  0  0  0  0  0  0
   11.2236  -36.5827   17.9825 N   0  0  0  0  0  0  0  0  0  0  0  0
    7.3288  -41.5832   12.9713 C   0  0  2  0  0  0  0  0  0  0  0  0
    6.8647  -42.8873   13.1921 O   0  0  0  0  0  0  0  0  0  0  0  0
    8.8781  -46.0413   12.4905 C   0  0  1  0  0  0  0  0  0  0  0  0
   10.1532  -45.3922   12.6441 O   0  0  0  0  0  0  0  0  0  0  0  0
    4.3633  -49.6755   14.6871 C   0  0  1  0  0  0  0  0  0  0  0  0
    4.1700  -50.8465   13.8835 O   0  0  0  0  0  0  0  0  0  0  0  0
   12.6839  -34.0557   14.9026 C   0  0  2  0  0  0  0  0  0  0  0  0
   13.9447  -33.5356   15.3127 O   0  0  0  0  0  0  0  0  0  0  0  0
   10.5816  -38.2047   16.2199 C   0  0  2  0  0  0  0  0  0  0  0  0
    8.4764  -41.7277   11.9434 C   0  0  2  0  0  0  0  0  0  0  0  0
    9.5482  -41.0484   12.5816 O   0  0  0  0  0  0  0  0  0  0  0  0
    8.5967  -46.8336   13.8716 C   0  0  2  0  0  0  0  0  0  0  0  0
    7.3255  -47.4780   13.6657 O   0  0  0  0  0  0  0  0  0  0  0  0
    4.7206  -50.1130   16.1263 C   0  0  2  0  0  0  0  0  0  0  0  0
    3.4921  -50.0199   16.8804 O   0  0  0  0  0  0  0  0  0  0  0  0
   11.9069  -34.5966   16.1369 C   0  0  2  0  0  0  0  0  0  0  0  0
   10.6000  -35.1107   15.6708 O   0  0  0  0  0  0  0  0  0  0  0  0
   10.5896  -39.6930   15.7552 C   0  0  2  0  0  0  0  0  0  0  0  0
    9.8639  -39.7628   14.5044 O   0  0  0  0  0  0  0  0  0  0  0  0
    8.2239  -41.0639   10.5943 C   0  0  0  0  0  0  0  0  0  0  0  0
    7.0399  -41.6627   10.0458 O   0  0  0  0  0  0  0  0  0  0  0  0
    8.4286  -45.7612   14.9315 C   0  0  1  0  0  0  0  0  0  0  0  0
    7.6092  -44.5827   14.7836 O   0  0  0  0  0  0  0  0  0  0  0  0
    5.8515  -49.2594   16.6939 C   0  0  2  0  0  0  0  0  0  0  0  0
    7.0245  -49.1566   15.8401 O   0  0  0  0  0  0  0  0  0  0  0  0
   11.6500  -33.5285   17.1520 C   0  0  0  0  0  0  0  0  0  0  0  0
   12.8867  -33.1056   17.6593 O   0  0  0  0  0  0  0  0  0  0  0  0
    9.9290  -40.6052   16.8526 C   0  0  1  0  0  0  0  0  0  0  0  0
   10.0013  -42.0027   16.4040 O   0  0  0  0  0  0  0  0  0  0  0  0
    8.0987  -46.3415   16.3523 C   0  0  0  0  0  0  0  0  0  0  0  0
    9.0230  -47.4177   16.7845 N   0  0  0  0  0  0  0  0  0  0  0  0
    6.4091  -49.4855   18.0974 C   0  0  0  0  0  0  0  0  0  0  0  0
    7.2933  -48.3858   18.4763 O   0  0  0  0  0  0  0  0  0  0  0  0
  1  2  1  1  0  0  0
  1  8  1  0  0  0  0
  1 36  1  0  0  0  0
  3  4  1  1  0  0  0
  3 10  1  0  0  0  0
  3 47  1  0  0  0  0
  5 11  1  0  0  0  0
  5 30  1  0  0  0  0
  5 38  1  6  0  0  0
  6 21  1  6  0  0  0
  6 42  1  0  0  0  0
  7 15  1  0  0  0  0
  7 44  1  0  0  0  0
  7 32  1  1  0  0  0
  8  9  1  6  0  0  0
  8 17  1  0  0  0  0
 11 12  1  1  0  0  0
 11 20  1  0  0  0  0
 13  6  1  0  0  0  0
 13 14  1  1  0  0  0
 15 16  1  6  0  0  0
 15 24  1  0  0  0  0
 17 26  1  0  0  0  0
 18 10  1  0  0  0  0
 18 19  1  1  0  0  0
 20 21  1  1  0  0  0
 20 29  1  0  0  0  0
 22 13  1  0  0  0  0
 22 23  1  1  0  0  0
 24 25  1  6  0  0  0
 24 33  1  0  0  0  0
 26 27  1  1  0  0  0
 26 35  1  0  0  0  0
 28  2  1  6  0  0  0
 28 18  1  0  0  0  0
 29 30  1  0  0  0  0
 29 39  1  6  0  0  0
 31 22  1  0  0  0  0
 31 32  1  6  0  0  0
 31 41  1  0  0  0  0
 33 34  1  1  0  0  0
 33 43  1  0  0  0  0
 35 36  1  0  0  0  0
 35 45  1  1  0  0  0
 37 28  1  0  0  0  0
 37 38  1  6  0  0  0
 39 40  1  0  0  0  0
 41 42  1  0  0  0  0
 41 49  1  1  0  0  0
 43 44  1  0  0  0  0
 43 51  1  1  0  0  0
 45 46  1  0  0  0  0
 47 37  1  0  0  0  0
 47 48  1  6  0  0  0
 49 50  1  0  0  0  0
 51 52  1  0  0  0  0
M  END
>  <CHROM.1>
-164.01382156,104.17030236,-114.87341461,167.76211080,-70.07013515,-110.80935137
-59.20919013,149.37227877,-64.83085117,-163.17135932,50.40294836,-169.31832782
8.82223522,-42.37064827,14.95154683,0.31331268,-1.13667292,-1.17021209

>  <Name>
2fd0_lig

>  <RI>
2.60878e+07

>  <Rbt.Current_Directory>
/home/itssahil/PROJECTS/Mol_Feturizer/New_Systems/rnas/2fd0

>  <Rbt.Executable>
rbdock ($Id: //depot/dev/client3/rdock/2013.1/src/exe/rbdock.cxx#4 $)

>  <Rbt.Library>
libRbt.so (2013.1, Build901 2013/11/27)

>  <Rbt.Parameter_File>
/export/apps/rDock/src/rDock_2013.1_src/data/scripts/dock_solv.prm

>  <Rbt.Receptor>
prm/blind_docking_80.prm

>  <SCORE>
-11.0018

>  <SCORE.INTER>
-20.8565

>  <SCORE.INTER.CONST>
1

>  <SCORE.INTER.POLAR>
-0.779937

>  <SCORE.INTER.ROT>
12

>  <SCORE.INTER.SOLV>
25.4017

>  <SCORE.INTER.VDW>
-31.3718

>  <SCORE.INTER.norm>
-0.401087

>  <SCORE.INTRA>
8.71812

>  <SCORE.INTRA.DIHEDRAL>
5.37851

>  <SCORE.INTRA.DIHEDRAL.0>
23.9727

>  <SCORE.INTRA.POLAR>
0

>  <SCORE.INTRA.POLAR.0>
0

>  <SCORE.INTRA.REPUL>
0

>  <SCORE.INTRA.REPUL.0>
0

>  <SCORE.INTRA.SOLV>
5.25668

>  <SCORE.INTRA.SOLV.lig_0>
-115.028

>  <SCORE.INTRA.VDW>
3.40052

>  <SCORE.INTRA.VDW.0>
-6.82393

>  <SCORE.INTRA.norm>
0.167656

>  <SCORE.RESTR>
1.13658

>  <SCORE.RESTR.CAVITY>
1.13658

>  <SCORE.RESTR.norm>
0.0218574

>  <SCORE.SYSTEM>
0

>  <SCORE.SYSTEM.CONST>
0

>  <SCORE.SYSTEM.DIHEDRAL>
0

>  <SCORE.SYSTEM.SOLV>
0

>  <SCORE.SYSTEM.norm>
0

>  <SCORE.heavy>
52

>  <SCORE.norm>
-0.211573

>  <RMSD>
12.775

$$$$
2fd0_lig
 OpenBabel11021811433D
libRbt.so/2013.1/901 2013/11/27
 52 56  0  0  0  0  0  0  0  0999 V2000
   -5.4748  -48.4415    0.2071 C   0  0  2  0  0  0  0  0  0  0  0  0
   -4.3372  -48.1228    1.0203 O   0  0  0  0  0  0  0  0  0  0  0  0
   -0.9858  -49.2738   -1.4968 C   0  0  2  0  0  0  0  0  0  0  0  0
    0.3868  -49.4888   -1.9835 N   0  0  0  0  0  0  0  0  0  0  0  0
   -2.0713  -50.3690    2.7268 C   0  0  1  0  0  0  0  0  0  0  0  0
   -0.7375  -51.6306    6.8912 C   0  0  1  0  0  0  0  0  0  0  0  0
   -1.4673  -50.4787   11.5691 C   0  0  1  0  0  0  0  0  0  0  0  0
   -6.7672  -47.9035    0.9224 C   0  0  2  0  0  0  0  0  0  0  0  0
   -6.6884  -46.4725    1.1808 N   0  0  0  0  0  0  0  0  0  0  0  0
   -1.2258  -47.7318   -1.1846 C   0  0  0  0  0  0  0  0  0  0  0  0
   -2.8001  -50.9723    3.9136 C   0  0  2  0  0  0  0  0  0  0  0  0
   -3.5906  -49.9859    4.6349 O   0  0  0  0  0  0  0  0  0  0  0  0
   -1.8277  -52.5724    7.5867 C   0  0  2  0  0  0  0  0  0  0  0  0
   -3.0117  -51.7758    8.0097 N   0  0  0  0  0  0  0  0  0  0  0  0
   -1.4452  -51.4614   12.7613 C   0  0  1  0  0  0  0  0  0  0  0  0
   -0.1614  -52.1327   12.7961 O   0  0  0  0  0  0  0  0  0  0  0  0
   -7.0371  -48.7110    2.2459 C   0  0  0  0  0  0  0  0  0  0  0  0
   -2.7242  -47.4986   -0.6654 C   0  0  2  0  0  0  0  0  0  0  0  0
   -2.9716  -46.0803   -0.3668 N   0  0  0  0  0  0  0  0  0  0  0  0
   -1.6806  -51.6345    4.6990 C   0  0  2  0  0  0  0  0  0  0  0  0
   -1.3915  -50.9284    5.8748 O   0  0  0  0  0  0  0  0  0  0  0  0
   -1.0796  -53.3865    8.7650 C   0  0  1  0  0  0  0  0  0  0  0  0
    0.0222  -54.1033    8.1792 O   0  0  0  0  0  0  0  0  0  0  0  0
   -1.7231  -50.8789   14.1736 C   0  0  1  0  0  0  0  0  0  0  0  0
   -0.4626  -50.5490   14.7709 O   0  0  0  0  0  0  0  0  0  0  0  0
   -7.1186  -50.2318    1.8919 C   0  0  2  0  0  0  0  0  0  0  0  0
   -7.3808  -50.9978    3.0635 O   0  0  0  0  0  0  0  0  0  0  0  0
   -2.9634  -48.3620    0.6047 C   0  0  2  0  0  0  0  0  0  0  0  0
   -0.3829  -51.5746    3.8583 C   0  0  2  0  0  0  0  0  0  0  0  0
   -0.8459  -51.0714    2.6133 O   0  0  0  0  0  0  0  0  0  0  0  0
   -0.4451  -52.3948    9.8733 C   0  0  2  0  0  0  0  0  0  0  0  0
   -1.5803  -51.7151   10.4416 O   0  0  0  0  0  0  0  0  0  0  0  0
   -2.6402  -49.6353   14.2278 C   0  0  2  0  0  0  0  0  0  0  0  0
   -3.5060  -49.8364   15.3664 O   0  0  0  0  0  0  0  0  0  0  0  0
   -5.7762  -50.6865    1.2508 C   0  0  2  0  0  0  0  0  0  0  0  0
   -5.5503  -49.8797    0.0311 O   0  0  0  0  0  0  0  0  0  0  0  0
   -2.6851  -49.8774    0.3658 C   0  0  2  0  0  0  0  0  0  0  0  0
   -2.8979  -50.5629    1.6231 O   0  0  0  0  0  0  0  0  0  0  0  0
    0.2902  -52.9201    3.6108 C   0  0  0  0  0  0  0  0  0  0  0  0
    0.7134  -53.4201    4.8883 O   0  0  0  0  0  0  0  0  0  0  0  0
    0.3814  -51.3879    9.0959 C   0  0  1  0  0  0  0  0  0  0  0  0
   -0.0698  -50.6935    7.9143 O   0  0  0  0  0  0  0  0  0  0  0  0
   -3.3933  -49.4519   12.9130 C   0  0  2  0  0  0  0  0  0  0  0  0
   -2.5561  -49.4700   11.7238 O   0  0  0  0  0  0  0  0  0  0  0  0
   -5.8019  -52.1286    0.8550 C   0  0  0  0  0  0  0  0  0  0  0  0
   -4.5065  -52.4940    0.4626 O   0  0  0  0  0  0  0  0  0  0  0  0
   -1.2159  -50.0811   -0.1564 C   0  0  1  0  0  0  0  0  0  0  0  0
   -1.0075  -51.5118   -0.4191 O   0  0  0  0  0  0  0  0  0  0  0  0
    1.0493  -50.2990   10.0085 C   0  0  0  0  0  0  0  0  0  0  0  0
    2.2816  -50.7669   10.6880 N   0  0  0  0  0  0  0  0  0  0  0  0
   -4.3618  -48.2924   12.6908 C   0  0  0  0  0  0  0  0  0  0  0  0
   -3.6418  -47.0212   12.6934 O   0  0  0  0  0  0  0  0  0  0  0  0
  1  2  1  1  0  0  0
  1  8  1  0  0  0  0
  1 36  1  0  0  0  0
  3  4  1  1  0  0  0
  3 10  1  0  0  0  0
  3 47  1  0  0  0  0
  5 11  1  0  0  0  0
  5 30  1  0  0  0  0
  5 38  1  6  0  0  0
  6 21  1  6  0  0  0
  6 42  1  0  0  0  0
  7 15  1  0  0  0  0
  7 44  1  0  0  0  0
  7 32  1  6  0  0  0
  8  9  1  1  0  0  0
  8 17  1  0  0  0  0
 11 12  1  1  0  0  0
 11 20  1  0  0  0  0
 13  6  1  0  0  0  0
 13 14  1  1  0  0  0
 15 16  1  1  0  0  0
 15 24  1  0  0  0  0
 17 26  1  0  0  0  0
 18 10  1  0  0  0  0
 18 19  1  1  0  0  0
 20 21  1  1  0  0  0
 20 29  1  0  0  0  0
 22 13  1  0  0  0  0
 22 23  1  6  0  0  0
 24 25  1  6  0  0  0
 24 33  1  0  0  0  0
 26 27  1  1  0  0  0
 26 35  1  0  0  0  0
 28  2  1  6  0  0  0
 28 18  1  0  0  0  0
 29 30  1  0  0  0  0
 29 39  1  6  0  0  0
 31 22  1  0  0  0  0
 31 32  1  6  0  0  0
 31 41  1  0  0  0  0
 33 34  1  1  0  0  0
 33 43  1  0  0  0  0
 35 36  1  0  0  0  0
 35 45  1  6  0  0  0
 37 28  1  0  0  0  0
 37 38  1  1  0  0  0
 39 40  1  0  0  0  0
 41 42  1  0  0  0  0
 41 49  1  1  0  0  0
 43 44  1  0  0  0  0
 43 51  1  1  0  0  0
 45 46  1  0  0  0  0
 47 37  1  0  0  0  0
 47 48  1  6  0  0  0
 49 50  1  0  0  0  0
 51 52  1  0  0  0  0
M  END
>  <CHROM.1>
-174.08653284,166.39429468,-76.05885169,-87.54728229,158.85013370,61.94838484
-64.40237011,-175.10135935,-171.99303112,-67.22792336,79.76270712,65.92660794
-2.43542599,-50.39081482,5.61519483,1.77107722,0.51388106,-1.57225409

>  <Name>
2fd0_lig

>  <RI>
0

>  <Rbt.Current_Directory>
/home/itssahil/PROJECTS/Mol_Feturizer/New_Systems/rnas/2fd0

>  <Rbt.Executable>
rbdock ($Id: //depot/dev/client3/rdock/2013.1/src/exe/rbdock.cxx#4 $)

>  <Rbt.Library>
libRbt.so (2013.1, Build901 2013/11/27)

>  <Rbt.Parameter_File>
/export/apps/rDock/src/rDock_2013.1_src/data/scripts/dock_solv.prm

>  <Rbt.Receptor>
prm/pocket_docking_8.prm

>  <SCORE>
-6.36747

>  <SCORE.INTER>
0.277461

>  <SCORE.INTER.CONST>
1

>  <SCORE.INTER.POLAR>
0

>  <SCORE.INTER.ROT>
12

>  <SCORE.INTER.SOLV>
7.98177

>  <SCORE.INTER.VDW>
-14.0756

>  <SCORE.INTER.norm>
0.00533579

>  <SCORE.INTRA>
-6.64493

>  <SCORE.INTRA.DIHEDRAL>
-13.3465

>  <SCORE.INTRA.DIHEDRAL.0>
23.9727

>  <SCORE.INTRA.POLAR>
0

>  <SCORE.INTRA.POLAR.0>
0

>  <SCORE.INTRA.REPUL>
0

>  <SCORE.INTRA.REPUL.0>
0

>  <SCORE.INTRA.SOLV>
-0.926639

>  <SCORE.INTRA.SOLV.lig_0>
-115.028

>  <SCORE.INTRA.VDW>
0.491651

>  <SCORE.INTRA.VDW.0>
-6.82393

>  <SCORE.INTRA.norm>
-0.127787

>  <SCORE.RESTR>
0

>  <SCORE.RESTR.CAVITY>
0

>  <SCORE.RESTR.norm>
0

>  <SCORE.SYSTEM>
0

>  <SCORE.SYSTEM.CONST>
0

>  <SCORE.SYSTEM.DIHEDRAL>
0

>  <SCORE.SYSTEM.SOLV>
0

>  <SCORE.SYSTEM.norm>
0

>  <SCORE.heavy>
52

>  <SCORE.norm>
-0.122451

>  <RMSD>
12.850

$$$$
2fd0_lig
 OpenBabel11021811433D
libRbt.so/2013.1/901 2013/11/27
 52 56  0  0  0  0  0  0  0  0999 V2000
   -7.9303  -53.0209    4.1222 C   0  0  2  0  0  0  0  0  0  0  0  0
   -6.7394  -52.5326    4.7550 O   0  0  0  0  0  0  0  0  0  0  0  0
   -3.9409  -52.1572    1.4505 C   0  0  2  0  0  0  0  0  0  0  0  0
   -2.7625  -51.7778    0.6539 N   0  0  0  0  0  0  0  0  0  0  0  0
   -3.5610  -53.5974    5.7420 C   0  0  1  0  0  0  0  0  0  0  0  0
    0.6871  -52.8337    7.2882 C   0  0  1  0  0  0  0  0  0  0  0  0
    2.1105  -48.1103    8.5686 C   0  0  1  0  0  0  0  0  0  0  0  0
   -8.9853  -53.3611    5.2369 C   0  0  2  0  0  0  0  0  0  0  0  0
   -9.2716  -52.2103    6.0822 N   0  0  0  0  0  0  0  0  0  0  0  0
   -4.6895  -50.8574    1.9825 C   0  0  0  0  0  0  0  0  0  0  0  0
   -2.2094  -54.2829    5.6588 C   0  0  2  0  0  0  0  0  0  0  0  0
   -2.1105  -55.4187    6.5633 O   0  0  0  0  0  0  0  0  0  0  0  0
    0.9725  -52.5879    8.8431 C   0  0  2  0  0  0  0  0  0  0  0  0
   -0.0389  -51.6601    9.4189 N   0  0  0  0  0  0  0  0  0  0  0  0
    3.2627  -47.9933    9.5915 C   0  0  1  0  0  0  0  0  0  0  0  0
    4.4616  -48.5735    9.0205 O   0  0  0  0  0  0  0  0  0  0  0  0
   -8.5035  -54.5929    6.0895 C   0  0  0  0  0  0  0  0  0  0  0  0
   -5.9784  -51.2727    2.8403 C   0  0  2  0  0  0  0  0  0  0  0  0
   -6.6876  -50.0884    3.3465 N   0  0  0  0  0  0  0  0  0  0  0  0
   -1.2349  -53.1441    5.9081 C   0  0  2  0  0  0  0  0  0  0  0  0
   -0.6451  -53.2419    7.1759 O   0  0  0  0  0  0  0  0  0  0  0  0
    2.5109  -52.1133    8.9813 C   0  0  1  0  0  0  0  0  0  0  0  0
    3.3431  -53.1266    8.3882 O   0  0  0  0  0  0  0  0  0  0  0  0
    3.6152  -46.5738   10.1127 C   0  0  1  0  0  0  0  0  0  0  0  0
    4.6583  -46.0456    9.2838 O   0  0  0  0  0  0  0  0  0  0  0  0
   -8.2252  -55.7886    5.1213 C   0  0  2  0  0  0  0  0  0  0  0  0
   -7.8032  -56.9321    5.8579 O   0  0  0  0  0  0  0  0  0  0  0  0
   -5.5329  -52.1758    4.0242 C   0  0  2  0  0  0  0  0  0  0  0  0
   -2.0232  -51.8127    5.9270 C   0  0  2  0  0  0  0  0  0  0  0  0
   -3.3222  -52.2184    5.5201 O   0  0  0  0  0  0  0  0  0  0  0  0
    2.7959  -50.7481    8.1633 C   0  0  2  0  0  0  0  0  0  0  0  0
    1.9588  -49.7644    8.7999 O   0  0  0  0  0  0  0  0  0  0  0  0
    2.4512  -45.5571   10.1564 C   0  0  2  0  0  0  0  0  0  0  0  0
    2.6108  -44.8319   11.3954 O   0  0  0  0  0  0  0  0  0  0  0  0
   -7.1259  -55.3815    4.0988 C   0  0  2  0  0  0  0  0  0  0  0  0
   -7.6096  -54.2036    3.3452 O   0  0  0  0  0  0  0  0  0  0  0  0
   -4.7429  -53.4365    3.5579 C   0  0  2  0  0  0  0  0  0  0  0  0
   -4.3480  -54.1666    4.7441 O   0  0  0  0  0  0  0  0  0  0  0  0
   -1.5250  -50.7521    4.9515 C   0  0  0  0  0  0  0  0  0  0  0  0
   -2.3970  -49.6189    5.0807 O   0  0  0  0  0  0  0  0  0  0  0  0
    2.2714  -50.9941    6.7612 C   0  0  1  0  0  0  0  0  0  0  0  0
    0.9854  -51.5731    6.4560 O   0  0  0  0  0  0  0  0  0  0  0  0
    1.1030  -46.2616   10.0306 C   0  0  2  0  0  0  0  0  0  0  0  0
    0.9963  -47.1760    8.9046 O   0  0  0  0  0  0  0  0  0  0  0  0
   -6.8378  -56.4734    3.1181 C   0  0  0  0  0  0  0  0  0  0  0  0
   -5.8362  -56.0215    2.2474 O   0  0  0  0  0  0  0  0  0  0  0  0
   -3.4924  -53.0064    2.7070 C   0  0  1  0  0  0  0  0  0  0  0  0
   -2.8037  -54.2187    2.2427 O   0  0  0  0  0  0  0  0  0  0  0  0
    2.4194  -49.7484    5.8174 C   0  0  0  0  0  0  0  0  0  0  0  0
    3.8268  -49.3435    5.5834 N   0  0  0  0  0  0  0  0  0  0  0  0
   -0.2154  -45.4911   10.0338 C   0  0  0  0  0  0  0  0  0  0  0  0
   -0.3589  -44.7345   11.2754 O   0  0  0  0  0  0  0  0  0  0  0  0
  1  2  1  1  0  0  0
  1  8  1  0  0  0  0
  1 36  1  0  0  0  0
  3  4  1  1  0  0  0
  3 10  1  0  0  0  0
  3 47  1  0  0  0  0
  5 11  1  0  0  0  0
  5 30  1  0  0  0  0
  5 38  1  6  0  0  0
  6 21  1  1  0  0  0
  6 42  1  0  0  0  0
  7 15  1  0  0  0  0
  7 44  1  0  0  0  0
  7 32  1  1  0  0  0
  8  9  1  1  0  0  0
  8 17  1  0  0  0  0
 11 12  1  1  0  0  0
 11 20  1  0  0  0  0
 13  6  1  0  0  0  0
 13 14  1  6  0  0  0
 15 16  1  6  0  0  0
 15 24  1  0  0  0  0
 17 26  1  0  0  0  0
 18 10  1  0  0  0  0
 18 19  1  1  0  0  0
 20 21  1  1  0  0  0
 20 29  1  0  0  0  0
 22 13  1  0  0  0  0
 22 23  1  6  0  0  0
 24 25  1  6  0  0  0
 24 33  1  0  0  0  0
 26 27  1  1  0  0  0
 26 35  1  0  0  0  0
 28  2  1  6  0  0  0
 28 18  1  0  0  0  0
 29 30  1  0  0  0  0
 29 39  1  6  0  0  0
 31 22  1  0  0  0  0
 31 32  1  1  0  0  0
 31 41  1  0  0  0  0
 33 34  1  1  0  0  0
 33 43  1  0  0  0  0
 35 36  1  0  0  0  0
 35 45  1  6  0  0  0
 37 28  1  0  0  0  0
 37 38  1  1  0  0  0
 39 40  1  0  0  0  0
 41 42  1  0  0  0  0
 41 49  1  6  0  0  0
 43 44  1  0  0  0  0
 43 51  1  6  0  0  0
 45 46  1  0  0  0  0
 47 37  1  0  0  0  0
 47 48  1  6  0  0  0
 49 50  1  0  0  0  0
 51 52  1  0  0  0  0
M  END
>  <CHROM.1>
177.26255671,-109.90581204,162.01606024,-81.82623724,144.74707181,48.05641572
178.12833788,166.00329360,-179.66655418,-58.62147630,62.81015964,-59.25650053
-1.94493968,-51.40769661,6.23403168,2.43217527,0.22182750,-2.68812034

>  <Name>
2fd0_lig

>  <RI>
0

>  <Rbt.Current_Directory>
/home/itssahil/PROJECTS/Mol_Feturizer/New_Systems/rnas/2fd0

>  <Rbt.Executable>
rbdock ($Id: //depot/dev/client3/rdock/2013.1/src/exe/rbdock.cxx#4 $)

>  <Rbt.Library>
libRbt.so (2013.1, Build901 2013/11/27)

>  <Rbt.Parameter_File>
/export/apps/rDock/src/rDock_2013.1_src/data/scripts/dock_solv.prm

>  <Rbt.Receptor>
prm/pocket_docking_6.prm

>  <SCORE>
-12.9084

>  <SCORE.INTER>
-10.1947

>  <SCORE.INTER.CONST>
1

>  <SCORE.INTER.POLAR>
-1.8689

>  <SCORE.INTER.ROT>
12

>  <SCORE.INTER.SOLV>
14.354

>  <SCORE.INTER.VDW>
-16.9515

>  <SCORE.INTER.norm>
-0.196052

>  <SCORE.INTRA>
-2.71372

>  <SCORE.INTRA.DIHEDRAL>
-5.90398

>  <SCORE.INTRA.DIHEDRAL.0>
23.9727

>  <SCORE.INTRA.POLAR>
0

>  <SCORE.INTRA.POLAR.0>
0

>  <SCORE.INTRA.REPUL>
0

>  <SCORE.INTRA.REPUL.0>
0

>  <SCORE.INTRA.SOLV>
-1.37107

>  <SCORE.INTRA.SOLV.lig_0>
-115.028

>  <SCORE.INTRA.VDW>
0.923805

>  <SCORE.INTRA.VDW.0>
-6.82393

>  <SCORE.INTRA.norm>
-0.0521869

>  <SCORE.RESTR>
0

>  <SCORE.RESTR.CAVITY>
0

>  <SCORE.RESTR.norm>
0

>  <SCORE.SYSTEM>
0

>  <SCORE.SYSTEM.CONST>
0

>  <SCORE.SYSTEM.DIHEDRAL>
0

>  <SCORE.SYSTEM.SOLV>
0

>  <SCORE.SYSTEM.norm>
0

>  <SCORE.heavy>
52

>  <SCORE.norm>
-0.248239

>  <RMSD>
12.852

$$$$
2fd0_lig
 OpenBabel11021811433D
libRbt.so/2013.1/901 2013/11/27
 52 56  0  0  0  0  0  0  0  0999 V2000
    4.0873  -45.8057   11.5280 C   0  0  2  0  0  0  0  0  0  0  0  0
    4.7808  -46.9180   12.1103 O   0  0  0  0  0  0  0  0  0  0  0  0
    1.5447  -49.5460   13.3405 C   0  0  2  0  0  0  0  0  0  0  0  0
    0.8133  -50.7172   13.8510 N   0  0  0  0  0  0  0  0  0  0  0  0
    5.0305  -48.0505   15.6712 C   0  0  1  0  0  0  0  0  0  0  0  0
    8.8458  -49.9676   16.7543 C   0  0  1  0  0  0  0  0  0  0  0  0
    8.9458  -52.9550   20.9575 C   0  0  1  0  0  0  0  0  0  0  0  0
    5.1492  -44.7520   11.0448 C   0  0  2  0  0  0  0  0  0  0  0  0
    6.0995  -45.3310   10.1054 N   0  0  0  0  0  0  0  0  0  0  0  0
    2.4447  -49.9573   12.0940 C   0  0  0  0  0  0  0  0  0  0  0  0
    6.0905  -48.5531   14.7082 C   0  0  2  0  0  0  0  0  0  0  0  0
    5.7311  -49.8303   14.1100 O   0  0  0  0  0  0  0  0  0  0  0  0
    9.4138  -51.4534   16.5836 C   0  0  2  0  0  0  0  0  0  0  0  0
    8.3262  -52.4523   16.7694 N   0  0  0  0  0  0  0  0  0  0  0  0
    7.5986  -53.5635   20.5077 C   0  0  1  0  0  0  0  0  0  0  0  0
    7.8561  -54.7657   19.7407 O   0  0  0  0  0  0  0  0  0  0  0  0
    5.8832  -44.1084   12.2791 C   0  0  0  0  0  0  0  0  0  0  0  0
    3.2314  -48.6784   11.5330 C   0  0  2  0  0  0  0  0  0  0  0  0
    4.0737  -49.0322   10.3810 N   0  0  0  0  0  0  0  0  0  0  0  0
    7.3515  -48.5443   15.5558 C   0  0  2  0  0  0  0  0  0  0  0  0
    7.7542  -49.8446   15.8899 O   0  0  0  0  0  0  0  0  0  0  0  0
   10.6755  -51.6044   17.5819 C   0  0  1  0  0  0  0  0  0  0  0  0
   11.6263  -50.5749   17.2546 O   0  0  0  0  0  0  0  0  0  0  0  0
    6.5652  -53.9095   21.6138 C   0  0  1  0  0  0  0  0  0  0  0  0
    6.7542  -55.2821   21.9807 O   0  0  0  0  0  0  0  0  0  0  0  0
    4.8061  -43.5010   13.2361 C   0  0  2  0  0  0  0  0  0  0  0  0
    5.4325  -42.8910   14.3602 O   0  0  0  0  0  0  0  0  0  0  0  0
    4.1052  -48.0788   12.6700 C   0  0  2  0  0  0  0  0  0  0  0  0
    7.0364  -47.8559   16.9054 C   0  0  2  0  0  0  0  0  0  0  0  0
    5.7211  -47.3611   16.6986 O   0  0  0  0  0  0  0  0  0  0  0  0
   10.2545  -51.3671   19.1248 C   0  0  2  0  0  0  0  0  0  0  0  0
    9.3205  -52.4252   19.4110 O   0  0  0  0  0  0  0  0  0  0  0  0
    6.6205  -53.0407   22.8916 C   0  0  2  0  0  0  0  0  0  0  0  0
    5.2450  -52.7859   23.2518 O   0  0  0  0  0  0  0  0  0  0  0  0
    3.8432  -44.6263   13.7119 C   0  0  2  0  0  0  0  0  0  0  0  0
    3.2024  -45.2211   12.5181 O   0  0  0  0  0  0  0  0  0  0  0  0
    3.2765  -47.7119   13.9387 C   0  0  2  0  0  0  0  0  0  0  0  0
    4.2013  -47.2099   14.9330 O   0  0  0  0  0  0  0  0  0  0  0  0
    7.9406  -46.6804   17.2586 C   0  0  0  0  0  0  0  0  0  0  0  0
    9.0012  -47.1965   18.0772 O   0  0  0  0  0  0  0  0  0  0  0  0
    9.5093  -50.0459   19.1471 C   0  0  1  0  0  0  0  0  0  0  0  0
    8.4693  -49.6746   18.2182 O   0  0  0  0  0  0  0  0  0  0  0  0
    7.4353  -51.7716   22.6568 C   0  0  2  0  0  0  0  0  0  0  0  0
    8.7524  -51.9913   22.0804 O   0  0  0  0  0  0  0  0  0  0  0  0
    2.7640  -44.1024   14.6052 C   0  0  0  0  0  0  0  0  0  0  0  0
    3.3450  -43.7657   15.8360 O   0  0  0  0  0  0  0  0  0  0  0  0
    2.5024  -48.9764   14.4628 C   0  0  1  0  0  0  0  0  0  0  0  0
    1.6942  -48.5812   15.6247 O   0  0  0  0  0  0  0  0  0  0  0  0
    8.9738  -49.6611   20.5717 C   0  0  0  0  0  0  0  0  0  0  0  0
    8.3586  -48.3130   20.6317 N   0  0  0  0  0  0  0  0  0  0  0  0
    7.6591  -50.7388   23.7592 C   0  0  0  0  0  0  0  0  0  0  0  0
    6.3858  -50.1562   24.1759 O   0  0  0  0  0  0  0  0  0  0  0  0
  1  2  1  1  0  0  0
  1  8  1  0  0  0  0
  1 36  1  0  0  0  0
  3  4  1  1  0  0  0
  3 10  1  0  0  0  0
  3 47  1  0  0  0  0
  5 11  1  0  0  0  0
  5 30  1  0  0  0  0
  5 38  1  6  0  0  0
  6 21  1  6  0  0  0
  6 42  1  0  0  0  0
  7 15  1  0  0  0  0
  7 44  1  0  0  0  0
  7 32  1  6  0  0  0
  8  9  1  6  0  0  0
  8 17  1  0  0  0  0
 11 12  1  1  0  0  0
 11 20  1  0  0  0  0
 13  6  1  0  0  0  0
 13 14  1  1  0  0  0
 15 16  1  1  0  0  0
 15 24  1  0  0  0  0
 17 26  1  0  0  0  0
 18 10  1  0  0  0  0
 18 19  1  6  0  0  0
 20 21  1  1  0  0  0
 20 29  1  0  0  0  0
 22 13  1  0  0  0  0
 22 23  1  6  0  0  0
 24 25  1  1  0  0  0
 24 33  1  0  0  0  0
 26 27  1  1  0  0  0
 26 35  1  0  0  0  0
 28  2  1  6  0  0  0
 28 18  1  0  0  0  0
 29 30  1  0  0  0  0
 29 39  1  6  0  0  0
 31 22  1  0  0  0  0
 31 32  1  6  0  0  0
 31 41  1  0  0  0  0
 33 34  1  6  0  0  0
 33 43  1  0  0  0  0
 35 36  1  0  0  0  0
 35 45  1  1  0  0  0
 37 28  1  0  0  0  0
 37 38  1  1  0  0  0
 39 40  1  0  0  0  0
 41 42  1  0  0  0  0
 41 49  1  1  0  0  0
 43 44  1  0  0  0  0
 43 51  1  1  0  0  0
 45 46  1  0  0  0  0
 47 37  1  0  0  0  0
 47 48  1  1  0  0  0
 49 50  1  0  0  0  0
 51 52  1  0  0  0  0
M  END
>  <CHROM.1>
179.67701814,71.75036273,-160.91191918,158.28639896,-175.25654887,57.65581619
-94.14710631,159.54682922,-71.60118696,-76.48744307,174.44935429,-62.93927527
6.21051632,-49.07618591,16.68292897,-2.02964905,0.57448630,2.45513636

>  <Name>
2fd0_lig

>  <RI>
3.4301e+07

>  <Rbt.Current_Directory>
/home/itssahil/PROJECTS/Mol_Feturizer/New_Systems/rnas/2fd0

>  <Rbt.Executable>
rbdock ($Id: //depot/dev/client3/rdock/2013.1/src/exe/rbdock.cxx#4 $)

>  <Rbt.Library>
libRbt.so (2013.1, Build901 2013/11/27)

>  <Rbt.Parameter_File>
/export/apps/rDock/src/rDock_2013.1_src/data/scripts/dock_solv.prm

>  <Rbt.Receptor>
prm/pocket_docking_7.prm

>  <SCORE>
-13.7651

>  <SCORE.INTER>
-11.8833

>  <SCORE.INTER.CONST>
1

>  <SCORE.INTER.POLAR>
-2.72558

>  <SCORE.INTER.ROT>
12

>  <SCORE.INTER.SOLV>
20.7082

>  <SCORE.INTER.VDW>
-17.3397

>  <SCORE.INTER.norm>
-0.228525

>  <SCORE.INTRA>
-1.8818

>  <SCORE.INTRA.DIHEDRAL>
-10.9752

>  <SCORE.INTRA.DIHEDRAL.0>
23.9727

>  <SCORE.INTRA.POLAR>
0

>  <SCORE.INTRA.POLAR.0>
0

>  <SCORE.INTRA.REPUL>
0

>  <SCORE.INTRA.REPUL.0>
0

>  <SCORE.INTRA.SOLV>
0.998111

>  <SCORE.INTRA.SOLV.lig_0>
-115.028

>  <SCORE.INTRA.VDW>
3.10674

>  <SCORE.INTRA.VDW.0>
-6.82393

>  <SCORE.INTRA.norm>
-0.0361885

>  <SCORE.RESTR>
0

>  <SCORE.RESTR.CAVITY>
0

>  <SCORE.RESTR.norm>
0

>  <SCORE.SYSTEM>
0

>  <SCORE.SYSTEM.CONST>
0

>  <SCORE.SYSTEM.DIHEDRAL>
0

>  <SCORE.SYSTEM.SOLV>
0

>  <SCORE.SYSTEM.norm>
0

>  <SCORE.heavy>
52

>  <SCORE.norm>
-0.264714

>  <RMSD>
12.887

$$$$
2fd0_lig
 OpenBabel11021811433D
libRbt.so/2013.1/901 2013/11/27
 52 56  0  0  0  0  0  0  0  0999 V2000
   11.8151  -35.7917   15.6968 C   0  0  2  0  0  0  0  0  0  0  0  0
   11.6723  -37.0777   16.3154 O   0  0  0  0  0  0  0  0  0  0  0  0
   11.3343  -38.1120   20.5236 C   0  0  2  0  0  0  0  0  0  0  0  0
   10.7908  -38.2831   21.8809 N   0  0  0  0  0  0  0  0  0  0  0  0
   10.0452  -40.8573   17.1049 C   0  0  1  0  0  0  0  0  0  0  0  0
    8.7307  -44.7327   15.1985 C   0  0  1  0  0  0  0  0  0  0  0  0
    4.8893  -46.7952   13.2260 C   0  0  1  0  0  0  0  0  0  0  0  0
   11.7582  -35.9781   14.1369 C   0  0  2  0  0  0  0  0  0  0  0  0
   10.5285  -36.6331   13.7133 N   0  0  0  0  0  0  0  0  0  0  0  0
   11.2802  -36.5799   20.0961 C   0  0  0  0  0  0  0  0  0  0  0  0
    8.9074  -41.1584   16.1466 C   0  0  2  0  0  0  0  0  0  0  0  0
    7.6173  -41.2028   16.8189 O   0  0  0  0  0  0  0  0  0  0  0  0
    7.7251  -44.6326   13.9583 C   0  0  2  0  0  0  0  0  0  0  0  0
    6.3514  -44.3011   14.4258 N   0  0  0  0  0  0  0  0  0  0  0  0
    5.6135  -47.5782   12.1079 C   0  0  1  0  0  0  0  0  0  0  0  0
    5.5180  -48.9969   12.3871 O   0  0  0  0  0  0  0  0  0  0  0  0
   13.0273  -36.7599   13.6321 C   0  0  0  0  0  0  0  0  0  0  0  0
   11.8827  -36.3946   18.6223 C   0  0  2  0  0  0  0  0  0  0  0  0
   11.8419  -34.9863   18.2017 N   0  0  0  0  0  0  0  0  0  0  0  0
    9.3571  -42.4471   15.4792 C   0  0  2  0  0  0  0  0  0  0  0  0
    8.6063  -43.5441   15.9236 O   0  0  0  0  0  0  0  0  0  0  0  0
    7.8613  -46.0046   13.1157 C   0  0  1  0  0  0  0  0  0  0  0  0
    9.2413  -46.1581   12.7372 O   0  0  0  0  0  0  0  0  0  0  0  0
    5.1415  -47.3413   10.6477 C   0  0  1  0  0  0  0  0  0  0  0  0
    4.1577  -48.3356   10.3350 O   0  0  0  0  0  0  0  0  0  0  0  0
   14.3045  -35.9974   14.1137 C   0  0  2  0  0  0  0  0  0  0  0  0
   15.4780  -36.6648   13.6604 O   0  0  0  0  0  0  0  0  0  0  0  0
   11.0743  -37.2734   17.6274 C   0  0  2  0  0  0  0  0  0  0  0  0
   10.8123  -42.7472   15.9115 C   0  0  2  0  0  0  0  0  0  0  0  0
   11.1704  -41.5715   16.6235 O   0  0  0  0  0  0  0  0  0  0  0  0
    7.4830  -47.2992   14.0074 C   0  0  2  0  0  0  0  0  0  0  0  0
    6.0962  -47.1111   14.3467 O   0  0  0  0  0  0  0  0  0  0  0  0
    4.5525  -45.9449   10.3416 C   0  0  2  0  0  0  0  0  0  0  0  0
    5.0751  -45.5745    9.0470 O   0  0  0  0  0  0  0  0  0  0  0  0
   14.3057  -35.9196   15.6673 C   0  0  2  0  0  0  0  0  0  0  0  0
   13.0817  -35.2064   16.0949 O   0  0  0  0  0  0  0  0  0  0  0  0
   11.0483  -38.7782   18.0345 C   0  0  2  0  0  0  0  0  0  0  0  0
   10.2347  -39.4784   17.0630 O   0  0  0  0  0  0  0  0  0  0  0  0
   11.8017  -42.9342   14.7667 C   0  0  0  0  0  0  0  0  0  0  0  0
   11.8497  -41.6939   14.0453 O   0  0  0  0  0  0  0  0  0  0  0  0
    8.3104  -47.1800   15.2734 C   0  0  1  0  0  0  0  0  0  0  0  0
    8.4403  -45.9763   16.0585 O   0  0  0  0  0  0  0  0  0  0  0  0
    4.8976  -44.9502   11.4467 C   0  0  2  0  0  0  0  0  0  0  0  0
    4.5806  -45.4009   12.7927 O   0  0  0  0  0  0  0  0  0  0  0  0
   15.4877  -35.1681   16.1919 C   0  0  0  0  0  0  0  0  0  0  0  0
   15.2999  -33.8087   15.9047 O   0  0  0  0  0  0  0  0  0  0  0  0
   10.4679  -38.9350   19.4875 C   0  0  1  0  0  0  0  0  0  0  0  0
   10.5072  -40.3571   19.8555 O   0  0  0  0  0  0  0  0  0  0  0  0
    8.0432  -48.3381   16.2989 C   0  0  0  0  0  0  0  0  0  0  0  0
    8.4523  -48.0102   17.6862 N   0  0  0  0  0  0  0  0  0  0  0  0
    4.4302  -43.4971   11.4016 C   0  0  0  0  0  0  0  0  0  0  0  0
    4.9333  -42.8385   10.1984 O   0  0  0  0  0  0  0  0  0  0  0  0
  1  2  1  1  0  0  0
  1  8  1  0  0  0  0
  1 36  1  0  0  0  0
  3  4  1  1  0  0  0
  3 10  1  0  0  0  0
  3 47  1  0  0  0  0
  5 11  1  0  0  0  0
  5 30  1  0  0  0  0
  5 38  1  6  0  0  0
  6 21  1  1  0  0  0
  6 42  1  0  0  0  0
  7 15  1  0  0  0  0
  7 44  1  0  0  0  0
  7 32  1  1  0  0  0
  8  9  1  1  0  0  0
  8 17  1  0  0  0  0
 11 12  1  1  0  0  0
 11 20  1  0  0  0  0
 13  6  1  0  0  0  0
 13 14  1  1  0  0  0
 15 16  1  1  0  0  0
 15 24  1  0  0  0  0
 17 26  1  0  0  0  0
 18 10  1  0  0  0  0
 18 19  1  6  0  0  0
 20 21  1  1  0  0  0
 20 29  1  0  0  0  0
 22 13  1  0  0  0  0
 22 23  1  1  0  0  0
 24 25  1  1  0  0  0
 24 33  1  0  0  0  0
 26 27  1  1  0  0  0
 26 35  1  0  0  0  0
 28  2  1  6  0  0  0
 28 18  1  0  0  0  0
 29 30  1  0  0  0  0
 29 39  1  6  0  0  0
 31 22  1  0  0  0  0
 31 32  1  1  0  0  0
 31 41  1  0  0  0  0
 33 34  1  6  0  0  0
 33 43  1  0  0  0  0
 35 36  1  0  0  0  0
 35 45  1  6  0  0  0
 37 28  1  0  0  0  0
 37 38  1  6  0  0  0
 39 40  1  0  0  0  0
 41 42  1  0  0  0  0
 41 49  1  1  0  0  0
 43 44  1  0  0  0  0
 43 51  1  6  0  0  0
 45 46  1  0  0  0  0
 47 37  1  0  0  0  0
 47 48  1  1  0  0  0
 49 50  1  0  0  0  0
 51 52  1  0  0  0  0
M  END
>  <CHROM.1>
-150.48865695,167.33940913,-83.87957169,29.99402113,167.39361939,-56.54337193
62.41909933,52.20381460,71.98130614,177.51182582,-159.84180167,-59.06985775
9.37347087,-41.74047373,15.09038511,-0.00689840,-1.01856347,-1.17864023

>  <Name>
2fd0_lig

>  <RI>
2.85265e+07

>  <Rbt.Current_Directory>
/home/itssahil/PROJECTS/Mol_Feturizer/New_Systems/rnas/2fd0

>  <Rbt.Executable>
rbdock ($Id: //depot/dev/client3/rdock/2013.1/src/exe/rbdock.cxx#4 $)

>  <Rbt.Library>
libRbt.so (2013.1, Build901 2013/11/27)

>  <Rbt.Parameter_File>
/export/apps/rDock/src/rDock_2013.1_src/data/scripts/dock_solv.prm

>  <Rbt.Receptor>
prm/blind_docking_60.prm

>  <SCORE>
-21.6034

>  <SCORE.INTER>
-26.4252

>  <SCORE.INTER.CONST>
1

>  <SCORE.INTER.POLAR>
-1.88211

>  <SCORE.INTER.ROT>
12

>  <SCORE.INTER.SOLV>
23.3453

>  <SCORE.INTER.VDW>
-30.7249

>  <SCORE.INTER.norm>
-0.508176

>  <SCORE.INTRA>
2.25652

>  <SCORE.INTRA.DIHEDRAL>
-9.53153

>  <SCORE.INTRA.DIHEDRAL.0>
23.9727

>  <SCORE.INTRA.POLAR>
0

>  <SCORE.INTRA.POLAR.0>
0

>  <SCORE.INTRA.REPUL>
0

>  <SCORE.INTRA.REPUL.0>
0

>  <SCORE.INTRA.SOLV>
1.66306

>  <SCORE.INTRA.SOLV.lig_0>
-115.028

>  <SCORE.INTRA.VDW>
6.19076

>  <SCORE.INTRA.VDW.0>
-6.82393

>  <SCORE.INTRA.norm>
0.0433947

>  <SCORE.RESTR>
2.56521

>  <SCORE.RESTR.CAVITY>
2.56521

>  <SCORE.RESTR.norm>
0.049331

>  <SCORE.SYSTEM>
0

>  <SCORE.SYSTEM.CONST>
0

>  <SCORE.SYSTEM.DIHEDRAL>
0

>  <SCORE.SYSTEM.SOLV>
0

>  <SCORE.SYSTEM.norm>
0

>  <SCORE.heavy>
52

>  <SCORE.norm>
-0.415451

>  <RMSD>
12.896

$$$$
2fd0_lig
 OpenBabel11021811433D
libRbt.so/2013.1/901 2013/11/27
 52 56  0  0  0  0  0  0  0  0999 V2000
   -4.8694  -52.4826    1.8695 C   0  0  2  0  0  0  0  0  0  0  0  0
   -5.9873  -51.5988    2.0310 O   0  0  0  0  0  0  0  0  0  0  0  0
   -6.4129  -47.3936    3.0446 C   0  0  2  0  0  0  0  0  0  0  0  0
   -6.4227  -46.1343    3.8068 N   0  0  0  0  0  0  0  0  0  0  0  0
   -2.7802  -49.8775    3.3545 C   0  0  1  0  0  0  0  0  0  0  0  0
   -1.0297  -51.5579    7.1334 C   0  0  1  0  0  0  0  0  0  0  0  0
    1.7441  -49.3036   10.6547 C   0  0  1  0  0  0  0  0  0  0  0  0
   -5.2498  -53.5820    0.8121 C   0  0  2  0  0  0  0  0  0  0  0  0
   -5.6466  -52.9961   -0.4608 N   0  0  0  0  0  0  0  0  0  0  0  0
   -7.3879  -48.4551    3.7194 C   0  0  0  0  0  0  0  0  0  0  0  0
   -3.4284  -50.7326    4.4279 C   0  0  2  0  0  0  0  0  0  0  0  0
   -4.2832  -49.9539    5.3118 O   0  0  0  0  0  0  0  0  0  0  0  0
   -1.1786  -51.0094    8.6289 C   0  0  2  0  0  0  0  0  0  0  0  0
   -1.1098  -49.5227    8.6485 N   0  0  0  0  0  0  0  0  0  0  0  0
    3.1954  -49.7911   10.8639 C   0  0  1  0  0  0  0  0  0  0  0  0
    4.0723  -49.0597    9.9717 O   0  0  0  0  0  0  0  0  0  0  0  0
   -6.3718  -54.5262    1.3831 C   0  0  0  0  0  0  0  0  0  0  0  0
   -7.3841  -49.8216    2.8814 C   0  0  2  0  0  0  0  0  0  0  0  0
   -8.2762  -50.8216    3.4862 N   0  0  0  0  0  0  0  0  0  0  0  0
   -2.2396  -51.4169    5.0812 C   0  0  2  0  0  0  0  0  0  0  0  0
   -1.9849  -50.8955    6.3572 O   0  0  0  0  0  0  0  0  0  0  0  0
   -0.0755  -51.7692    9.5327 C   0  0  1  0  0  0  0  0  0  0  0  0
   -0.2967  -53.1855    9.4059 O   0  0  0  0  0  0  0  0  0  0  0  0
    3.7813  -49.6984   12.2989 C   0  0  1  0  0  0  0  0  0  0  0  0
    4.4713  -48.4475   12.4140 O   0  0  0  0  0  0  0  0  0  0  0  0
   -5.8748  -55.1242    2.7396 C   0  0  2  0  0  0  0  0  0  0  0  0
   -6.8571  -56.0014    3.2816 O   0  0  0  0  0  0  0  0  0  0  0  0
   -5.9324  -50.3725    2.8121 C   0  0  2  0  0  0  0  0  0  0  0  0
   -0.9708  -51.1039    4.2525 C   0  0  2  0  0  0  0  0  0  0  0  0
   -1.5026  -50.4413    3.1142 O   0  0  0  0  0  0  0  0  0  0  0  0
    1.4284  -51.4904    9.0085 C   0  0  2  0  0  0  0  0  0  0  0  0
    1.6096  -50.0710    9.1696 O   0  0  0  0  0  0  0  0  0  0  0  0
    2.7639  -49.8141   13.4574 C   0  0  2  0  0  0  0  0  0  0  0  0
    3.4010  -50.6393   14.4572 O   0  0  0  0  0  0  0  0  0  0  0  0
   -5.5866  -53.9684    3.7399 C   0  0  2  0  0  0  0  0  0  0  0  0
   -4.5519  -53.0921    3.1474 O   0  0  0  0  0  0  0  0  0  0  0  0
   -4.9252  -49.3458    2.2101 C   0  0  2  0  0  0  0  0  0  0  0  0
   -3.6120  -49.9548    2.2404 O   0  0  0  0  0  0  0  0  0  0  0  0
   -0.1920  -52.3248    3.7759 C   0  0  0  0  0  0  0  0  0  0  0  0
    0.9522  -51.8397    3.0571 O   0  0  0  0  0  0  0  0  0  0  0  0
    1.4105  -51.8098    7.5255 C   0  0  1  0  0  0  0  0  0  0  0  0
    0.4005  -51.3556    6.6004 O   0  0  0  0  0  0  0  0  0  0  0  0
    1.4319  -50.3721   12.9636 C   0  0  2  0  0  0  0  0  0  0  0  0
    0.8764  -49.6882   11.8064 O   0  0  0  0  0  0  0  0  0  0  0  0
   -5.0717  -54.4738    5.0501 C   0  0  0  0  0  0  0  0  0  0  0  0
   -6.1028  -55.1899    5.6743 O   0  0  0  0  0  0  0  0  0  0  0  0
   -4.9562  -48.0093    3.0380 C   0  0  1  0  0  0  0  0  0  0  0  0
   -4.0354  -47.0503    2.4120 O   0  0  0  0  0  0  0  0  0  0  0  0
    2.7893  -51.5531    6.8203 C   0  0  0  0  0  0  0  0  0  0  0  0
    3.2126  -50.1319    6.8413 N   0  0  0  0  0  0  0  0  0  0  0  0
    0.2446  -50.5796   13.9012 C   0  0  0  0  0  0  0  0  0  0  0  0
   -0.2380  -49.2948   14.4022 O   0  0  0  0  0  0  0  0  0  0  0  0
  1  2  1  1  0  0  0
  1  8  1  0  0  0  0
  1 36  1  0  0  0  0
  3  4  1  1  0  0  0
  3 10  1  0  0  0  0
  3 47  1  0  0  0  0
  5 11  1  0  0  0  0
  5 30  1  0  0  0  0
  5 38  1  6  0  0  0
  6 21  1  6  0  0  0
  6 42  1  0  0  0  0
  7 15  1  0  0  0  0
  7 44  1  0  0  0  0
  7 32  1  6  0  0  0
  8  9  1  6  0  0  0
  8 17  1  0  0  0  0
 11 12  1  1  0  0  0
 11 20  1  0  0  0  0
 13  6  1  0  0  0  0
 13 14  1  6  0  0  0
 15 16  1  6  0  0  0
 15 24  1  0  0  0  0
 17 26  1  0  0  0  0
 18 10  1  0  0  0  0
 18 19  1  1  0  0  0
 20 21  1  1  0  0  0
 20 29  1  0  0  0  0
 22 13  1  0  0  0  0
 22 23  1  6  0  0  0
 24 25  1  6  0  0  0
 24 33  1  0  0  0  0
 26 27  1  1  0  0  0
 26 35  1  0  0  0  0
 28  2  1  6  0  0  0
 28 18  1  0  0  0  0
 29 30  1  0  0  0  0
 29 39  1  6  0  0  0
 31 22  1  0  0  0  0
 31 32  1  6  0  0  0
 31 41  1  0  0  0  0
 33 34  1  1  0  0  0
 33 43  1  0  0  0  0
 35 36  1  0  0  0  0
 35 45  1  1  0  0  0
 37 28  1  0  0  0  0
 37 38  1  1  0  0  0
 39 40  1  0  0  0  0
 41 42  1  0  0  0  0
 41 49  1  6  0  0  0
 43 44  1  0  0  0  0
 43 51  1  1  0  0  0
 45 46  1  0  0  0  0
 47 37  1  0  0  0  0
 47 48  1  6  0  0  0
 49 50  1  0  0  0  0
 51 52  1  0  0  0  0
M  END
>  <CHROM.1>
-172.38993971,69.41789719,-166.51294489,75.57432360,171.81427422,-172.75319930
-178.83619723,70.00922756,-66.89138322,-86.62159594,-63.38877447,65.61435317
-1.98508532,-50.94942513,6.26910640,-2.98784048,-0.84677438,0.03347086

>  <Name>
2fd0_lig

>  <RI>
0

>  <Rbt.Current_Directory>
/home/itssahil/PROJECTS/Mol_Feturizer/New_Systems/rnas/2fd0

>  <Rbt.Executable>
rbdock ($Id: //depot/dev/client3/rdock/2013.1/src/exe/rbdock.cxx#4 $)

>  <Rbt.Library>
libRbt.so (2013.1, Build901 2013/11/27)

>  <Rbt.Parameter_File>
/export/apps/rDock/src/rDock_2013.1_src/data/scripts/dock_solv.prm

>  <Rbt.Receptor>
prm/pocket_docking_8.prm

>  <SCORE>
-8.41011

>  <SCORE.INTER>
-1.23956

>  <SCORE.INTER.CONST>
1

>  <SCORE.INTER.POLAR>
-0.894427

>  <SCORE.INTER.ROT>
12

>  <SCORE.INTER.SOLV>
8.18041

>  <SCORE.INTER.VDW>
-12.1718

>  <SCORE.INTER.norm>
-0.0238378

>  <SCORE.INTRA>
-7.17055

>  <SCORE.INTRA.DIHEDRAL>
-15.2213

>  <SCORE.INTRA.DIHEDRAL.0>
23.9727

>  <SCORE.INTRA.POLAR>
0

>  <SCORE.INTRA.POLAR.0>
0

>  <SCORE.INTRA.REPUL>
0

>  <SCORE.INTRA.REPUL.0>
0

>  <SCORE.INTRA.SOLV>
-0.643107

>  <SCORE.INTRA.SOLV.lig_0>
-115.028

>  <SCORE.INTRA.VDW>
0.761677

>  <SCORE.INTRA.VDW.0>
-6.82393

>  <SCORE.INTRA.norm>
-0.137895

>  <SCORE.RESTR>
0

>  <SCORE.RESTR.CAVITY>
0

>  <SCORE.RESTR.norm>
0

>  <SCORE.SYSTEM>
0

>  <SCORE.SYSTEM.CONST>
0

>  <SCORE.SYSTEM.DIHEDRAL>
0

>  <SCORE.SYSTEM.SOLV>
0

>  <SCORE.SYSTEM.norm>
0

>  <SCORE.heavy>
52

>  <SCORE.norm>
-0.161733

>  <RMSD>
12.900

$$$$
2fd0_lig
 OpenBabel11021811433D
libRbt.so/2013.1/901 2013/11/27
 52 56  0  0  0  0  0  0  0  0999 V2000
    2.0632  -47.0648   13.9014 C   0  0  2  0  0  0  0  0  0  0  0  0
    1.4744  -47.2535   12.6074 O   0  0  0  0  0  0  0  0  0  0  0  0
    2.4987  -49.9599    9.3641 C   0  0  2  0  0  0  0  0  0  0  0  0
    3.1635  -50.5398    8.1856 N   0  0  0  0  0  0  0  0  0  0  0  0
    3.9681  -49.8848   13.9216 C   0  0  1  0  0  0  0  0  0  0  0  0
    6.8309  -50.5514   16.9434 C   0  0  1  0  0  0  0  0  0  0  0  0
    8.7628  -49.6433   21.5730 C   0  0  1  0  0  0  0  0  0  0  0  0
    0.9823  -46.4389   14.8561 C   0  0  2  0  0  0  0  0  0  0  0  0
   -0.2139  -47.2655   14.9369 N   0  0  0  0  0  0  0  0  0  0  0  0
    1.9151  -48.5206    9.0163 C   0  0  0  0  0  0  0  0  0  0  0  0
    5.1684  -49.3997   14.7138 C   0  0  2  0  0  0  0  0  0  0  0  0
    6.4080  -50.0224   14.2735 O   0  0  0  0  0  0  0  0  0  0  0  0
    7.3523  -51.8329   17.7467 C   0  0  2  0  0  0  0  0  0  0  0  0
    6.5033  -52.0791   18.9441 N   0  0  0  0  0  0  0  0  0  0  0  0
    7.9809  -50.6487   22.4480 C   0  0  1  0  0  0  0  0  0  0  0  0
    8.7790  -51.8460   22.6192 O   0  0  0  0  0  0  0  0  0  0  0  0
    0.6359  -44.9719   14.4041 C   0  0  0  0  0  0  0  0  0  0  0  0
    1.1821  -47.8959   10.2977 C   0  0  2  0  0  0  0  0  0  0  0  0
    0.6355  -46.5631   10.0035 N   0  0  0  0  0  0  0  0  0  0  0  0
    4.7589  -49.6712   16.1515 C   0  0  2  0  0  0  0  0  0  0  0  0
    5.4704  -50.7510   16.6925 O   0  0  0  0  0  0  0  0  0  0  0  0
    8.9250  -51.6088   18.0428 C   0  0  1  0  0  0  0  0  0  0  0  0
    9.5886  -51.4000   16.7830 O   0  0  0  0  0  0  0  0  0  0  0  0
    7.5229  -50.1697   23.8522 C   0  0  1  0  0  0  0  0  0  0  0  0
    8.5324  -50.5454   24.7978 O   0  0  0  0  0  0  0  0  0  0  0  0
    1.9607  -44.1433   14.3490 C   0  0  2  0  0  0  0  0  0  0  0  0
    1.6873  -42.8008   13.9604 O   0  0  0  0  0  0  0  0  0  0  0  0
    2.1955  -47.8107   11.4730 C   0  0  2  0  0  0  0  0  0  0  0  0
    3.2754  -50.1107   16.1696 C   0  0  2  0  0  0  0  0  0  0  0  0
    2.8752  -49.8983   14.8234 O   0  0  0  0  0  0  0  0  0  0  0  0
    9.1883  -50.2806   18.9264 C   0  0  2  0  0  0  0  0  0  0  0  0
    8.5239  -50.5415   20.1771 O   0  0  0  0  0  0  0  0  0  0  0  0
    7.2443  -48.6557   23.9968 C   0  0  2  0  0  0  0  0  0  0  0  0
    6.0521  -48.5523   24.8057 O   0  0  0  0  0  0  0  0  0  0  0  0
    2.9398  -44.7998   13.3341 C   0  0  2  0  0  0  0  0  0  0  0  0
    3.2100  -46.1839   13.7823 O   0  0  0  0  0  0  0  0  0  0  0  0
    2.8403  -49.1884   11.8154 C   0  0  2  0  0  0  0  0  0  0  0  0
    3.7900  -48.9708   12.8862 O   0  0  0  0  0  0  0  0  0  0  0  0
    2.3674  -49.2862   17.0752 C   0  0  0  0  0  0  0  0  0  0  0  0
    2.5605  -47.9080   16.7225 O   0  0  0  0  0  0  0  0  0  0  0  0
    8.4527  -49.1621   18.2128 C   0  0  1  0  0  0  0  0  0  0  0  0
    7.0978  -49.2517   17.7244 O   0  0  0  0  0  0  0  0  0  0  0  0
    7.1144  -47.9893   22.6298 C   0  0  2  0  0  0  0  0  0  0  0  0
    8.2079  -48.2649   21.7114 O   0  0  0  0  0  0  0  0  0  0  0  0
    4.2448  -44.0728   13.2607 C   0  0  0  0  0  0  0  0  0  0  0  0
    4.8506  -44.1403   14.5233 O   0  0  0  0  0  0  0  0  0  0  0  0
    3.5403  -49.7888   10.5418 C   0  0  1  0  0  0  0  0  0  0  0  0
    4.0898  -51.1069   10.8883 O   0  0  0  0  0  0  0  0  0  0  0  0
    8.5542  -47.7824   18.9548 C   0  0  0  0  0  0  0  0  0  0  0  0
    8.0249  -46.6430   18.1668 N   0  0  0  0  0  0  0  0  0  0  0  0
    6.8482  -46.4929   22.4818 C   0  0  0  0  0  0  0  0  0  0  0  0
    5.5845  -46.1357   23.1221 O   0  0  0  0  0  0  0  0  0  0  0  0
  1  2  1  6  0  0  0
  1  8  1  0  0  0  0
  1 36  1  0  0  0  0
  3  4  1  6  0  0  0
  3 10  1  0  0  0  0
  3 47  1  0  0  0  0
  5 11  1  0  0  0  0
  5 30  1  0  0  0  0
  5 38  1  6  0  0  0
  6 21  1  1  0  0  0
  6 42  1  0  0  0  0
  7 15  1  0  0  0  0
  7 44  1  0  0  0  0
  7 32  1  6  0  0  0
  8  9  1  6  0  0  0
  8 17  1  0  0  0  0
 11 12  1  6  0  0  0
 11 20  1  0  0  0  0
 13  6  1  0  0  0  0
 13 14  1  1  0  0  0
 15 16  1  1  0  0  0
 15 24  1  0  0  0  0
 17 26  1  0  0  0  0
 18 10  1  0  0  0  0
 18 19  1  6  0  0  0
 20 21  1  6  0  0  0
 20 29  1  0  0  0  0
 22 13  1  0  0  0  0
 22 23  1  6  0  0  0
 24 25  1  1  0  0  0
 24 33  1  0  0  0  0
 26 27  1  6  0  0  0
 26 35  1  0  0  0  0
 28  2  1  1  0  0  0
 28 18  1  0  0  0  0
 29 30  1  0  0  0  0
 29 39  1  1  0  0  0
 31 22  1  0  0  0  0
 31 32  1  1  0  0  0
 31 41  1  0  0  0  0
 33 34  1  1  0  0  0
 33 43  1  0  0  0  0
 35 36  1  0  0  0  0
 35 45  1  1  0  0  0
 37 28  1  0  0  0  0
 37 38  1  1  0  0  0
 39 40  1  0  0  0  0
 41 42  1  0  0  0  0
 41 49  1  1  0  0  0
 43 44  1  0  0  0  0
 43 51  1  1  0  0  0
 45 46  1  0  0  0  0
 47 37  1  0  0  0  0
 47 48  1  1  0  0  0
 49 50  1  0  0  0  0
 51 52  1  0  0  0  0
M  END
>  <CHROM.1>
179.75642773,172.07376405,171.77073723,-169.97764154,69.98571476,177.68823223
52.34451501,165.86241724,62.15054217,142.03309775,170.94137224,-60.10918055
4.98731418,-48.57652560,16.46500276,2.43562702,0.89192383,-2.11988219

>  <Name>
2fd0_lig

>  <RI>
0

>  <Rbt.Current_Directory>
/home/itssahil/PROJECTS/Mol_Feturizer/New_Systems/rnas/2fd0

>  <Rbt.Executable>
rbdock ($Id: //depot/dev/client3/rdock/2013.1/src/exe/rbdock.cxx#4 $)

>  <Rbt.Library>
libRbt.so (2013.1, Build901 2013/11/27)

>  <Rbt.Parameter_File>
/export/apps/rDock/src/rDock_2013.1_src/data/scripts/dock_solv.prm

>  <Rbt.Receptor>
prm/pocket_docking_8.prm

>  <SCORE>
-19.9967

>  <SCORE.INTER>
-12.7958

>  <SCORE.INTER.CONST>
1

>  <SCORE.INTER.POLAR>
-1.64575

>  <SCORE.INTER.ROT>
12

>  <SCORE.INTER.SOLV>
15.4335

>  <SCORE.INTER.VDW>
-19.7892

>  <SCORE.INTER.norm>
-0.246073

>  <SCORE.INTRA>
-7.20088

>  <SCORE.INTRA.DIHEDRAL>
-14.208

>  <SCORE.INTRA.DIHEDRAL.0>
23.9727

>  <SCORE.INTRA.POLAR>
0

>  <SCORE.INTRA.POLAR.0>
0

>  <SCORE.INTRA.REPUL>
0

>  <SCORE.INTRA.REPUL.0>
0

>  <SCORE.INTRA.SOLV>
-2.18424

>  <SCORE.INTRA.SOLV.lig_0>
-115.028

>  <SCORE.INTRA.VDW>
0.995227

>  <SCORE.INTRA.VDW.0>
-6.82393

>  <SCORE.INTRA.norm>
-0.138478

>  <SCORE.RESTR>
0

>  <SCORE.RESTR.CAVITY>
0

>  <SCORE.RESTR.norm>
0

>  <SCORE.SYSTEM>
0

>  <SCORE.SYSTEM.CONST>
0

>  <SCORE.SYSTEM.DIHEDRAL>
0

>  <SCORE.SYSTEM.SOLV>
0

>  <SCORE.SYSTEM.norm>
0

>  <SCORE.heavy>
52

>  <SCORE.norm>
-0.384551

>  <RMSD>
12.908

$$$$
2fd0_lig
 OpenBabel11021811433D
libRbt.so/2013.1/901 2013/11/27
 52 56  0  0  0  0  0  0  0  0999 V2000
   11.1528  -36.1239   17.5438 C   0  0  2  0  0  0  0  0  0  0  0  0
   12.5676  -36.1163   17.3086 O   0  0  0  0  0  0  0  0  0  0  0  0
   13.4186  -34.4330   13.3926 C   0  0  2  0  0  0  0  0  0  0  0  0
   14.0219  -34.2115   12.0683 N   0  0  0  0  0  0  0  0  0  0  0  0
   10.7411  -37.9955   13.9501 C   0  0  1  0  0  0  0  0  0  0  0  0
    9.7547  -41.8065   12.6740 C   0  0  1  0  0  0  0  0  0  0  0  0
    7.3999  -46.2861   11.5442 C   0  0  1  0  0  0  0  0  0  0  0  0
   10.8967  -35.8062   19.0621 C   0  0  2  0  0  0  0  0  0  0  0  0
   11.4900  -34.5366   19.4583 N   0  0  0  0  0  0  0  0  0  0  0  0
   14.5327  -34.3572   14.5267 C   0  0  0  0  0  0  0  0  0  0  0  0
   10.6765  -39.4864   14.2267 C   0  0  2  0  0  0  0  0  0  0  0  0
   11.6896  -40.2282   13.4909 O   0  0  0  0  0  0  0  0  0  0  0  0
    9.7510  -42.2889   11.1487 C   0  0  2  0  0  0  0  0  0  0  0  0
    8.3731  -42.2368   10.5883 N   0  0  0  0  0  0  0  0  0  0  0  0
    6.1087  -45.4410   11.4649 C   0  0  1  0  0  0  0  0  0  0  0  0
    5.9295  -44.9795   10.1030 O   0  0  0  0  0  0  0  0  0  0  0  0
   11.4148  -36.9873   19.9638 C   0  0  0  0  0  0  0  0  0  0  0  0
   13.8717  -34.5877   15.9686 C   0  0  2  0  0  0  0  0  0  0  0  0
   14.8816  -34.5251   17.0354 N   0  0  0  0  0  0  0  0  0  0  0  0
    9.2319  -39.8296   13.9043 C   0  0  2  0  0  0  0  0  0  0  0  0
    9.1316  -40.5558   12.7096 O   0  0  0  0  0  0  0  0  0  0  0  0
   10.4682  -43.7360   11.0993 C   0  0  1  0  0  0  0  0  0  0  0  0
   11.7844  -43.5988   11.6648 O   0  0  0  0  0  0  0  0  0  0  0  0
    4.7857  -46.1112   11.9248 C   0  0  1  0  0  0  0  0  0  0  0  0
    4.1581  -46.6864   10.7717 O   0  0  0  0  0  0  0  0  0  0  0  0
   10.7315  -38.3111   19.4891 C   0  0  2  0  0  0  0  0  0  0  0  0
   11.1613  -39.4044   20.2942 O   0  0  0  0  0  0  0  0  0  0  0  0
   13.1590  -35.9688   15.9874 C   0  0  2  0  0  0  0  0  0  0  0  0
    8.4557  -38.5156   13.6488 C   0  0  2  0  0  0  0  0  0  0  0  0
    9.4066  -37.5223   14.0050 O   0  0  0  0  0  0  0  0  0  0  0  0
    9.6899  -44.8252   12.0061 C   0  0  2  0  0  0  0  0  0  0  0  0
    8.3911  -44.9416   11.3953 O   0  0  0  0  0  0  0  0  0  0  0  0
    4.9182  -47.2001   13.0145 C   0  0  2  0  0  0  0  0  0  0  0  0
    3.8147  -46.9833   13.9210 O   0  0  0  0  0  0  0  0  0  0  0  0
   11.0938  -38.5752   17.9996 C   0  0  2  0  0  0  0  0  0  0  0  0
   10.6165  -37.4268   17.1977 O   0  0  0  0  0  0  0  0  0  0  0  0
   12.0959  -36.1149   14.8564 C   0  0  2  0  0  0  0  0  0  0  0  0
   11.5394  -37.4482   14.9512 O   0  0  0  0  0  0  0  0  0  0  0  0
    7.2132  -38.3203   14.5104 C   0  0  0  0  0  0  0  0  0  0  0  0
    6.4281  -39.5166   14.3939 O   0  0  0  0  0  0  0  0  0  0  0  0
    9.5265  -44.1805   13.3696 C   0  0  1  0  0  0  0  0  0  0  0  0
    9.0616  -42.8323   13.5895 O   0  0  0  0  0  0  0  0  0  0  0  0
    6.2852  -47.1359   13.6903 C   0  0  2  0  0  0  0  0  0  0  0  0
    7.4167  -47.1279   12.7764 O   0  0  0  0  0  0  0  0  0  0  0  0
   10.4398  -39.8128   17.4726 C   0  0  0  0  0  0  0  0  0  0  0  0
   11.1705  -40.9182   17.9307 O   0  0  0  0  0  0  0  0  0  0  0  0
   12.7625  -35.8708   13.4533 C   0  0  1  0  0  0  0  0  0  0  0  0
   11.7228  -35.9651   12.4191 O   0  0  0  0  0  0  0  0  0  0  0  0
    8.7420  -45.0798   14.3895 C   0  0  0  0  0  0  0  0  0  0  0  0
    7.3508  -44.6277   14.6335 N   0  0  0  0  0  0  0  0  0  0  0  0
    6.6857  -48.1069   14.7987 C   0  0  0  0  0  0  0  0  0  0  0  0
    7.9199  -47.6627   15.4421 O   0  0  0  0  0  0  0  0  0  0  0  0
  1  2  1  1  0  0  0
  1  8  1  0  0  0  0
  1 36  1  0  0  0  0
  3  4  1  6  0  0  0
  3 10  1  0  0  0  0
  3 47  1  0  0  0  0
  5 11  1  0  0  0  0
  5 30  1  0  0  0  0
  5 38  1  1  0  0  0
  6 21  1  6  0  0  0
  6 42  1  0  0  0  0
  7 15  1  0  0  0  0
  7 44  1  0  0  0  0
  7 32  1  1  0  0  0
  8  9  1  1  0  0  0
  8 17  1  0  0  0  0
 11 12  1  6  0  0  0
 11 20  1  0  0  0  0
 13  6  1  0  0  0  0
 13 14  1  1  0  0  0
 15 16  1  6  0  0  0
 15 24  1  0  0  0  0
 17 26  1  0  0  0  0
 18 10  1  0  0  0  0
 18 19  1  1  0  0  0
 20 21  1  6  0  0  0
 20 29  1  0  0  0  0
 22 13  1  0  0  0  0
 22 23  1  1  0  0  0
 24 25  1  6  0  0  0
 24 33  1  0  0  0  0
 26 27  1  1  0  0  0
 26 35  1  0  0  0  0
 28  2  1  1  0  0  0
 28 18  1  0  0  0  0
 29 30  1  0  0  0  0
 29 39  1  1  0  0  0
 31 22  1  0  0  0  0
 31 32  1  6  0  0  0
 31 41  1  0  0  0  0
 33 34  1  1  0  0  0
 33 43  1  0  0  0  0
 35 36  1  0  0  0  0
 35 45  1  6  0  0  0
 37 28  1  0  0  0  0
 37 38  1  6  0  0  0
 39 40  1  0  0  0  0
 41 42  1  0  0  0  0
 41 49  1  1  0  0  0
 43 44  1  0  0  0  0
 43 51  1  1  0  0  0
 45 46  1  0  0  0  0
 47 37  1  0  0  0  0
 47 48  1  6  0  0  0
 49 50  1  0  0  0  0
 51 52  1  0  0  0  0
M  END
>  <CHROM.1>
-160.81712846,164.96911811,-168.87030831,148.16338254,62.55744035,112.09648198
-51.05343946,156.23953425,-78.61250249,-168.09443608,-105.17734903,-168.80212280
9.69693747,-40.69609647,14.40306755,0.42362725,1.03585869,1.44619566

>  <Name>
2fd0_lig

>  <RI>
2.85265e+07

>  <Rbt.Current_Directory>
/home/itssahil/PROJECTS/Mol_Feturizer/New_Systems/rnas/2fd0

>  <Rbt.Executable>
rbdock ($Id: //depot/dev/client3/rdock/2013.1/src/exe/rbdock.cxx#4 $)

>  <Rbt.Library>
libRbt.so (2013.1, Build901 2013/11/27)

>  <Rbt.Parameter_File>
/export/apps/rDock/src/rDock_2013.1_src/data/scripts/dock_solv.prm

>  <Rbt.Receptor>
prm/blind_docking_60.prm

>  <SCORE>
-5.87047

>  <SCORE.INTER>
-11.7773

>  <SCORE.INTER.CONST>
1

>  <SCORE.INTER.POLAR>
-0.27975

>  <SCORE.INTER.ROT>
12

>  <SCORE.INTER.SOLV>
21.861

>  <SCORE.INTER.VDW>
-25.806

>  <SCORE.INTER.norm>
-0.226486

>  <SCORE.INTRA>
3.9549

>  <SCORE.INTRA.DIHEDRAL>
-0.31044

>  <SCORE.INTRA.DIHEDRAL.0>
23.9727

>  <SCORE.INTRA.POLAR>
0

>  <SCORE.INTRA.POLAR.0>
0

>  <SCORE.INTRA.REPUL>
0

>  <SCORE.INTRA.REPUL.0>
0

>  <SCORE.INTRA.SOLV>
3.14466

>  <SCORE.INTRA.SOLV.lig_0>
-115.028

>  <SCORE.INTRA.VDW>
2.5378

>  <SCORE.INTRA.VDW.0>
-6.82393

>  <SCORE.INTRA.norm>
0.0760559

>  <SCORE.RESTR>
1.95192

>  <SCORE.RESTR.CAVITY>
1.95192

>  <SCORE.RESTR.norm>
0.0375369

>  <SCORE.SYSTEM>
0

>  <SCORE.SYSTEM.CONST>
0

>  <SCORE.SYSTEM.DIHEDRAL>
0

>  <SCORE.SYSTEM.SOLV>
0

>  <SCORE.SYSTEM.norm>
0

>  <SCORE.heavy>
52

>  <SCORE.norm>
-0.112894

>  <RMSD>
12.936

$$$$
2fd0_lig
 OpenBabel11021811433D
libRbt.so/2013.1/901 2013/11/27
 52 56  0  0  0  0  0  0  0  0999 V2000
   -6.9001  -51.2273    4.4250 C   0  0  2  0  0  0  0  0  0  0  0  0
   -5.6760  -50.6532    3.9465 O   0  0  0  0  0  0  0  0  0  0  0  0
   -4.7124  -47.2998    1.3545 C   0  0  2  0  0  0  0  0  0  0  0  0
   -4.6187  -45.9338    0.8137 N   0  0  0  0  0  0  0  0  0  0  0  0
   -2.1080  -48.8288    4.8697 C   0  0  1  0  0  0  0  0  0  0  0  0
    0.4788  -48.7665    8.1865 C   0  0  1  0  0  0  0  0  0  0  0  0
    4.3222  -49.5622   11.2249 C   0  0  1  0  0  0  0  0  0  0  0  0
   -6.5790  -52.1103    5.6855 C   0  0  2  0  0  0  0  0  0  0  0  0
   -5.9130  -51.3438    6.7294 N   0  0  0  0  0  0  0  0  0  0  0  0
   -6.2368  -47.7117    1.5531 C   0  0  0  0  0  0  0  0  0  0  0  0
   -1.8873  -49.0288    6.3579 C   0  0  2  0  0  0  0  0  0  0  0  0
   -1.8189  -47.7669    7.0798 O   0  0  0  0  0  0  0  0  0  0  0  0
    1.9391  -48.1936    8.5006 C   0  0  2  0  0  0  0  0  0  0  0  0
    2.9818  -49.1834    8.1154 N   0  0  0  0  0  0  0  0  0  0  0  0
    4.0317  -49.5440   12.7425 C   0  0  1  0  0  0  0  0  0  0  0  0
    3.7955  -50.9004   13.1943 O   0  0  0  0  0  0  0  0  0  0  0  0
   -5.7321  -53.3700    5.2705 C   0  0  0  0  0  0  0  0  0  0  0  0
   -6.3365  -49.2033    2.1315 C   0  0  2  0  0  0  0  0  0  0  0  0
   -7.7364  -49.6080    2.3270 N   0  0  0  0  0  0  0  0  0  0  0  0
   -0.6381  -49.8924    6.4032 C   0  0  2  0  0  0  0  0  0  0  0  0
    0.4740  -49.1631    6.8461 O   0  0  0  0  0  0  0  0  0  0  0  0
    1.9536  -47.7347   10.0499 C   0  0  1  0  0  0  0  0  0  0  0  0
    0.8974  -46.7756   10.2387 O   0  0  0  0  0  0  0  0  0  0  0  0
    5.1032  -48.9071   13.6683 C   0  0  1  0  0  0  0  0  0  0  0  0
    5.9728  -49.9525   14.1213 O   0  0  0  0  0  0  0  0  0  0  0  0
   -6.5095  -54.1465    4.1581 C   0  0  2  0  0  0  0  0  0  0  0  0
   -5.7828  -55.3071    3.7668 O   0  0  0  0  0  0  0  0  0  0  0  0
   -5.5647  -49.2800    3.4784 C   0  0  2  0  0  0  0  0  0  0  0  0
   -0.2882  -50.3335    4.9618 C   0  0  2  0  0  0  0  0  0  0  0  0
   -1.4096  -49.8763    4.2195 O   0  0  0  0  0  0  0  0  0  0  0  0
    1.6376  -48.9681   11.0464 C   0  0  2  0  0  0  0  0  0  0  0  0
    2.7240  -49.8896   10.8361 O   0  0  0  0  0  0  0  0  0  0  0  0
    5.9605  -47.7827   13.0428 C   0  0  2  0  0  0  0  0  0  0  0  0
    6.0909  -46.7732   14.0677 O   0  0  0  0  0  0  0  0  0  0  0  0
   -6.7228  -53.2158    2.9301 C   0  0  2  0  0  0  0  0  0  0  0  0
   -7.4937  -52.0337    3.3750 O   0  0  0  0  0  0  0  0  0  0  0  0
   -4.0776  -48.8301    3.3485 C   0  0  2  0  0  0  0  0  0  0  0  0
   -3.4837  -48.9028    4.6669 O   0  0  0  0  0  0  0  0  0  0  0  0
   -0.1610  -51.8392    4.7590 C   0  0  0  0  0  0  0  0  0  0  0  0
   -1.4259  -52.4196    5.1116 O   0  0  0  0  0  0  0  0  0  0  0  0
    0.3608  -49.5994   10.5240 C   0  0  1  0  0  0  0  0  0  0  0  0
    0.1100  -49.9184    9.1393 O   0  0  0  0  0  0  0  0  0  0  0  0
    5.3294  -47.2652   11.7530 C   0  0  2  0  0  0  0  0  0  0  0  0
    4.9817  -48.2967   10.7884 O   0  0  0  0  0  0  0  0  0  0  0  0
   -7.4947  -53.8900    1.8408 C   0  0  0  0  0  0  0  0  0  0  0  0
   -6.6687  -54.8642    1.2627 O   0  0  0  0  0  0  0  0  0  0  0  0
   -4.0033  -47.3712    2.7663 C   0  0  1  0  0  0  0  0  0  0  0  0
   -2.5895  -47.0020    2.6097 O   0  0  0  0  0  0  0  0  0  0  0  0
   -0.0880  -50.8594   11.3458 C   0  0  0  0  0  0  0  0  0  0  0  0
   -0.4653  -50.5522   12.7468 N   0  0  0  0  0  0  0  0  0  0  0  0
    5.9761  -46.1578   10.9239 C   0  0  0  0  0  0  0  0  0  0  0  0
    5.0748  -45.7295    9.8568 O   0  0  0  0  0  0  0  0  0  0  0  0
  1  2  1  6  0  0  0
  1  8  1  0  0  0  0
  1 36  1  0  0  0  0
  3  4  1  1  0  0  0
  3 10  1  0  0  0  0
  3 47  1  0  0  0  0
  5 11  1  0  0  0  0
  5 30  1  0  0  0  0
  5 38  1  1  0  0  0
  6 21  1  6  0  0  0
  6 42  1  0  0  0  0
  7 15  1  0  0  0  0
  7 44  1  0  0  0  0
  7 32  1  6  0  0  0
  8  9  1  1  0  0  0
  8 17  1  0  0  0  0
 11 12  1  1  0  0  0
 11 20  1  0  0  0  0
 13  6  1  0  0  0  0
 13 14  1  1  0  0  0
 15 16  1  1  0  0  0
 15 24  1  0  0  0  0
 17 26  1  0  0  0  0
 18 10  1  0  0  0  0
 18 19  1  1  0  0  0
 20 21  1  6  0  0  0
 20 29  1  0  0  0  0
 22 13  1  0  0  0  0
 22 23  1  6  0  0  0
 24 25  1  6  0  0  0
 24 33  1  0  0  0  0
 26 27  1  6  0  0  0
 26 35  1  0  0  0  0
 28  2  1  6  0  0  0
 28 18  1  0  0  0  0
 29 30  1  0  0  0  0
 29 39  1  1  0  0  0
 31 22  1  0  0  0  0
 31 32  1  6  0  0  0
 31 41  1  0  0  0  0
 33 34  1  1  0  0  0
 33 43  1  0  0  0  0
 35 36  1  0  0  0  0
 35 45  1  6  0  0  0
 37 28  1  0  0  0  0
 37 38  1  1  0  0  0
 39 40  1  0  0  0  0
 41 42  1  0  0  0  0
 41 49  1  1  0  0  0
 43 44  1  0  0  0  0
 43 51  1  6  0  0  0
 45 46  1  0  0  0  0
 47 37  1  0  0  0  0
 47 48  1  6  0  0  0
 49 50  1  0  0  0  0
 51 52  1  0  0  0  0
M  END
>  <CHROM.1>
-138.99490225,-176.55561879,170.17657744,67.14717293,69.10600823,-70.02873451
59.68271479,65.48589284,-70.96047217,166.85310256,65.02179090,-171.95476865
-1.13422294,-49.70053637,7.04283124,2.91373601,-0.71276566,-0.62880658

>  <Name>
2fd0_lig

>  <RI>
3.4301e+07

>  <Rbt.Current_Directory>
/home/itssahil/PROJECTS/Mol_Feturizer/New_Systems/rnas/2fd0

>  <Rbt.Executable>
rbdock ($Id: //depot/dev/client3/rdock/2013.1/src/exe/rbdock.cxx#4 $)

>  <Rbt.Library>
libRbt.so (2013.1, Build901 2013/11/27)

>  <Rbt.Parameter_File>
/export/apps/rDock/src/rDock_2013.1_src/data/scripts/dock_solv.prm

>  <Rbt.Receptor>
prm/pocket_docking_7.prm

>  <SCORE>
-8.68139

>  <SCORE.INTER>
-3.49354

>  <SCORE.INTER.CONST>
1

>  <SCORE.INTER.POLAR>
-1.15623

>  <SCORE.INTER.ROT>
12

>  <SCORE.INTER.SOLV>
10.624

>  <SCORE.INTER.VDW>
-13.6163

>  <SCORE.INTER.norm>
-0.0671834

>  <SCORE.INTRA>
-5.18785

>  <SCORE.INTRA.DIHEDRAL>
-13.3904

>  <SCORE.INTRA.DIHEDRAL.0>
23.9727

>  <SCORE.INTRA.POLAR>
0

>  <SCORE.INTRA.POLAR.0>
0

>  <SCORE.INTRA.REPUL>
0

>  <SCORE.INTRA.REPUL.0>
0

>  <SCORE.INTRA.SOLV>
-1.1609

>  <SCORE.INTRA.SOLV.lig_0>
-115.028

>  <SCORE.INTRA.VDW>
2.08782

>  <SCORE.INTRA.VDW.0>
-6.82393

>  <SCORE.INTRA.norm>
-0.0997663

>  <SCORE.RESTR>
0

>  <SCORE.RESTR.CAVITY>
0

>  <SCORE.RESTR.norm>
0

>  <SCORE.SYSTEM>
0

>  <SCORE.SYSTEM.CONST>
0

>  <SCORE.SYSTEM.DIHEDRAL>
0

>  <SCORE.SYSTEM.SOLV>
0

>  <SCORE.SYSTEM.norm>
0

>  <SCORE.heavy>
52

>  <SCORE.norm>
-0.16695

>  <RMSD>
12.936

$$$$
2fd0_lig
 OpenBabel11021811433D
libRbt.so/2013.1/901 2013/11/27
 52 56  0  0  0  0  0  0  0  0999 V2000
   -5.6091  -47.6346    1.9794 C   0  0  2  0  0  0  0  0  0  0  0  0
   -5.6075  -48.8939    2.6660 O   0  0  0  0  0  0  0  0  0  0  0  0
   -6.1387  -53.0963    1.6915 C   0  0  2  0  0  0  0  0  0  0  0  0
   -6.0245  -54.3990    1.0154 N   0  0  0  0  0  0  0  0  0  0  0  0
   -2.7326  -51.4972    4.2720 C   0  0  1  0  0  0  0  0  0  0  0  0
    0.7862  -50.7677    6.5927 C   0  0  1  0  0  0  0  0  0  0  0  0
    3.9293  -50.4107   10.7029 C   0  0  1  0  0  0  0  0  0  0  0  0
   -4.2361  -47.4713    1.2313 C   0  0  2  0  0  0  0  0  0  0  0  0
   -3.9849  -48.5724    0.3120 N   0  0  0  0  0  0  0  0  0  0  0  0
   -6.6736  -51.9928    0.6771 C   0  0  0  0  0  0  0  0  0  0  0  0
   -1.6880  -50.5247    4.7883 C   0  0  2  0  0  0  0  0  0  0  0  0
   -0.4553  -50.5782    4.0164 O   0  0  0  0  0  0  0  0  0  0  0  0
    2.0342  -51.7655    6.6733 C   0  0  2  0  0  0  0  0  0  0  0  0
    1.8522  -52.7399    7.7837 N   0  0  0  0  0  0  0  0  0  0  0  0
    2.5046  -50.3629   11.2993 C   0  0  1  0  0  0  0  0  0  0  0  0
    1.9949  -51.7146   11.4133 O   0  0  0  0  0  0  0  0  0  0  0  0
   -3.0631  -47.3110    2.2681 C   0  0  0  0  0  0  0  0  0  0  0  0
   -6.8077  -50.5778    1.4184 C   0  0  2  0  0  0  0  0  0  0  0  0
   -7.2982  -49.5386    0.5012 N   0  0  0  0  0  0  0  0  0  0  0  0
   -1.5729  -50.8976    6.2567 C   0  0  2  0  0  0  0  0  0  0  0  0
   -0.3655  -51.5569    6.5255 O   0  0  0  0  0  0  0  0  0  0  0  0
    3.3703  -50.8604    6.7536 C   0  0  1  0  0  0  0  0  0  0  0  0
    3.3892  -49.9938    5.6048 O   0  0  0  0  0  0  0  0  0  0  0  0
    2.3278  -49.6635   12.6742 C   0  0  1  0  0  0  0  0  0  0  0  0
    2.4298  -50.6644   13.6950 O   0  0  0  0  0  0  0  0  0  0  0  0
   -3.3953  -46.1097    3.2121 C   0  0  2  0  0  0  0  0  0  0  0  0
   -2.3464  -45.9195    4.1564 O   0  0  0  0  0  0  0  0  0  0  0  0
   -5.4227  -50.1716    1.9949 C   0  0  2  0  0  0  0  0  0  0  0  0
   -2.6813  -51.9227    6.5959 C   0  0  2  0  0  0  0  0  0  0  0  0
   -3.4563  -51.9429    5.4058 O   0  0  0  0  0  0  0  0  0  0  0  0
    3.3695  -49.8993    8.0539 C   0  0  2  0  0  0  0  0  0  0  0  0
    3.3679  -50.8058    9.1728 O   0  0  0  0  0  0  0  0  0  0  0  0
    3.3254  -48.5256   12.9915 C   0  0  2  0  0  0  0  0  0  0  0  0
    2.5459  -47.4855   13.6214 O   0  0  0  0  0  0  0  0  0  0  0  0
   -4.7329  -46.3900    3.9551 C   0  0  2  0  0  0  0  0  0  0  0  0
   -5.7965  -46.5646    2.9414 O   0  0  0  0  0  0  0  0  0  0  0  0
   -4.8277  -51.2489    2.9522 C   0  0  2  0  0  0  0  0  0  0  0  0
   -3.5284  -50.7782    3.3838 O   0  0  0  0  0  0  0  0  0  0  0  0
   -3.5920  -51.5312    7.7542 C   0  0  0  0  0  0  0  0  0  0  0  0
   -4.2074  -50.2827    7.4022 O   0  0  0  0  0  0  0  0  0  0  0  0
    2.0403  -49.1689    8.0220 C   0  0  1  0  0  0  0  0  0  0  0  0
    0.7632  -49.7989    7.7891 O   0  0  0  0  0  0  0  0  0  0  0  0
    4.0513  -48.0655   11.7301 C   0  0  2  0  0  0  0  0  0  0  0  0
    4.6603  -49.1341   10.9537 O   0  0  0  0  0  0  0  0  0  0  0  0
   -5.1267  -45.2586    4.8506 C   0  0  0  0  0  0  0  0  0  0  0  0
   -6.3641  -45.5738    5.4295 O   0  0  0  0  0  0  0  0  0  0  0  0
   -4.7188  -52.6307    2.2096 C   0  0  1  0  0  0  0  0  0  0  0  0
   -4.2044  -53.6305    3.1557 O   0  0  0  0  0  0  0  0  0  0  0  0
    1.8318  -48.2092    9.2467 C   0  0  0  0  0  0  0  0  0  0  0  0
    0.5692  -47.4336    9.1863 N   0  0  0  0  0  0  0  0  0  0  0  0
    5.1019  -46.9577   11.7603 C   0  0  0  0  0  0  0  0  0  0  0  0
    4.4920  -45.6895   12.1529 O   0  0  0  0  0  0  0  0  0  0  0  0
  1  2  1  1  0  0  0
  1  8  1  0  0  0  0
  1 36  1  0  0  0  0
  3  4  1  6  0  0  0
  3 10  1  0  0  0  0
  3 47  1  0  0  0  0
  5 11  1  0  0  0  0
  5 30  1  0  0  0  0
  5 38  1  6  0  0  0
  6 21  1  1  0  0  0
  6 42  1  0  0  0  0
  7 15  1  0  0  0  0
  7 44  1  0  0  0  0
  7 32  1  6  0  0  0
  8  9  1  1  0  0  0
  8 17  1  0  0  0  0
 11 12  1  6  0  0  0
 11 20  1  0  0  0  0
 13  6  1  0  0  0  0
 13 14  1  1  0  0  0
 15 16  1  1  0  0  0
 15 24  1  0  0  0  0
 17 26  1  0  0  0  0
 18 10  1  0  0  0  0
 18 19  1  6  0  0  0
 20 21  1  6  0  0  0
 20 29  1  0  0  0  0
 22 13  1  0  0  0  0
 22 23  1  6  0  0  0
 24 25  1  1  0  0  0
 24 33  1  0  0  0  0
 26 27  1  1  0  0  0
 26 35  1  0  0  0  0
 28  2  1  1  0  0  0
 28 18  1  0  0  0  0
 29 30  1  0  0  0  0
 29 39  1  1  0  0  0
 31 22  1  0  0  0  0
 31 32  1  1  0  0  0
 31 41  1  0  0  0  0
 33 34  1  6  0  0  0
 33 43  1  0  0  0  0
 35 36  1  0  0  0  0
 35 45  1  1  0  0  0
 37 28  1  0  0  0  0
 37 38  1  6  0  0  0
 39 40  1  0  0  0  0
 41 42  1  0  0  0  0
 41 49  1  1  0  0  0
 43 44  1  0  0  0  0
 43 51  1  1  0  0  0
 45 46  1  0  0  0  0
 47 37  1  0  0  0  0
 47 48  1  1  0  0  0
 49 50  1  0  0  0  0
 51 52  1  0  0  0  0
M  END
>  <CHROM.1>
-58.45006659,-163.54553359,-171.17279333,107.80942949,76.36059227,-82.28889063
58.90366230,156.10758793,177.49692724,178.78903411,176.77192808,-64.43895848
-1.24370454,-49.68547636,6.26340226,2.92783135,0.77607491,-2.91716670

>  <Name>
2fd0_lig

>  <RI>
0

>  <Rbt.Current_Directory>
/home/itssahil/PROJECTS/Mol_Feturizer/New_Systems/rnas/2fd0

>  <Rbt.Executable>
rbdock ($Id: //depot/dev/client3/rdock/2013.1/src/exe/rbdock.cxx#4 $)

>  <Rbt.Library>
libRbt.so (2013.1, Build901 2013/11/27)

>  <Rbt.Parameter_File>
/export/apps/rDock/src/rDock_2013.1_src/data/scripts/dock_solv.prm

>  <Rbt.Receptor>
prm/pocket_docking_5.prm

>  <SCORE>
-2.75658

>  <SCORE.INTER>
-0.283654

>  <SCORE.INTER.CONST>
1

>  <SCORE.INTER.POLAR>
-0.5077

>  <SCORE.INTER.ROT>
12

>  <SCORE.INTER.SOLV>
6.38273

>  <SCORE.INTER.VDW>
-12.2243

>  <SCORE.INTER.norm>
-0.00545489

>  <SCORE.INTRA>
-2.47293

>  <SCORE.INTRA.DIHEDRAL>
-8.32747

>  <SCORE.INTRA.DIHEDRAL.0>
23.9727

>  <SCORE.INTRA.POLAR>
0

>  <SCORE.INTRA.POLAR.0>
0

>  <SCORE.INTRA.REPUL>
0

>  <SCORE.INTRA.REPUL.0>
0

>  <SCORE.INTRA.SOLV>
0.641704

>  <SCORE.INTRA.SOLV.lig_0>
-115.028

>  <SCORE.INTRA.VDW>
1.36995

>  <SCORE.INTRA.VDW.0>
-6.82393

>  <SCORE.INTRA.norm>
-0.0475563

>  <SCORE.RESTR>
0

>  <SCORE.RESTR.CAVITY>
0

>  <SCORE.RESTR.norm>
0

>  <SCORE.SYSTEM>
0

>  <SCORE.SYSTEM.CONST>
0

>  <SCORE.SYSTEM.DIHEDRAL>
0

>  <SCORE.SYSTEM.SOLV>
0

>  <SCORE.SYSTEM.norm>
0

>  <SCORE.heavy>
52

>  <SCORE.norm>
-0.0530112

>  <RMSD>
12.974

$$$$
2fd0_lig
 OpenBabel11021811433D
libRbt.so/2013.1/901 2013/11/27
 52 56  0  0  0  0  0  0  0  0999 V2000
   10.8562  -35.9986   15.2188 C   0  0  2  0  0  0  0  0  0  0  0  0
   11.3339  -37.2397   15.7561 O   0  0  0  0  0  0  0  0  0  0  0  0
   11.1807  -39.3121   19.5736 C   0  0  2  0  0  0  0  0  0  0  0  0
   10.6726  -39.9128   20.8178 N   0  0  0  0  0  0  0  0  0  0  0  0
   10.4220  -41.3594   15.5959 C   0  0  1  0  0  0  0  0  0  0  0  0
    8.0832  -44.0713   13.3970 C   0  0  1  0  0  0  0  0  0  0  0  0
    5.2461  -47.2424   15.4388 C   0  0  1  0  0  0  0  0  0  0  0  0
   11.1040  -35.9975   13.6664 C   0  0  2  0  0  0  0  0  0  0  0  0
   10.4676  -37.1337   13.0146 N   0  0  0  0  0  0  0  0  0  0  0  0
   10.8137  -37.7645   19.5176 C   0  0  0  0  0  0  0  0  0  0  0  0
    9.3593  -41.6124   14.5423 C   0  0  2  0  0  0  0  0  0  0  0  0
    8.0729  -41.9584   15.1284 O   0  0  0  0  0  0  0  0  0  0  0  0
    7.1724  -44.3441   14.6837 C   0  0  2  0  0  0  0  0  0  0  0  0
    7.7141  -45.4826   15.4745 N   0  0  0  0  0  0  0  0  0  0  0  0
    6.2391  -48.4039   15.6679 C   0  0  1  0  0  0  0  0  0  0  0  0
    7.5630  -47.8569   15.8870 O   0  0  0  0  0  0  0  0  0  0  0  0
   12.6464  -35.9498   13.3580 C   0  0  0  0  0  0  0  0  0  0  0  0
   11.3776  -37.1102   18.1673 C   0  0  2  0  0  0  0  0  0  0  0  0
   11.0493  -35.6791   18.0894 N   0  0  0  0  0  0  0  0  0  0  0  0
    9.9989  -42.6732   13.6623 C   0  0  2  0  0  0  0  0  0  0  0  0
    9.3977  -43.9255   13.8492 O   0  0  0  0  0  0  0  0  0  0  0  0
    5.6504  -44.5160   14.1689 C   0  0  1  0  0  0  0  0  0  0  0  0
    5.2911  -43.3278   13.4408 O   0  0  0  0  0  0  0  0  0  0  0  0
    5.9287  -49.3928   16.8240 C   0  0  1  0  0  0  0  0  0  0  0  0
    6.6154  -48.9327   17.9949 O   0  0  0  0  0  0  0  0  0  0  0  0
   13.2588  -34.7048   14.0790 C   0  0  2  0  0  0  0  0  0  0  0  0
   14.6543  -34.6152   13.8091 O   0  0  0  0  0  0  0  0  0  0  0  0
   10.7779  -37.8635   16.9472 C   0  0  2  0  0  0  0  0  0  0  0  0
   11.4713  -42.8585   14.1005 C   0  0  2  0  0  0  0  0  0  0  0  0
   11.6462  -41.8099   15.0425 O   0  0  0  0  0  0  0  0  0  0  0  0
    5.4998  -45.7508   13.1360 C   0  0  2  0  0  0  0  0  0  0  0  0
    5.8510  -46.9135   13.9096 O   0  0  0  0  0  0  0  0  0  0  0  0
    4.4341  -49.5887   17.1683 C   0  0  2  0  0  0  0  0  0  0  0  0
    4.2705  -51.0030   17.4123 O   0  0  0  0  0  0  0  0  0  0  0  0
   13.0221  -34.8261   15.6116 C   0  0  2  0  0  0  0  0  0  0  0  0
   11.5634  -34.8997   15.8492 O   0  0  0  0  0  0  0  0  0  0  0  0
   11.0612  -39.3962   16.9853 C   0  0  2  0  0  0  0  0  0  0  0  0
   10.4191  -39.9867   15.8298 O   0  0  0  0  0  0  0  0  0  0  0  0
   12.5031  -42.6836   12.9917 C   0  0  0  0  0  0  0  0  0  0  0  0
   13.7967  -42.8581   13.5895 O   0  0  0  0  0  0  0  0  0  0  0  0
    6.5667  -45.5331   12.0797 C   0  0  1  0  0  0  0  0  0  0  0  0
    7.9426  -45.2002   12.3595 O   0  0  0  0  0  0  0  0  0  0  0  0
    3.5400  -49.0541   16.0528 C   0  0  2  0  0  0  0  0  0  0  0  0
    3.8369  -47.6934   15.6335 O   0  0  0  0  0  0  0  0  0  0  0  0
   13.5548  -33.6446   16.3582 C   0  0  0  0  0  0  0  0  0  0  0  0
   13.1624  -33.7656   17.6988 O   0  0  0  0  0  0  0  0  0  0  0  0
   10.5131  -40.0139   18.3234 C   0  0  1  0  0  0  0  0  0  0  0  0
   10.8433  -41.4457   18.3470 O   0  0  0  0  0  0  0  0  0  0  0  0
    6.6086  -46.6705   10.9985 C   0  0  0  0  0  0  0  0  0  0  0  0
    5.4991  -46.5991   10.0170 N   0  0  0  0  0  0  0  0  0  0  0  0
    2.0165  -49.1119   16.1398 C   0  0  0  0  0  0  0  0  0  0  0  0
    1.5979  -49.4706   17.4928 O   0  0  0  0  0  0  0  0  0  0  0  0
  1  2  1  1  0  0  0
  1  8  1  0  0  0  0
  1 36  1  0  0  0  0
  3  4  1  1  0  0  0
  3 10  1  0  0  0  0
  3 47  1  0  0  0  0
  5 11  1  0  0  0  0
  5 30  1  0  0  0  0
  5 38  1  6  0  0  0
  6 21  1  1  0  0  0
  6 42  1  0  0  0  0
  7 15  1  0  0  0  0
  7 44  1  0  0  0  0
  7 32  1  6  0  0  0
  8  9  1  1  0  0  0
  8 17  1  0  0  0  0
 11 12  1  1  0  0  0
 11 20  1  0  0  0  0
 13  6  1  0  0  0  0
 13 14  1  6  0  0  0
 15 16  1  1  0  0  0
 15 24  1  0  0  0  0
 17 26  1  0  0  0  0
 18 10  1  0  0  0  0
 18 19  1  6  0  0  0
 20 21  1  1  0  0  0
 20 29  1  0  0  0  0
 22 13  1  0  0  0  0
 22 23  1  6  0  0  0
 24 25  1  1  0  0  0
 24 33  1  0  0  0  0
 26 27  1  1  0  0  0
 26 35  1  0  0  0  0
 28  2  1  6  0  0  0
 28 18  1  0  0  0  0
 29 30  1  0  0  0  0
 29 39  1  6  0  0  0
 31 22  1  0  0  0  0
 31 32  1  1  0  0  0
 31 41  1  0  0  0  0
 33 34  1  6  0  0  0
 33 43  1  0  0  0  0
 35 36  1  0  0  0  0
 35 45  1  1  0  0  0
 37 28  1  0  0  0  0
 37 38  1  6  0  0  0
 39 40  1  0  0  0  0
 41 42  1  0  0  0  0
 41 49  1  1  0  0  0
 43 44  1  0  0  0  0
 43 51  1  1  0  0  0
 45 46  1  0  0  0  0
 47 37  1  0  0  0  0
 47 48  1  6  0  0  0
 49 50  1  0  0  0  0
 51 52  1  0  0  0  0
M  END
>  <CHROM.1>
-151.24055094,164.88490673,-115.79855546,-170.05649214,68.67367915,-78.82313447
178.60985151,47.71389953,173.25501733,-176.80727865,75.09443037,11.54761253
8.92224742,-42.24851314,15.40550400,-0.21511227,-1.00624932,-1.76671580

>  <Name>
2fd0_lig

>  <RI>
2.60878e+07

>  <Rbt.Current_Directory>
/home/itssahil/PROJECTS/Mol_Feturizer/New_Systems/rnas/2fd0

>  <Rbt.Executable>
rbdock ($Id: //depot/dev/client3/rdock/2013.1/src/exe/rbdock.cxx#4 $)

>  <Rbt.Library>
libRbt.so (2013.1, Build901 2013/11/27)

>  <Rbt.Parameter_File>
/export/apps/rDock/src/rDock_2013.1_src/data/scripts/dock_solv.prm

>  <Rbt.Receptor>
prm/blind_docking_80.prm

>  <SCORE>
-13.9634

>  <SCORE.INTER>
-21.0719

>  <SCORE.INTER.CONST>
1

>  <SCORE.INTER.POLAR>
-0.968875

>  <SCORE.INTER.ROT>
12

>  <SCORE.INTER.SOLV>
25.6673

>  <SCORE.INTER.VDW>
-30.9741

>  <SCORE.INTER.norm>
-0.405229

>  <SCORE.INTRA>
4.48871

>  <SCORE.INTRA.DIHEDRAL>
-2.88894

>  <SCORE.INTRA.DIHEDRAL.0>
23.9727

>  <SCORE.INTRA.POLAR>
0

>  <SCORE.INTRA.POLAR.0>
0

>  <SCORE.INTRA.REPUL>
0

>  <SCORE.INTRA.REPUL.0>
0

>  <SCORE.INTRA.SOLV>
1.87839

>  <SCORE.INTRA.SOLV.lig_0>
-115.028

>  <SCORE.INTRA.VDW>
4.99398

>  <SCORE.INTRA.VDW.0>
-6.82393

>  <SCORE.INTRA.norm>
0.0863213

>  <SCORE.RESTR>
2.61982

>  <SCORE.RESTR.CAVITY>
2.61982

>  <SCORE.RESTR.norm>
0.0503812

>  <SCORE.SYSTEM>
0

>  <SCORE.SYSTEM.CONST>
0

>  <SCORE.SYSTEM.DIHEDRAL>
0

>  <SCORE.SYSTEM.SOLV>
0

>  <SCORE.SYSTEM.norm>
0

>  <SCORE.heavy>
52

>  <SCORE.norm>
-0.268526

>  <RMSD>
12.978

$$$$
2fd0_lig
 OpenBabel11021811433D
libRbt.so/2013.1/901 2013/11/27
 52 56  0  0  0  0  0  0  0  0999 V2000
    5.8651  -44.0526   13.8410 C   0  0  2  0  0  0  0  0  0  0  0  0
    5.0130  -44.1748   12.6938 O   0  0  0  0  0  0  0  0  0  0  0  0
    3.9352  -47.6185   10.2706 C   0  0  2  0  0  0  0  0  0  0  0  0
    3.9892  -48.6881    9.2606 N   0  0  0  0  0  0  0  0  0  0  0  0
    6.1155  -47.3996   14.5224 C   0  0  1  0  0  0  0  0  0  0  0  0
    8.1738  -50.6437   16.9316 C   0  0  1  0  0  0  0  0  0  0  0  0
    8.4847  -53.3083   21.4588 C   0  0  1  0  0  0  0  0  0  0  0  0
    5.3556  -42.8503   14.7164 C   0  0  2  0  0  0  0  0  0  0  0  0
    3.9634  -43.0171   15.1094 N   0  0  0  0  0  0  0  0  0  0  0  0
    4.0718  -46.1940    9.5741 C   0  0  0  0  0  0  0  0  0  0  0  0
    7.0939  -48.5580   14.4560 C   0  0  2  0  0  0  0  0  0  0  0  0
    6.4571  -49.7937   14.0251 O   0  0  0  0  0  0  0  0  0  0  0  0
    7.3562  -51.8919   17.5087 C   0  0  2  0  0  0  0  0  0  0  0  0
    6.4542  -51.4600   18.6111 N   0  0  0  0  0  0  0  0  0  0  0  0
    7.2185  -53.9511   20.8496 C   0  0  1  0  0  0  0  0  0  0  0  0
    7.6036  -54.7769   19.7228 O   0  0  0  0  0  0  0  0  0  0  0  0
    5.5784  -41.4886   13.9596 C   0  0  0  0  0  0  0  0  0  0  0  0
    4.0016  -45.0306   10.6745 C   0  0  2  0  0  0  0  0  0  0  0  0
    4.1282  -43.7024   10.0567 N   0  0  0  0  0  0  0  0  0  0  0  0
    7.7012  -48.5703   15.8487 C   0  0  2  0  0  0  0  0  0  0  0  0
    7.2385  -49.6591   16.6005 O   0  0  0  0  0  0  0  0  0  0  0  0
    8.4311  -53.0344   17.8960 C   0  0  1  0  0  0  0  0  0  0  0  0
    9.2023  -53.3358   16.7190 O   0  0  0  0  0  0  0  0  0  0  0  0
    6.3264  -54.8052   21.7907 C   0  0  1  0  0  0  0  0  0  0  0  0
    6.7460  -56.1710   21.6772 O   0  0  0  0  0  0  0  0  0  0  0  0
    7.0905  -41.3739   13.5784 C   0  0  2  0  0  0  0  0  0  0  0  0
    7.3378  -40.1433   12.9058 O   0  0  0  0  0  0  0  0  0  0  0  0
    5.1347  -45.2458   11.7164 C   0  0  2  0  0  0  0  0  0  0  0  0
    7.2173  -47.3137   16.6112 C   0  0  2  0  0  0  0  0  0  0  0  0
    6.5387  -46.5826   15.6000 O   0  0  0  0  0  0  0  0  0  0  0  0
    9.4804  -52.5201   19.0135 C   0  0  2  0  0  0  0  0  0  0  0  0
    8.6697  -52.2486   20.1722 O   0  0  0  0  0  0  0  0  0  0  0  0
    6.3347  -54.4045   23.2840 C   0  0  2  0  0  0  0  0  0  0  0  0
    4.9639  -54.5128   23.7262 O   0  0  0  0  0  0  0  0  0  0  0  0
    7.4851  -42.5674   12.6620 C   0  0  2  0  0  0  0  0  0  0  0  0
    7.2290  -43.8226   13.4026 O   0  0  0  0  0  0  0  0  0  0  0  0
    5.0791  -46.6523   12.3869 C   0  0  2  0  0  0  0  0  0  0  0  0
    6.2022  -46.7463   13.2957 O   0  0  0  0  0  0  0  0  0  0  0  0
    8.3262  -46.4333   17.1767 C   0  0  0  0  0  0  0  0  0  0  0  0
    8.8657  -47.1172   18.3180 O   0  0  0  0  0  0  0  0  0  0  0  0
   10.0269  -51.2063   18.4876 C   0  0  1  0  0  0  0  0  0  0  0  0
    9.2200  -50.1411   17.9432 O   0  0  0  0  0  0  0  0  0  0  0  0
    6.9295  -53.0119   23.4746 C   0  0  2  0  0  0  0  0  0  0  0  0
    8.2231  -52.8100   22.8409 O   0  0  0  0  0  0  0  0  0  0  0  0
    8.9333  -42.5356   12.2896 C   0  0  0  0  0  0  0  0  0  0  0  0
    9.1510  -43.5148   11.3101 O   0  0  0  0  0  0  0  0  0  0  0  0
    5.1346  -47.7768   11.2892 C   0  0  1  0  0  0  0  0  0  0  0  0
    5.0279  -49.0835   11.9530 O   0  0  0  0  0  0  0  0  0  0  0  0
   11.0422  -50.5208   19.4694 C   0  0  0  0  0  0  0  0  0  0  0  0
   12.2503  -51.3370   19.7409 N   0  0  0  0  0  0  0  0  0  0  0  0
    7.0674  -52.3734   24.8549 C   0  0  0  0  0  0  0  0  0  0  0  0
    8.1545  -53.0036   25.6002 O   0  0  0  0  0  0  0  0  0  0  0  0
  1  2  1  6  0  0  0
  1  8  1  0  0  0  0
  1 36  1  0  0  0  0
  3  4  1  6  0  0  0
  3 10  1  0  0  0  0
  3 47  1  0  0  0  0
  5 11  1  0  0  0  0
  5 30  1  0  0  0  0
  5 38  1  6  0  0  0
  6 21  1  1  0  0  0
  6 42  1  0  0  0  0
  7 15  1  0  0  0  0
  7 44  1  0  0  0  0
  7 32  1  6  0  0  0
  8  9  1  6  0  0  0
  8 17  1  0  0  0  0
 11 12  1  1  0  0  0
 11 20  1  0  0  0  0
 13  6  1  0  0  0  0
 13 14  1  1  0  0  0
 15 16  1  6  0  0  0
 15 24  1  0  0  0  0
 17 26  1  0  0  0  0
 18 10  1  0  0  0  0
 18 19  1  6  0  0  0
 20 21  1  1  0  0  0
 20 29  1  0  0  0  0
 22 13  1  0  0  0  0
 22 23  1  6  0  0  0
 24 25  1  1  0  0  0
 24 33  1  0  0  0  0
 26 27  1  6  0  0  0
 26 35  1  0  0  0  0
 28  2  1  1  0  0  0
 28 18  1  0  0  0  0
 29 30  1  0  0  0  0
 29 39  1  6  0  0  0
 31 22  1  0  0  0  0
 31 32  1  1  0  0  0
 31 41  1  0  0  0  0
 33 34  1  6  0  0  0
 33 43  1  0  0  0  0
 35 36  1  0  0  0  0
 35 45  1  1  0  0  0
 37 28  1  0  0  0  0
 37 38  1  1  0  0  0
 39 40  1  0  0  0  0
 41 42  1  0  0  0  0
 41 49  1  1  0  0  0
 43 44  1  0  0  0  0
 43 51  1  1  0  0  0
 45 46  1  0  0  0  0
 47 37  1  0  0  0  0
 47 48  1  1  0  0  0
 49 50  1  0  0  0  0
 51 52  1  0  0  0  0
M  END
>  <CHROM.1>
-175.41216796,117.34733191,-168.58382413,-92.57919677,113.01133107,178.20427995
-74.11880121,98.40295697,-171.05999168,142.98907096,61.26012910,73.62806167
7.01531379,-48.66349734,16.42354959,-1.89969883,1.10156634,2.63542268

>  <Name>
2fd0_lig

>  <RI>
0

>  <Rbt.Current_Directory>
/home/itssahil/PROJECTS/Mol_Feturizer/New_Systems/rnas/2fd0

>  <Rbt.Executable>
rbdock ($Id: //depot/dev/client3/rdock/2013.1/src/exe/rbdock.cxx#4 $)

>  <Rbt.Library>
libRbt.so (2013.1, Build901 2013/11/27)

>  <Rbt.Parameter_File>
/export/apps/rDock/src/rDock_2013.1_src/data/scripts/dock_solv.prm

>  <Rbt.Receptor>
prm/pocket_docking_8.prm

>  <SCORE>
-14.2172

>  <SCORE.INTER>
-17.1159

>  <SCORE.INTER.CONST>
1

>  <SCORE.INTER.POLAR>
-3.12817

>  <SCORE.INTER.ROT>
12

>  <SCORE.INTER.SOLV>
19.9641

>  <SCORE.INTER.VDW>
-19.2381

>  <SCORE.INTER.norm>
-0.329152

>  <SCORE.INTRA>
2.89762

>  <SCORE.INTRA.DIHEDRAL>
7.85254

>  <SCORE.INTRA.DIHEDRAL.0>
23.9727

>  <SCORE.INTRA.POLAR>
0

>  <SCORE.INTRA.POLAR.0>
0

>  <SCORE.INTRA.REPUL>
0

>  <SCORE.INTRA.REPUL.0>
0

>  <SCORE.INTRA.SOLV>
-3.35801

>  <SCORE.INTRA.SOLV.lig_0>
-115.028

>  <SCORE.INTRA.VDW>
0.65036

>  <SCORE.INTRA.VDW.0>
-6.82393

>  <SCORE.INTRA.norm>
0.0557235

>  <SCORE.RESTR>
0.00115428

>  <SCORE.RESTR.CAVITY>
0.00115428

>  <SCORE.RESTR.norm>
2.21977e-05

>  <SCORE.SYSTEM>
0

>  <SCORE.SYSTEM.CONST>
0

>  <SCORE.SYSTEM.DIHEDRAL>
0

>  <SCORE.SYSTEM.SOLV>
0

>  <SCORE.SYSTEM.norm>
0

>  <SCORE.heavy>
52

>  <SCORE.norm>
-0.273407

>  <RMSD>
12.979

$$$$
2fd0_lig
 OpenBabel11021811433D
libRbt.so/2013.1/901 2013/11/27
 52 56  0  0  0  0  0  0  0  0999 V2000
   10.6932  -35.9453   15.5047 C   0  0  2  0  0  0  0  0  0  0  0  0
   11.2619  -37.0777   16.1765 O   0  0  0  0  0  0  0  0  0  0  0  0
   11.0759  -38.8880   20.1237 C   0  0  2  0  0  0  0  0  0  0  0  0
   10.5534  -39.4396   21.3845 N   0  0  0  0  0  0  0  0  0  0  0  0
   10.3928  -41.2596   16.4083 C   0  0  1  0  0  0  0  0  0  0  0  0
    8.9020  -45.1138   14.8362 C   0  0  1  0  0  0  0  0  0  0  0  0
    5.3873  -48.8935   14.3617 C   0  0  1  0  0  0  0  0  0  0  0  0
   10.3445  -36.3623   14.0296 C   0  0  2  0  0  0  0  0  0  0  0  0
    9.4446  -37.5065   13.9876 N   0  0  0  0  0  0  0  0  0  0  0  0
   10.5969  -37.3815   19.9396 C   0  0  0  0  0  0  0  0  0  0  0  0
    9.0318  -41.5282   15.7925 C   0  0  2  0  0  0  0  0  0  0  0  0
    7.9858  -41.6483   16.7973 O   0  0  0  0  0  0  0  0  0  0  0  0
    7.9616  -45.1042   13.5420 C   0  0  2  0  0  0  0  0  0  0  0  0
    6.5536  -44.8071   13.9222 N   0  0  0  0  0  0  0  0  0  0  0  0
    4.6739  -48.0701   15.4575 C   0  0  1  0  0  0  0  0  0  0  0  0
    3.8232  -47.0812   14.8264 O   0  0  0  0  0  0  0  0  0  0  0  0
   11.6608  -36.6380   13.2125 C   0  0  0  0  0  0  0  0  0  0  0  0
   11.1762  -36.7795   18.5716 C   0  0  2  0  0  0  0  0  0  0  0  0
   10.7455  -35.3874   18.3758 N   0  0  0  0  0  0  0  0  0  0  0  0
    9.2822  -42.7600   14.9389 C   0  0  2  0  0  0  0  0  0  0  0  0
    8.6954  -43.9019   15.5015 O   0  0  0  0  0  0  0  0  0  0  0  0
    8.1931  -46.5036   12.7680 C   0  0  1  0  0  0  0  0  0  0  0  0
    9.5961  -46.6190   12.4692 O   0  0  0  0  0  0  0  0  0  0  0  0
    3.8206  -48.8483   16.4954 C   0  0  1  0  0  0  0  0  0  0  0  0
    2.4689  -48.8814   16.0198 O   0  0  0  0  0  0  0  0  0  0  0  0
   12.5707  -35.3690   13.2937 C   0  0  2  0  0  0  0  0  0  0  0  0
   13.7679  -35.5717   12.5494 O   0  0  0  0  0  0  0  0  0  0  0  0
   10.6961  -37.6597   17.3840 C   0  0  2  0  0  0  0  0  0  0  0  0
   10.8021  -43.0498   14.9209 C   0  0  2  0  0  0  0  0  0  0  0  0
   11.3398  -41.9128   15.5811 O   0  0  0  0  0  0  0  0  0  0  0  0
    7.8148  -47.7739   13.6941 C   0  0  2  0  0  0  0  0  0  0  0  0
    6.4058  -47.6257   13.9519 O   0  0  0  0  0  0  0  0  0  0  0  0
    4.2755  -50.2937   16.8029 C   0  0  2  0  0  0  0  0  0  0  0  0
    4.1302  -50.4546   18.2310 O   0  0  0  0  0  0  0  0  0  0  0  0
   12.9152  -35.0736   14.7816 C   0  0  2  0  0  0  0  0  0  0  0  0
   11.6485  -34.8532   15.5139 O   0  0  0  0  0  0  0  0  0  0  0  0
   11.0915  -39.1593   17.5455 C   0  0  2  0  0  0  0  0  0  0  0  0
   10.5536  -39.8765   16.4087 O   0  0  0  0  0  0  0  0  0  0  0  0
   11.4273  -43.1383   13.5332 C   0  0  0  0  0  0  0  0  0  0  0  0
   11.6464  -44.5303   13.2585 O   0  0  0  0  0  0  0  0  0  0  0  0
    8.5679  -47.5704   14.9952 C   0  0  1  0  0  0  0  0  0  0  0  0
    8.6113  -46.3311   15.7330 O   0  0  0  0  0  0  0  0  0  0  0  0
    5.6963  -50.5394   16.3022 C   0  0  2  0  0  0  0  0  0  0  0  0
    5.9250  -50.1714   14.9138 O   0  0  0  0  0  0  0  0  0  0  0  0
   13.7570  -33.8463   14.9309 C   0  0  0  0  0  0  0  0  0  0  0  0
   13.0794  -32.7790   14.3249 O   0  0  0  0  0  0  0  0  0  0  0  0
   10.5258  -39.7245   18.8994 C   0  0  1  0  0  0  0  0  0  0  0  0
   10.9611  -41.1208   19.0412 O   0  0  0  0  0  0  0  0  0  0  0  0
    8.2883  -48.6945   16.0546 C   0  0  0  0  0  0  0  0  0  0  0  0
    8.9849  -49.9713   15.7649 N   0  0  0  0  0  0  0  0  0  0  0  0
    6.3896  -51.8899   16.4673 C   0  0  0  0  0  0  0  0  0  0  0  0
    6.7313  -52.1179   17.8693 O   0  0  0  0  0  0  0  0  0  0  0  0
  1  2  1  1  0  0  0
  1  8  1  0  0  0  0
  1 36  1  0  0  0  0
  3  4  1  1  0  0  0
  3 10  1  0  0  0  0
  3 47  1  0  0  0  0
  5 11  1  0  0  0  0
  5 30  1  0  0  0  0
  5 38  1  6  0  0  0
  6 21  1  1  0  0  0
  6 42  1  0  0  0  0
  7 15  1  0  0  0  0
  7 44  1  0  0  0  0
  7 32  1  1  0  0  0
  8  9  1  1  0  0  0
  8 17  1  0  0  0  0
 11 12  1  1  0  0  0
 11 20  1  0  0  0  0
 13  6  1  0  0  0  0
 13 14  1  1  0  0  0
 15 16  1  6  0  0  0
 15 24  1  0  0  0  0
 17 26  1  0  0  0  0
 18 10  1  0  0  0  0
 18 19  1  6  0  0  0
 20 21  1  1  0  0  0
 20 29  1  0  0  0  0
 22 13  1  0  0  0  0
 22 23  1  1  0  0  0
 24 25  1  6  0  0  0
 24 33  1  0  0  0  0
 26 27  1  6  0  0  0
 26 35  1  0  0  0  0
 28  2  1  6  0  0  0
 28 18  1  0  0  0  0
 29 30  1  0  0  0  0
 29 39  1  6  0  0  0
 31 22  1  0  0  0  0
 31 32  1  1  0  0  0
 31 41  1  0  0  0  0
 33 34  1  1  0  0  0
 33 43  1  0  0  0  0
 35 36  1  0  0  0  0
 35 45  1  6  0  0  0
 37 28  1  0  0  0  0
 37 38  1  6  0  0  0
 39 40  1  0  0  0  0
 41 42  1  0  0  0  0
 41 49  1  1  0  0  0
 43 44  1  0  0  0  0
 43 51  1  6  0  0  0
 45 46  1  0  0  0  0
 47 37  1  0  0  0  0
 47 48  1  1  0  0  0
 49 50  1  0  0  0  0
 51 52  1  0  0  0  0
M  END
>  <CHROM.1>
-121.30773644,136.65535248,-75.29094134,137.00038866,-177.45378283,-81.00652375
-103.99134688,156.52020037,56.03617207,-161.72510334,75.70088577,-71.21089909
9.08565323,-42.79616370,15.72411688,0.48738687,1.09004945,1.04594742

>  <Name>
2fd0_lig

>  <RI>
0

>  <Rbt.Current_Directory>
/home/itssahil/PROJECTS/Mol_Feturizer/New_Systems/rnas/2fd0

>  <Rbt.Executable>
rbdock ($Id: //depot/dev/client3/rdock/2013.1/src/exe/rbdock.cxx#4 $)

>  <Rbt.Library>
libRbt.so (2013.1, Build901 2013/11/27)

>  <Rbt.Parameter_File>
/export/apps/rDock/src/rDock_2013.1_src/data/scripts/dock_solv.prm

>  <Rbt.Receptor>
prm/blind_docking_100.prm

>  <SCORE>
-6.58075

>  <SCORE.INTER>
-19.2123

>  <SCORE.INTER.CONST>
1

>  <SCORE.INTER.POLAR>
-1.96457

>  <SCORE.INTER.ROT>
12

>  <SCORE.INTER.SOLV>
29.4296

>  <SCORE.INTER.VDW>
-27.6695

>  <SCORE.INTER.norm>
-0.369467

>  <SCORE.INTRA>
7.32577

>  <SCORE.INTRA.DIHEDRAL>
8.60205

>  <SCORE.INTRA.DIHEDRAL.0>
23.9727

>  <SCORE.INTRA.POLAR>
0

>  <SCORE.INTRA.POLAR.0>
0

>  <SCORE.INTRA.REPUL>
0.029712

>  <SCORE.INTRA.REPUL.0>
0

>  <SCORE.INTRA.SOLV>
2.35348

>  <SCORE.INTRA.SOLV.lig_0>
-115.028

>  <SCORE.INTRA.VDW>
1.69945

>  <SCORE.INTRA.VDW.0>
-6.82393

>  <SCORE.INTRA.norm>
0.14088

>  <SCORE.RESTR>
5.30579

>  <SCORE.RESTR.CAVITY>
5.30579

>  <SCORE.RESTR.norm>
0.102034

>  <SCORE.SYSTEM>
0

>  <SCORE.SYSTEM.CONST>
0

>  <SCORE.SYSTEM.DIHEDRAL>
0

>  <SCORE.SYSTEM.SOLV>
0

>  <SCORE.SYSTEM.norm>
0

>  <SCORE.heavy>
52

>  <SCORE.norm>
-0.126553

>  <RMSD>
12.981

$$$$
2fd0_lig
 OpenBabel11021811433D
libRbt.so/2013.1/901 2013/11/27
 52 56  0  0  0  0  0  0  0  0999 V2000
    6.4116  -48.6076   13.4295 C   0  0  2  0  0  0  0  0  0  0  0  0
    5.1608  -47.9063   13.4059 O   0  0  0  0  0  0  0  0  0  0  0  0
    3.9000  -48.0948    9.2505 C   0  0  2  0  0  0  0  0  0  0  0  0
    3.0522  -48.1124    8.0471 N   0  0  0  0  0  0  0  0  0  0  0  0
    5.4221  -44.9362   12.8863 C   0  0  1  0  0  0  0  0  0  0  0  0
    8.4088  -41.6799   12.8653 C   0  0  1  0  0  0  0  0  0  0  0  0
   10.0502  -39.3861   15.5598 C   0  0  1  0  0  0  0  0  0  0  0  0
    6.4538  -49.5115   14.7150 C   0  0  2  0  0  0  0  0  0  0  0  0
    5.3301  -50.4364   14.7651 N   0  0  0  0  0  0  0  0  0  0  0  0
    3.4757  -49.2651   10.2421 C   0  0  0  0  0  0  0  0  0  0  0  0
    6.0876  -43.8056   12.1232 C   0  0  2  0  0  0  0  0  0  0  0  0
    7.2786  -44.2462   11.4122 O   0  0  0  0  0  0  0  0  0  0  0  0
    9.9483  -42.0739   13.0498 C   0  0  2  0  0  0  0  0  0  0  0  0
   10.2727  -42.2497   14.4917 N   0  0  0  0  0  0  0  0  0  0  0  0
   11.1757  -38.7652   16.4175 C   0  0  1  0  0  0  0  0  0  0  0  0
   11.4276  -37.4138   15.9591 O   0  0  0  0  0  0  0  0  0  0  0  0
    6.5202  -48.6196   16.0098 C   0  0  0  0  0  0  0  0  0  0  0  0
    4.4073  -49.2507   11.5464 C   0  0  2  0  0  0  0  0  0  0  0  0
    4.0339  -50.3222   12.4815 N   0  0  0  0  0  0  0  0  0  0  0  0
    6.3023  -42.7515   13.1961 C   0  0  2  0  0  0  0  0  0  0  0  0
    7.6557  -42.6420   13.5442 O   0  0  0  0  0  0  0  0  0  0  0  0
   10.8263  -40.9645   12.2691 C   0  0  1  0  0  0  0  0  0  0  0  0
   10.3909  -40.9383   10.8977 O   0  0  0  0  0  0  0  0  0  0  0  0
   10.9618  -38.7209   17.9547 C   0  0  1  0  0  0  0  0  0  0  0  0
   10.3810  -37.4524   18.2832 O   0  0  0  0  0  0  0  0  0  0  0  0
    7.7508  -47.6623   15.8909 C   0  0  2  0  0  0  0  0  0  0  0  0
    7.8571  -46.8484   17.0547 O   0  0  0  0  0  0  0  0  0  0  0  0
    4.2867  -47.8668   12.2433 C   0  0  2  0  0  0  0  0  0  0  0  0
    5.5846  -43.2072   14.4890 C   0  0  2  0  0  0  0  0  0  0  0  0
    4.8710  -44.3565   14.0560 O   0  0  0  0  0  0  0  0  0  0  0  0
   10.5807  -39.4787   12.8575 C   0  0  2  0  0  0  0  0  0  0  0  0
   11.0445  -39.5484   14.2190 O   0  0  0  0  0  0  0  0  0  0  0  0
   10.0792  -39.8416   18.5510 C   0  0  2  0  0  0  0  0  0  0  0  0
   10.7276  -40.2393   19.7790 O   0  0  0  0  0  0  0  0  0  0  0  0
    7.5890  -46.7658   14.6301 C   0  0  2  0  0  0  0  0  0  0  0  0
    7.4992  -47.6473   13.4450 O   0  0  0  0  0  0  0  0  0  0  0  0
    4.6369  -46.6803   11.2943 C   0  0  2  0  0  0  0  0  0  0  0  0
    4.4450  -45.4545   12.0403 O   0  0  0  0  0  0  0  0  0  0  0  0
    4.5838  -42.2086   15.0597 C   0  0  0  0  0  0  0  0  0  0  0  0
    5.3054  -40.9972   15.3297 O   0  0  0  0  0  0  0  0  0  0  0  0
    9.0759  -39.2869   12.8691 C   0  0  1  0  0  0  0  0  0  0  0  0
    8.1293  -40.2530   13.3717 O   0  0  0  0  0  0  0  0  0  0  0  0
    9.9003  -40.9859   17.5568 C   0  0  2  0  0  0  0  0  0  0  0  0
    9.4570  -40.5787   16.2327 O   0  0  0  0  0  0  0  0  0  0  0  0
    8.7550  -45.8487   14.4388 C   0  0  0  0  0  0  0  0  0  0  0  0
    8.6356  -45.2529   13.1752 O   0  0  0  0  0  0  0  0  0  0  0  0
    3.7219  -46.7225   10.0162 C   0  0  1  0  0  0  0  0  0  0  0  0
    4.1149  -45.6233    9.1236 O   0  0  0  0  0  0  0  0  0  0  0  0
    8.6331  -37.9009   13.4586 C   0  0  0  0  0  0  0  0  0  0  0  0
    7.4253  -37.9778   14.3158 N   0  0  0  0  0  0  0  0  0  0  0  0
    9.0631  -42.2198   17.8862 C   0  0  0  0  0  0  0  0  0  0  0  0
    9.6978  -42.9957   18.9490 O   0  0  0  0  0  0  0  0  0  0  0  0
  1  2  1  1  0  0  0
  1  8  1  0  0  0  0
  1 36  1  0  0  0  0
  3  4  1  6  0  0  0
  3 10  1  0  0  0  0
  3 47  1  0  0  0  0
  5 11  1  0  0  0  0
  5 30  1  0  0  0  0
  5 38  1  6  0  0  0
  6 21  1  1  0  0  0
  6 42  1  0  0  0  0
  7 15  1  0  0  0  0
  7 44  1  0  0  0  0
  7 32  1  6  0  0  0
  8  9  1  1  0  0  0
  8 17  1  0  0  0  0
 11 12  1  1  0  0  0
 11 20  1  0  0  0  0
 13  6  1  0  0  0  0
 13 14  1  1  0  0  0
 15 16  1  6  0  0  0
 15 24  1  0  0  0  0
 17 26  1  0  0  0  0
 18 10  1  0  0  0  0
 18 19  1  1  0  0  0
 20 21  1  1  0  0  0
 20 29  1  0  0  0  0
 22 13  1  0  0  0  0
 22 23  1  6  0  0  0
 24 25  1  6  0  0  0
 24 33  1  0  0  0  0
 26 27  1  1  0  0  0
 26 35  1  0  0  0  0
 28  2  1  1  0  0  0
 28 18  1  0  0  0  0
 29 30  1  0  0  0  0
 29 39  1  6  0  0  0
 31 22  1  0  0  0  0
 31 32  1  1  0  0  0
 31 41  1  0  0  0  0
 33 34  1  1  0  0  0
 33 43  1  0  0  0  0
 35 36  1  0  0  0  0
 35 45  1  6  0  0  0
 37 28  1  0  0  0  0
 37 38  1  1  0  0  0
 39 40  1  0  0  0  0
 41 42  1  0  0  0  0
 41 49  1  1  0  0  0
 43 44  1  0  0  0  0
 43 51  1  1  0  0  0
 45 46  1  0  0  0  0
 47 37  1  0  0  0  0
 47 48  1  6  0  0  0
 49 50  1  0  0  0  0
 51 52  1  0  0  0  0
M  END
>  <CHROM.1>
-130.12047765,101.66229024,-160.98292793,-149.31877031,93.09079693,35.13984745
-58.76946601,-114.26031799,170.05582062,83.58730025,-140.28173862,-66.98972528
7.49994967,-43.65777124,14.01445700,-2.80705985,-1.03401226,-0.74013120

>  <Name>
2fd0_lig

>  <RI>
2.60878e+07

>  <Rbt.Current_Directory>
/home/itssahil/PROJECTS/Mol_Feturizer/New_Systems/rnas/2fd0

>  <Rbt.Executable>
rbdock ($Id: //depot/dev/client3/rdock/2013.1/src/exe/rbdock.cxx#4 $)

>  <Rbt.Library>
libRbt.so (2013.1, Build901 2013/11/27)

>  <Rbt.Parameter_File>
/export/apps/rDock/src/rDock_2013.1_src/data/scripts/dock_solv.prm

>  <Rbt.Receptor>
prm/blind_docking_80.prm

>  <SCORE>
3.76634

>  <SCORE.INTER>
-11.9537

>  <SCORE.INTER.CONST>
1

>  <SCORE.INTER.POLAR>
-0.876753

>  <SCORE.INTER.ROT>
12

>  <SCORE.INTER.SOLV>
27.3519

>  <SCORE.INTER.VDW>
-25.764

>  <SCORE.INTER.norm>
-0.22988

>  <SCORE.INTRA>
12.6742

>  <SCORE.INTRA.DIHEDRAL>
14.187

>  <SCORE.INTRA.DIHEDRAL.0>
23.9727

>  <SCORE.INTRA.POLAR>
0

>  <SCORE.INTRA.POLAR.0>
0

>  <SCORE.INTRA.REPUL>
0.284986

>  <SCORE.INTRA.REPUL.0>
0

>  <SCORE.INTRA.SOLV>
7.22886

>  <SCORE.INTRA.SOLV.lig_0>
-115.028

>  <SCORE.INTRA.VDW>
0.541321

>  <SCORE.INTRA.VDW.0>
-6.82393

>  <SCORE.INTRA.norm>
0.243734

>  <SCORE.RESTR>
3.04592

>  <SCORE.RESTR.CAVITY>
3.04592

>  <SCORE.RESTR.norm>
0.0585754

>  <SCORE.SYSTEM>
0

>  <SCORE.SYSTEM.CONST>
0

>  <SCORE.SYSTEM.DIHEDRAL>
0

>  <SCORE.SYSTEM.SOLV>
0

>  <SCORE.SYSTEM.norm>
0

>  <SCORE.heavy>
52

>  <SCORE.norm>
0.0724296

>  <RMSD>
13.124

$$$$
2fd0_lig
 OpenBabel11021811433D
libRbt.so/2013.1/901 2013/11/27
 52 56  0  0  0  0  0  0  0  0999 V2000
   12.1116  -36.0364   17.9796 C   0  0  2  0  0  0  0  0  0  0  0  0
   11.7057  -37.4059   18.1087 O   0  0  0  0  0  0  0  0  0  0  0  0
   11.3788  -38.6828   22.2506 C   0  0  2  0  0  0  0  0  0  0  0  0
   10.8242  -39.1876   23.5173 N   0  0  0  0  0  0  0  0  0  0  0  0
   10.4313  -40.5408   18.1667 C   0  0  1  0  0  0  0  0  0  0  0  0
    9.0148  -42.3227   14.6523 C   0  0  1  0  0  0  0  0  0  0  0  0
    5.8014  -42.3132   10.5887 C   0  0  1  0  0  0  0  0  0  0  0  0
   11.1501  -35.3238   16.9602 C   0  0  2  0  0  0  0  0  0  0  0  0
    9.7559  -35.4240   17.3687 N   0  0  0  0  0  0  0  0  0  0  0  0
   10.5787  -37.3926   21.7727 C   0  0  0  0  0  0  0  0  0  0  0  0
   10.6994  -41.3661   16.9214 C   0  0  2  0  0  0  0  0  0  0  0  0
   10.7569  -40.5478   15.7193 O   0  0  0  0  0  0  0  0  0  0  0  0
    8.7360  -40.9263   13.9231 C   0  0  2  0  0  0  0  0  0  0  0  0
    7.3277  -40.4963   14.1404 N   0  0  0  0  0  0  0  0  0  0  0  0
    4.6645  -41.6692   11.4135 C   0  0  1  0  0  0  0  0  0  0  0  0
    4.7293  -40.2294   11.2630 O   0  0  0  0  0  0  0  0  0  0  0  0
   11.3655  -35.8980   15.5110 C   0  0  0  0  0  0  0  0  0  0  0  0
   11.1914  -36.8383   20.3991 C   0  0  2  0  0  0  0  0  0  0  0  0
   10.4673  -35.6463   19.9337 N   0  0  0  0  0  0  0  0  0  0  0  0
    9.5993  -42.4132   16.9643 C   0  0  2  0  0  0  0  0  0  0  0  0
    8.6244  -42.1734   15.9861 O   0  0  0  0  0  0  0  0  0  0  0  0
    9.1830  -41.0914   12.3791 C   0  0  1  0  0  0  0  0  0  0  0  0
   10.5640  -41.4955   12.3575 O   0  0  0  0  0  0  0  0  0  0  0  0
    3.2117  -42.1214   11.1041 C   0  0  1  0  0  0  0  0  0  0  0  0
    2.6621  -41.2130   10.1413 O   0  0  0  0  0  0  0  0  0  0  0  0
   12.8765  -35.7494   15.1374 C   0  0  2  0  0  0  0  0  0  0  0  0
   13.1104  -36.2424   13.8219 O   0  0  0  0  0  0  0  0  0  0  0  0
   11.1251  -37.9580   19.3232 C   0  0  2  0  0  0  0  0  0  0  0  0
    8.8567  -42.2965   18.3169 C   0  0  2  0  0  0  0  0  0  0  0  0
    9.6523  -41.3564   19.0245 O   0  0  0  0  0  0  0  0  0  0  0  0
    8.3508  -42.2596   11.6328 C   0  0  2  0  0  0  0  0  0  0  0  0
    6.9845  -41.8055   11.6634 O   0  0  0  0  0  0  0  0  0  0  0  0
    3.0469  -43.5655   10.5766 C   0  0  2  0  0  0  0  0  0  0  0  0
    1.8782  -44.0941   11.2408 O   0  0  0  0  0  0  0  0  0  0  0  0
   13.7426  -36.5383   16.1608 C   0  0  2  0  0  0  0  0  0  0  0  0
   13.4830  -35.9855   17.5085 O   0  0  0  0  0  0  0  0  0  0  0  0
   11.8468  -39.2665   19.7684 C   0  0  2  0  0  0  0  0  0  0  0  0
   11.6777  -40.2391   18.7094 O   0  0  0  0  0  0  0  0  0  0  0  0
    8.7944  -43.5824   19.1336 C   0  0  0  0  0  0  0  0  0  0  0  0
    8.5968  -44.6606   18.2064 O   0  0  0  0  0  0  0  0  0  0  0  0
    8.4736  -43.4820   12.5228 C   0  0  1  0  0  0  0  0  0  0  0  0
    8.2778  -43.4792   13.9524 O   0  0  0  0  0  0  0  0  0  0  0  0
    4.3109  -44.3856   10.8200 C   0  0  2  0  0  0  0  0  0  0  0  0
    5.5400  -43.7635   10.3533 O   0  0  0  0  0  0  0  0  0  0  0  0
   15.2056  -36.4066   15.8791 C   0  0  0  0  0  0  0  0  0  0  0  0
   15.4713  -37.0424   14.6581 O   0  0  0  0  0  0  0  0  0  0  0  0
   11.2402  -39.7838   21.1237 C   0  0  1  0  0  0  0  0  0  0  0  0
   11.9779  -40.9856   21.5373 O   0  0  0  0  0  0  0  0  0  0  0  0
    7.6821  -44.7245   11.9806 C   0  0  0  0  0  0  0  0  0  0  0  0
    7.6680  -45.8752   12.9161 N   0  0  0  0  0  0  0  0  0  0  0  0
    4.4235  -45.8455   10.3866 C   0  0  0  0  0  0  0  0  0  0  0  0
    5.5171  -46.5038   11.0975 O   0  0  0  0  0  0  0  0  0  0  0  0
  1  2  1  6  0  0  0
  1  8  1  0  0  0  0
  1 36  1  0  0  0  0
  3  4  1  1  0  0  0
  3 10  1  0  0  0  0
  3 47  1  0  0  0  0
  5 11  1  0  0  0  0
  5 30  1  0  0  0  0
  5 38  1  1  0  0  0
  6 21  1  1  0  0  0
  6 42  1  0  0  0  0
  7 15  1  0  0  0  0
  7 44  1  0  0  0  0
  7 32  1  1  0  0  0
  8  9  1  1  0  0  0
  8 17  1  0  0  0  0
 11 12  1  6  0  0  0
 11 20  1  0  0  0  0
 13  6  1  0  0  0  0
 13 14  1  6  0  0  0
 15 16  1  6  0  0  0
 15 24  1  0  0  0  0
 17 26  1  0  0  0  0
 18 10  1  0  0  0  0
 18 19  1  6  0  0  0
 20 21  1  6  0  0  0
 20 29  1  0  0  0  0
 22 13  1  0  0  0  0
 22 23  1  1  0  0  0
 24 25  1  6  0  0  0
 24 33  1  0  0  0  0
 26 27  1  6  0  0  0
 26 35  1  0  0  0  0
 28  2  1  6  0  0  0
 28 18  1  0  0  0  0
 29 30  1  0  0  0  0
 29 39  1  1  0  0  0
 31 22  1  0  0  0  0
 31 32  1  1  0  0  0
 31 41  1  0  0  0  0
 33 34  1  1  0  0  0
 33 43  1  0  0  0  0
 35 36  1  0  0  0  0
 35 45  1  6  0  0  0
 37 28  1  0  0  0  0
 37 38  1  6  0  0  0
 39 40  1  0  0  0  0
 41 42  1  0  0  0  0
 41 49  1  6  0  0  0
 43 44  1  0  0  0  0
 43 51  1  6  0  0  0
 45 46  1  0  0  0  0
 47 37  1  0  0  0  0
 47 48  1  1  0  0  0
 49 50  1  0  0  0  0
 51 52  1  0  0  0  0
M  END
>  <CHROM.1>
-111.81835483,168.65135341,-122.33075774,169.10909664,67.19594658,-5.56685617
-38.30140044,156.82779135,-66.32612502,-51.19923451,-173.45763955,-161.76790042
9.15021934,-40.54553701,15.47831509,-0.37844106,-0.89454146,-1.13486676

>  <Name>
2fd0_lig

>  <RI>
2.85265e+07

>  <Rbt.Current_Directory>
/home/itssahil/PROJECTS/Mol_Feturizer/New_Systems/rnas/2fd0

>  <Rbt.Executable>
rbdock ($Id: //depot/dev/client3/rdock/2013.1/src/exe/rbdock.cxx#4 $)

>  <Rbt.Library>
libRbt.so (2013.1, Build901 2013/11/27)

>  <Rbt.Parameter_File>
/export/apps/rDock/src/rDock_2013.1_src/data/scripts/dock_solv.prm

>  <Rbt.Receptor>
prm/blind_docking_60.prm

>  <SCORE>
-6.83196

>  <SCORE.INTER>
-19.6106

>  <SCORE.INTER.CONST>
1

>  <SCORE.INTER.POLAR>
-1.14924

>  <SCORE.INTER.ROT>
12

>  <SCORE.INTER.SOLV>
22.4962

>  <SCORE.INTER.VDW>
-28.3416

>  <SCORE.INTER.norm>
-0.377126

>  <SCORE.INTRA>
10.6715

>  <SCORE.INTRA.DIHEDRAL>
5.40468

>  <SCORE.INTRA.DIHEDRAL.0>
23.9727

>  <SCORE.INTRA.POLAR>
0

>  <SCORE.INTRA.POLAR.0>
0

>  <SCORE.INTRA.REPUL>
0

>  <SCORE.INTRA.REPUL.0>
0

>  <SCORE.INTRA.SOLV>
3.25347

>  <SCORE.INTRA.SOLV.lig_0>
-115.028

>  <SCORE.INTRA.VDW>
6.34238

>  <SCORE.INTRA.VDW.0>
-6.82393

>  <SCORE.INTRA.norm>
0.20522

>  <SCORE.RESTR>
2.10714

>  <SCORE.RESTR.CAVITY>
2.10714

>  <SCORE.RESTR.norm>
0.0405219

>  <SCORE.SYSTEM>
0

>  <SCORE.SYSTEM.CONST>
0

>  <SCORE.SYSTEM.DIHEDRAL>
0

>  <SCORE.SYSTEM.SOLV>
0

>  <SCORE.SYSTEM.norm>
0

>  <SCORE.heavy>
52

>  <SCORE.norm>
-0.131384

>  <RMSD>
13.162

$$$$
2fd0_lig
 OpenBabel11021811433D
libRbt.so/2013.1/901 2013/11/27
 52 56  0  0  0  0  0  0  0  0999 V2000
   12.6857  -36.2265   16.9404 C   0  0  2  0  0  0  0  0  0  0  0  0
   11.3076  -36.4060   17.2946 O   0  0  0  0  0  0  0  0  0  0  0  0
   11.3685  -40.0614   19.6456 C   0  0  2  0  0  0  0  0  0  0  0  0
   10.9299  -41.2024   20.4658 N   0  0  0  0  0  0  0  0  0  0  0  0
    9.7921  -40.0063   15.5552 C   0  0  1  0  0  0  0  0  0  0  0  0
    8.2598  -42.6386   12.3880 C   0  0  1  0  0  0  0  0  0  0  0  0
    5.9092  -47.2858   13.4271 C   0  0  1  0  0  0  0  0  0  0  0  0
   13.1561  -34.8192   17.4596 C   0  0  2  0  0  0  0  0  0  0  0  0
   12.9582  -34.6768   18.8953 N   0  0  0  0  0  0  0  0  0  0  0  0
   10.9832  -38.6903   20.3560 C   0  0  0  0  0  0  0  0  0  0  0  0
    9.1096  -39.5588   14.2755 C   0  0  2  0  0  0  0  0  0  0  0  0
    7.7228  -39.1758   14.4950 O   0  0  0  0  0  0  0  0  0  0  0  0
    6.7861  -43.0125   11.8900 C   0  0  2  0  0  0  0  0  0  0  0  0
    5.8406  -43.0480   13.0388 N   0  0  0  0  0  0  0  0  0  0  0  0
    5.1509  -46.6973   14.6381 C   0  0  1  0  0  0  0  0  0  0  0  0
    4.0038  -45.9521   14.1601 O   0  0  0  0  0  0  0  0  0  0  0  0
   12.4307  -33.6713   16.6643 C   0  0  0  0  0  0  0  0  0  0  0  0
   11.4715  -37.4495   19.4666 C   0  0  2  0  0  0  0  0  0  0  0  0
   11.1249  -36.1687   20.1002 N   0  0  0  0  0  0  0  0  0  0  0  0
    9.3376  -40.7340   13.3399 C   0  0  2  0  0  0  0  0  0  0  0  0
    8.1552  -41.4557   13.1252 O   0  0  0  0  0  0  0  0  0  0  0  0
    6.8982  -44.3810   11.0382 C   0  0  1  0  0  0  0  0  0  0  0  0
    7.8375  -44.1634    9.9699 O   0  0  0  0  0  0  0  0  0  0  0  0
    4.6612  -47.6903   15.7268 C   0  0  1  0  0  0  0  0  0  0  0  0
    3.3148  -48.0649   15.4090 O   0  0  0  0  0  0  0  0  0  0  0  0
   12.6934  -33.8823   15.1375 C   0  0  2  0  0  0  0  0  0  0  0  0
   12.0669  -32.8505   14.3817 O   0  0  0  0  0  0  0  0  0  0  0  0
   10.8189  -37.5435   18.0591 C   0  0  2  0  0  0  0  0  0  0  0  0
   10.3048  -41.7304   14.0226 C   0  0  2  0  0  0  0  0  0  0  0  0
   10.7106  -41.0191   15.1831 O   0  0  0  0  0  0  0  0  0  0  0  0
    7.4866  -45.5970   11.9266 C   0  0  2  0  0  0  0  0  0  0  0  0
    6.5101  -45.7892   12.9674 O   0  0  0  0  0  0  0  0  0  0  0  0
    5.5056  -48.9731   15.9062 C   0  0  2  0  0  0  0  0  0  0  0  0
    5.5852  -49.1934   17.3316 O   0  0  0  0  0  0  0  0  0  0  0  0
   12.1379  -35.2690   14.7036 C   0  0  2  0  0  0  0  0  0  0  0  0
   12.8247  -36.3109   15.4986 O   0  0  0  0  0  0  0  0  0  0  0  0
   11.1195  -38.8957   17.3434 C   0  0  2  0  0  0  0  0  0  0  0  0
   10.4260  -38.8795   16.0726 O   0  0  0  0  0  0  0  0  0  0  0  0
   11.5498  -42.0798   13.2149 C   0  0  0  0  0  0  0  0  0  0  0  0
   12.3260  -42.9888   14.0103 O   0  0  0  0  0  0  0  0  0  0  0  0
    8.7622  -45.0660   12.5531 C   0  0  1  0  0  0  0  0  0  0  0  0
    8.8845  -43.7844   13.2049 O   0  0  0  0  0  0  0  0  0  0  0  0
    6.8682  -48.8311   15.2333 C   0  0  2  0  0  0  0  0  0  0  0  0
    6.8205  -48.3900   13.8482 O   0  0  0  0  0  0  0  0  0  0  0  0
   12.3904  -35.5481   13.2560 C   0  0  0  0  0  0  0  0  0  0  0  0
   13.7776  -35.5765   13.0552 O   0  0  0  0  0  0  0  0  0  0  0  0
   10.6460  -40.0982   18.2393 C   0  0  1  0  0  0  0  0  0  0  0  0
   10.9917  -41.3533   17.5576 O   0  0  0  0  0  0  0  0  0  0  0  0
    9.4639  -46.1018   13.5013 C   0  0  0  0  0  0  0  0  0  0  0  0
    8.7861  -46.2639   14.8104 N   0  0  0  0  0  0  0  0  0  0  0  0
    7.8990  -49.9577   15.2488 C   0  0  0  0  0  0  0  0  0  0  0  0
    8.2564  -50.3006   16.6233 O   0  0  0  0  0  0  0  0  0  0  0  0
  1  2  1  6  0  0  0
  1  8  1  0  0  0  0
  1 36  1  0  0  0  0
  3  4  1  1  0  0  0
  3 10  1  0  0  0  0
  3 47  1  0  0  0  0
  5 11  1  0  0  0  0
  5 30  1  0  0  0  0
  5 38  1  6  0  0  0
  6 21  1  1  0  0  0
  6 42  1  0  0  0  0
  7 15  1  0  0  0  0
  7 44  1  0  0  0  0
  7 32  1  1  0  0  0
  8  9  1  1  0  0  0
  8 17  1  0  0  0  0
 11 12  1  1  0  0  0
 11 20  1  0  0  0  0
 13  6  1  0  0  0  0
 13 14  1  1  0  0  0
 15 16  1  6  0  0  0
 15 24  1  0  0  0  0
 17 26  1  0  0  0  0
 18 10  1  0  0  0  0
 18 19  1  1  0  0  0
 20 21  1  1  0  0  0
 20 29  1  0  0  0  0
 22 13  1  0  0  0  0
 22 23  1  6  0  0  0
 24 25  1  6  0  0  0
 24 33  1  0  0  0  0
 26 27  1  6  0  0  0
 26 35  1  0  0  0  0
 28  2  1  6  0  0  0
 28 18  1  0  0  0  0
 29 30  1  0  0  0  0
 29 39  1  6  0  0  0
 31 22  1  0  0  0  0
 31 32  1  1  0  0  0
 31 41  1  0  0  0  0
 33 34  1  1  0  0  0
 33 43  1  0  0  0  0
 35 36  1  0  0  0  0
 35 45  1  6  0  0  0
 37 28  1  0  0  0  0
 37 38  1  6  0  0  0
 39 40  1  0  0  0  0
 41 42  1  0  0  0  0
 41 49  1  1  0  0  0
 43 44  1  0  0  0  0
 43 51  1  6  0  0  0
 45 46  1  0  0  0  0
 47 37  1  0  0  0  0
 47 48  1  6  0  0  0
 49 50  1  0  0  0  0
 51 52  1  0  0  0  0
M  END
>  <CHROM.1>
-124.79937185,176.07343247,-162.35826318,172.32912534,-173.83876815,64.39747881
179.12018851,133.40015185,62.14432501,-140.71046742,-75.12522660,-59.60638299
9.34899524,-41.67855729,15.21825583,-0.10994619,1.11259203,1.89085419

>  <Name>
2fd0_lig

>  <RI>
2.85265e+07

>  <Rbt.Current_Directory>
/home/itssahil/PROJECTS/Mol_Feturizer/New_Systems/rnas/2fd0

>  <Rbt.Executable>
rbdock ($Id: //depot/dev/client3/rdock/2013.1/src/exe/rbdock.cxx#4 $)

>  <Rbt.Library>
libRbt.so (2013.1, Build901 2013/11/27)

>  <Rbt.Parameter_File>
/export/apps/rDock/src/rDock_2013.1_src/data/scripts/dock_solv.prm

>  <Rbt.Receptor>
prm/blind_docking_60.prm

>  <SCORE>
-15.9487

>  <SCORE.INTER>
-22.1428

>  <SCORE.INTER.CONST>
1

>  <SCORE.INTER.POLAR>
-1.20852

>  <SCORE.INTER.ROT>
12

>  <SCORE.INTER.SOLV>
21.5368

>  <SCORE.INTER.VDW>
-29.5124

>  <SCORE.INTER.norm>
-0.425822

>  <SCORE.INTRA>
6.17164

>  <SCORE.INTRA.DIHEDRAL>
-1.18852

>  <SCORE.INTRA.DIHEDRAL.0>
23.9727

>  <SCORE.INTRA.POLAR>
0

>  <SCORE.INTRA.POLAR.0>
0

>  <SCORE.INTRA.REPUL>
0

>  <SCORE.INTRA.REPUL.0>
0

>  <SCORE.INTRA.SOLV>
4.81085

>  <SCORE.INTRA.SOLV.lig_0>
-115.028

>  <SCORE.INTRA.VDW>
4.36048

>  <SCORE.INTRA.VDW.0>
-6.82393

>  <SCORE.INTRA.norm>
0.118685

>  <SCORE.RESTR>
0.0224323

>  <SCORE.RESTR.CAVITY>
0.0224323

>  <SCORE.RESTR.norm>
0.00043139

>  <SCORE.SYSTEM>
0

>  <SCORE.SYSTEM.CONST>
0

>  <SCORE.SYSTEM.DIHEDRAL>
0

>  <SCORE.SYSTEM.SOLV>
0

>  <SCORE.SYSTEM.norm>
0

>  <SCORE.heavy>
52

>  <SCORE.norm>
-0.306706

>  <RMSD>
13.199

$$$$
2fd0_lig
 OpenBabel11021811433D
libRbt.so/2013.1/901 2013/11/27
 52 56  0  0  0  0  0  0  0  0999 V2000
   12.1929  -35.7300   17.3003 C   0  0  2  0  0  0  0  0  0  0  0  0
   10.9475  -36.2302   16.7945 O   0  0  0  0  0  0  0  0  0  0  0  0
   11.1871  -40.5151   17.4838 C   0  0  2  0  0  0  0  0  0  0  0  0
   10.8013  -41.9204   17.6914 N   0  0  0  0  0  0  0  0  0  0  0  0
    9.5183  -38.6218   13.9091 C   0  0  1  0  0  0  0  0  0  0  0  0
    8.2893  -42.3008   11.4910 C   0  0  1  0  0  0  0  0  0  0  0  0
    7.0476  -46.7851   13.9536 C   0  0  1  0  0  0  0  0  0  0  0  0
   12.1332  -34.1590   17.3113 C   0  0  2  0  0  0  0  0  0  0  0  0
   11.0096  -33.6643   18.0944 N   0  0  0  0  0  0  0  0  0  0  0  0
   10.5169  -39.5890   18.5912 C   0  0  0  0  0  0  0  0  0  0  0  0
   10.0858  -39.7480   13.0646 C   0  0  2  0  0  0  0  0  0  0  0  0
   10.3655  -39.3269   11.6998 O   0  0  0  0  0  0  0  0  0  0  0  0
    6.7761  -42.8183   11.5325 C   0  0  2  0  0  0  0  0  0  0  0  0
    6.2264  -42.7133   12.9117 N   0  0  0  0  0  0  0  0  0  0  0  0
    5.5713  -46.5586   14.3498 C   0  0  1  0  0  0  0  0  0  0  0  0
    4.7273  -46.8363   13.2051 O   0  0  0  0  0  0  0  0  0  0  0  0
   12.0959  -33.6020   15.8399 C   0  0  0  0  0  0  0  0  0  0  0  0
   10.9473  -38.0610   18.3697 C   0  0  2  0  0  0  0  0  0  0  0  0
   10.3385  -37.1827   19.3796 N   0  0  0  0  0  0  0  0  0  0  0  0
    9.0501  -40.8480   13.2248 C   0  0  2  0  0  0  0  0  0  0  0  0
    8.3001  -41.0211   12.0532 O   0  0  0  0  0  0  0  0  0  0  0  0
    6.7554  -44.2990   10.8859 C   0  0  1  0  0  0  0  0  0  0  0  0
    7.3062  -44.2118    9.5592 O   0  0  0  0  0  0  0  0  0  0  0  0
    5.0237  -47.3639   15.5592 C   0  0  1  0  0  0  0  0  0  0  0  0
    4.4227  -48.5635   15.0552 O   0  0  0  0  0  0  0  0  0  0  0  0
   13.3315  -34.1647   15.0644 C   0  0  2  0  0  0  0  0  0  0  0  0
   13.3445  -33.6680   13.7298 O   0  0  0  0  0  0  0  0  0  0  0  0
   10.5199  -37.6129   16.9441 C   0  0  2  0  0  0  0  0  0  0  0  0
    8.0281  -40.4132   14.3022 C   0  0  2  0  0  0  0  0  0  0  0  0
    8.6092  -39.2228   14.8148 O   0  0  0  0  0  0  0  0  0  0  0  0
    7.6948  -45.3278   11.7065 C   0  0  2  0  0  0  0  0  0  0  0  0
    7.0980  -45.3961   13.0153 O   0  0  0  0  0  0  0  0  0  0  0  0
    6.0552  -47.7430   16.6468 C   0  0  2  0  0  0  0  0  0  0  0  0
    5.3849  -47.5400   17.9101 O   0  0  0  0  0  0  0  0  0  0  0  0
   13.2701  -35.7189   15.0509 C   0  0  2  0  0  0  0  0  0  0  0  0
   13.2753  -36.1935   16.4524 O   0  0  0  0  0  0  0  0  0  0  0  0
   11.1053  -38.5255   15.8236 C   0  0  2  0  0  0  0  0  0  0  0  0
   10.6032  -38.0365   14.5568 O   0  0  0  0  0  0  0  0  0  0  0  0
    7.8477  -41.3936   15.4558 C   0  0  0  0  0  0  0  0  0  0  0  0
    6.7704  -40.8976   16.2649 O   0  0  0  0  0  0  0  0  0  0  0  0
    9.0437  -44.6440   11.8257 C   0  0  1  0  0  0  0  0  0  0  0  0
    9.2350  -43.2702   12.2235 O   0  0  0  0  0  0  0  0  0  0  0  0
    7.3355  -46.9258   16.4967 C   0  0  2  0  0  0  0  0  0  0  0  0
    7.9114  -46.9357   15.1611 O   0  0  0  0  0  0  0  0  0  0  0  0
   14.4470  -36.3223   14.3524 C   0  0  0  0  0  0  0  0  0  0  0  0
   14.3502  -37.7164   14.4645 O   0  0  0  0  0  0  0  0  0  0  0  0
   10.6831  -40.0203   16.0687 C   0  0  1  0  0  0  0  0  0  0  0  0
   11.2943  -40.8556   15.0255 O   0  0  0  0  0  0  0  0  0  0  0  0
   10.0916  -45.4803   12.6424 C   0  0  0  0  0  0  0  0  0  0  0  0
    9.8747  -45.4364   14.1089 N   0  0  0  0  0  0  0  0  0  0  0  0
    8.5256  -47.1074   17.4361 C   0  0  0  0  0  0  0  0  0  0  0  0
    8.0735  -47.1624   18.8243 O   0  0  0  0  0  0  0  0  0  0  0  0
  1  2  1  6  0  0  0
  1  8  1  0  0  0  0
  1 36  1  0  0  0  0
  3  4  1  1  0  0  0
  3 10  1  0  0  0  0
  3 47  1  0  0  0  0
  5 11  1  0  0  0  0
  5 30  1  0  0  0  0
  5 38  1  1  0  0  0
  6 21  1  1  0  0  0
  6 42  1  0  0  0  0
  7 15  1  0  0  0  0
  7 44  1  0  0  0  0
  7 32  1  1  0  0  0
  8  9  1  1  0  0  0
  8 17  1  0  0  0  0
 11 12  1  6  0  0  0
 11 20  1  0  0  0  0
 13  6  1  0  0  0  0
 13 14  1  1  0  0  0
 15 16  1  6  0  0  0
 15 24  1  0  0  0  0
 17 26  1  0  0  0  0
 18 10  1  0  0  0  0
 18 19  1  1  0  0  0
 20 21  1  6  0  0  0
 20 29  1  0  0  0  0
 22 13  1  0  0  0  0
 22 23  1  6  0  0  0
 24 25  1  6  0  0  0
 24 33  1  0  0  0  0
 26 27  1  6  0  0  0
 26 35  1  0  0  0  0
 28  2  1  6  0  0  0
 28 18  1  0  0  0  0
 29 30  1  0  0  0  0
 29 39  1  1  0  0  0
 31 22  1  0  0  0  0
 31 32  1  1  0  0  0
 31 41  1  0  0  0  0
 33 34  1  1  0  0  0
 33 43  1  0  0  0  0
 35 36  1  0  0  0  0
 35 45  1  6  0  0  0
 37 28  1  0  0  0  0
 37 38  1  6  0  0  0
 39 40  1  0  0  0  0
 41 42  1  0  0  0  0
 41 49  1  1  0  0  0
 43 44  1  0  0  0  0
 43 51  1  1  0  0  0
 45 46  1  0  0  0  0
 47 37  1  0  0  0  0
 47 48  1  6  0  0  0
 49 50  1  0  0  0  0
 51 52  1  0  0  0  0
M  END
>  <CHROM.1>
-164.47574049,-86.96293050,117.34697793,-135.84729725,123.66049790,39.18629119
-173.81580916,144.53154643,176.27243084,-99.05629096,-76.46025981,-45.50051730
9.32350559,-41.30459071,14.90264830,0.03746277,1.09136143,1.67777189

>  <Name>
2fd0_lig

>  <RI>
2.85265e+07

>  <Rbt.Current_Directory>
/home/itssahil/PROJECTS/Mol_Feturizer/New_Systems/rnas/2fd0

>  <Rbt.Executable>
rbdock ($Id: //depot/dev/client3/rdock/2013.1/src/exe/rbdock.cxx#4 $)

>  <Rbt.Library>
libRbt.so (2013.1, Build901 2013/11/27)

>  <Rbt.Parameter_File>
/export/apps/rDock/src/rDock_2013.1_src/data/scripts/dock_solv.prm

>  <Rbt.Receptor>
prm/blind_docking_60.prm

>  <SCORE>
-0.520776

>  <SCORE.INTER>
-15.4245

>  <SCORE.INTER.CONST>
1

>  <SCORE.INTER.POLAR>
-1.00768

>  <SCORE.INTER.ROT>
12

>  <SCORE.INTER.SOLV>
25.0677

>  <SCORE.INTER.VDW>
-26.88

>  <SCORE.INTER.norm>
-0.296626

>  <SCORE.INTRA>
14.4403

>  <SCORE.INTRA.DIHEDRAL>
15.1194

>  <SCORE.INTRA.DIHEDRAL.0>
23.9727

>  <SCORE.INTRA.POLAR>
0

>  <SCORE.INTRA.POLAR.0>
0

>  <SCORE.INTRA.REPUL>
0.0410234

>  <SCORE.INTRA.REPUL.0>
0

>  <SCORE.INTRA.SOLV>
4.76399

>  <SCORE.INTRA.SOLV.lig_0>
-115.028

>  <SCORE.INTRA.VDW>
4.2935

>  <SCORE.INTRA.VDW.0>
-6.82393

>  <SCORE.INTRA.norm>
0.277698

>  <SCORE.RESTR>
0.46345

>  <SCORE.RESTR.CAVITY>
0.46345

>  <SCORE.RESTR.norm>
0.0089125

>  <SCORE.SYSTEM>
0

>  <SCORE.SYSTEM.CONST>
0

>  <SCORE.SYSTEM.DIHEDRAL>
0

>  <SCORE.SYSTEM.SOLV>
0

>  <SCORE.SYSTEM.norm>
0

>  <SCORE.heavy>
52

>  <SCORE.norm>
-0.0100149

>  <RMSD>
13.233

$$$$
2fd0_lig
 OpenBabel11021811433D
libRbt.so/2013.1/901 2013/11/27
 52 56  0  0  0  0  0  0  0  0999 V2000
   12.8464  -35.6495   17.4265 C   0  0  2  0  0  0  0  0  0  0  0  0
   11.5292  -36.1513   17.1616 O   0  0  0  0  0  0  0  0  0  0  0  0
   11.2219  -39.8101   19.4878 C   0  0  2  0  0  0  0  0  0  0  0  0
   10.6673  -40.9162   20.2852 N   0  0  0  0  0  0  0  0  0  0  0  0
   10.3572  -39.6501   15.0628 C   0  0  1  0  0  0  0  0  0  0  0  0
    7.3680  -42.0206   12.5206 C   0  0  1  0  0  0  0  0  0  0  0  0
    4.5277  -45.7139   13.7616 C   0  0  1  0  0  0  0  0  0  0  0  0
   12.7992  -34.0785   17.3927 C   0  0  2  0  0  0  0  0  0  0  0  0
   11.8313  -33.5443   18.3406 N   0  0  0  0  0  0  0  0  0  0  0  0
   10.9232  -38.4158   20.1947 C   0  0  0  0  0  0  0  0  0  0  0  0
    8.8662  -39.9075   14.9435 C   0  0  2  0  0  0  0  0  0  0  0  0
    8.3948  -40.8806   15.9177 O   0  0  0  0  0  0  0  0  0  0  0  0
    6.0351  -41.5240   13.2527 C   0  0  2  0  0  0  0  0  0  0  0  0
    5.9840  -42.0383   14.6485 N   0  0  0  0  0  0  0  0  0  0  0  0
    3.9680  -45.4948   15.1852 C   0  0  1  0  0  0  0  0  0  0  0  0
    2.5614  -45.1587   15.0930 O   0  0  0  0  0  0  0  0  0  0  0  0
   12.5110  -33.5705   15.9314 C   0  0  0  0  0  0  0  0  0  0  0  0
   11.5377  -37.2138   19.3304 C   0  0  2  0  0  0  0  0  0  0  0  0
   11.2729  -35.9124   19.9612 N   0  0  0  0  0  0  0  0  0  0  0  0
    8.7037  -40.2928   13.4827 C   0  0  2  0  0  0  0  0  0  0  0  0
    8.4428  -41.6625   13.3394 O   0  0  0  0  0  0  0  0  0  0  0  0
    4.7871  -41.9364   12.3129 C   0  0  1  0  0  0  0  0  0  0  0  0
    4.9943  -41.3480   11.0161 O   0  0  0  0  0  0  0  0  0  0  0  0
    4.1199  -46.6596   16.2006 C   0  0  1  0  0  0  0  0  0  0  0  0
    2.9266  -47.4517   16.1455 O   0  0  0  0  0  0  0  0  0  0  0  0
   13.5902  -34.1737   14.9741 C   0  0  2  0  0  0  0  0  0  0  0  0
   13.3748  -33.7220   13.6408 O   0  0  0  0  0  0  0  0  0  0  0  0
   10.9267  -37.2496   17.9017 C   0  0  2  0  0  0  0  0  0  0  0  0
   10.0488  -40.0559   12.7553 C   0  0  2  0  0  0  0  0  0  0  0  0
   10.8244  -39.4006   13.7486 O   0  0  0  0  0  0  0  0  0  0  0  0
    4.7074  -43.5351   12.0846 C   0  0  2  0  0  0  0  0  0  0  0  0
    4.4833  -44.0769   13.3998 O   0  0  0  0  0  0  0  0  0  0  0  0
    5.3414  -47.5851   15.9959 C   0  0  2  0  0  0  0  0  0  0  0  0
    5.8572  -47.8513   17.3186 O   0  0  0  0  0  0  0  0  0  0  0  0
   13.5177  -35.7267   15.0258 C   0  0  2  0  0  0  0  0  0  0  0  0
   13.7627  -36.1542   16.4210 O   0  0  0  0  0  0  0  0  0  0  0  0
   11.1427  -38.6183   17.1868 C   0  0  2  0  0  0  0  0  0  0  0  0
   10.4953  -38.5415   15.8941 O   0  0  0  0  0  0  0  0  0  0  0  0
    9.9717  -39.1492   11.5320 C   0  0  0  0  0  0  0  0  0  0  0  0
   11.2999  -39.0525   10.9956 O   0  0  0  0  0  0  0  0  0  0  0  0
    6.0903  -43.9513   11.6198 C   0  0  1  0  0  0  0  0  0  0  0  0
    7.3246  -43.5338   12.2398 O   0  0  0  0  0  0  0  0  0  0  0  0
    6.3630  -46.9454   15.0596 C   0  0  2  0  0  0  0  0  0  0  0  0
    5.8174  -46.4637   13.8004 O   0  0  0  0  0  0  0  0  0  0  0  0
   14.5522  -36.3672   14.1559 C   0  0  0  0  0  0  0  0  0  0  0  0
   14.5278  -37.7480   14.3976 O   0  0  0  0  0  0  0  0  0  0  0  0
   10.5459  -39.7832   18.0583 C   0  0  1  0  0  0  0  0  0  0  0  0
   10.8134  -41.0588   17.3796 O   0  0  0  0  0  0  0  0  0  0  0  0
    6.2254  -45.4978   11.3864 C   0  0  0  0  0  0  0  0  0  0  0  0
    5.4333  -45.9972   10.2364 N   0  0  0  0  0  0  0  0  0  0  0  0
    7.6624  -47.6506   14.6774 C   0  0  0  0  0  0  0  0  0  0  0  0
    8.6137  -46.6943   14.1161 O   0  0  0  0  0  0  0  0  0  0  0  0
  1  2  1  6  0  0  0
  1  8  1  0  0  0  0
  1 36  1  0  0  0  0
  3  4  1  1  0  0  0
  3 10  1  0  0  0  0
  3 47  1  0  0  0  0
  5 11  1  0  0  0  0
  5 30  1  0  0  0  0
  5 38  1  1  0  0  0
  6 21  1  1  0  0  0
  6 42  1  0  0  0  0
  7 15  1  0  0  0  0
  7 44  1  0  0  0  0
  7 32  1  1  0  0  0
  8  9  1  1  0  0  0
  8 17  1  0  0  0  0
 11 12  1  1  0  0  0
 11 20  1  0  0  0  0
 13  6  1  0  0  0  0
 13 14  1  1  0  0  0
 15 16  1  6  0  0  0
 15 24  1  0  0  0  0
 17 26  1  0  0  0  0
 18 10  1  0  0  0  0
 18 19  1  1  0  0  0
 20 21  1  1  0  0  0
 20 29  1  0  0  0  0
 22 13  1  0  0  0  0
 22 23  1  6  0  0  0
 24 25  1  6  0  0  0
 24 33  1  0  0  0  0
 26 27  1  6  0  0  0
 26 35  1  0  0  0  0
 28  2  1  6  0  0  0
 28 18  1  0  0  0  0
 29 30  1  0  0  0  0
 29 39  1  6  0  0  0
 31 22  1  0  0  0  0
 31 32  1  1  0  0  0
 31 41  1  0  0  0  0
 33 34  1  1  0  0  0
 33 43  1  0  0  0  0
 35 36  1  0  0  0  0
 35 45  1  6  0  0  0
 37 28  1  0  0  0  0
 37 38  1  6  0  0  0
 39 40  1  0  0  0  0
 41 42  1  0  0  0  0
 41 49  1  1  0  0  0
 43 44  1  0  0  0  0
 43 51  1  6  0  0  0
 45 46  1  0  0  0  0
 47 37  1  0  0  0  0
 47 48  1  6  0  0  0
 49 50  1  0  0  0  0
 51 52  1  0  0  0  0
M  END
>  <CHROM.1>
-136.88303417,115.63902770,-67.37183645,-170.52510092,131.02288295,29.34129550
-179.83774456,-171.40580829,172.42446291,-172.01540067,68.02022847,-163.26212777
8.89026444,-40.87221412,15.05353387,0.04847283,0.93594924,1.77046965

>  <Name>
2fd0_lig

>  <RI>
2.85265e+07

>  <Rbt.Current_Directory>
/home/itssahil/PROJECTS/Mol_Feturizer/New_Systems/rnas/2fd0

>  <Rbt.Executable>
rbdock ($Id: //depot/dev/client3/rdock/2013.1/src/exe/rbdock.cxx#4 $)

>  <Rbt.Library>
libRbt.so (2013.1, Build901 2013/11/27)

>  <Rbt.Parameter_File>
/export/apps/rDock/src/rDock_2013.1_src/data/scripts/dock_solv.prm

>  <Rbt.Receptor>
prm/blind_docking_60.prm

>  <SCORE>
-16.7029

>  <SCORE.INTER>
-25.1847

>  <SCORE.INTER.CONST>
1

>  <SCORE.INTER.POLAR>
-2.12895

>  <SCORE.INTER.ROT>
12

>  <SCORE.INTER.SOLV>
21.9706

>  <SCORE.INTER.VDW>
-28.6168

>  <SCORE.INTER.norm>
-0.484321

>  <SCORE.INTRA>
6.76073

>  <SCORE.INTRA.DIHEDRAL>
3.42434

>  <SCORE.INTRA.DIHEDRAL.0>
23.9727

>  <SCORE.INTRA.POLAR>
0

>  <SCORE.INTRA.POLAR.0>
0

>  <SCORE.INTRA.REPUL>
0.000928946

>  <SCORE.INTRA.REPUL.0>
0

>  <SCORE.INTRA.SOLV>
1.45062

>  <SCORE.INTRA.SOLV.lig_0>
-115.028

>  <SCORE.INTRA.VDW>
4.31861

>  <SCORE.INTRA.VDW.0>
-6.82393

>  <SCORE.INTRA.norm>
0.130014

>  <SCORE.RESTR>
1.72103

>  <SCORE.RESTR.CAVITY>
1.72103

>  <SCORE.RESTR.norm>
0.0330968

>  <SCORE.SYSTEM>
0

>  <SCORE.SYSTEM.CONST>
0

>  <SCORE.SYSTEM.DIHEDRAL>
0

>  <SCORE.SYSTEM.SOLV>
0

>  <SCORE.SYSTEM.norm>
0

>  <SCORE.heavy>
52

>  <SCORE.norm>
-0.32121

>  <RMSD>
13.278

$$$$
2fd0_lig
 OpenBabel11021811433D
libRbt.so/2013.1/901 2013/11/27
 52 56  0  0  0  0  0  0  0  0999 V2000
   11.3676  -36.7381   15.2142 C   0  0  2  0  0  0  0  0  0  0  0  0
   12.0016  -37.2293   16.4031 O   0  0  0  0  0  0  0  0  0  0  0  0
   11.3105  -38.2923   20.5607 C   0  0  2  0  0  0  0  0  0  0  0  0
   10.6742  -38.4258   21.8813 N   0  0  0  0  0  0  0  0  0  0  0  0
   10.0098  -40.8363   16.9574 C   0  0  1  0  0  0  0  0  0  0  0  0
    8.8560  -44.6138   14.9921 C   0  0  1  0  0  0  0  0  0  0  0  0
    5.5644  -48.5716   14.2522 C   0  0  1  0  0  0  0  0  0  0  0  0
   12.4713  -36.5025   14.1198 C   0  0  2  0  0  0  0  0  0  0  0  0
   13.2336  -37.7134   13.8487 N   0  0  0  0  0  0  0  0  0  0  0  0
   11.4485  -36.7565   20.1669 C   0  0  0  0  0  0  0  0  0  0  0  0
    8.9217  -41.0185   15.9151 C   0  0  2  0  0  0  0  0  0  0  0  0
    7.5909  -41.0333   16.5040 O   0  0  0  0  0  0  0  0  0  0  0  0
    8.1171  -44.7356   13.5784 C   0  0  2  0  0  0  0  0  0  0  0  0
    6.6600  -44.4707   13.7266 N   0  0  0  0  0  0  0  0  0  0  0  0
    4.8605  -47.8379   15.4158 C   0  0  1  0  0  0  0  0  0  0  0  0
    4.0193  -46.7901   14.8731 O   0  0  0  0  0  0  0  0  0  0  0  0
   13.4135  -35.3138   14.5390 C   0  0  0  0  0  0  0  0  0  0  0  0
   12.1516  -36.6133   18.7336 C   0  0  2  0  0  0  0  0  0  0  0  0
   12.2889  -35.2021   18.3444 N   0  0  0  0  0  0  0  0  0  0  0  0
    9.3481  -42.2876   15.1968 C   0  0  2  0  0  0  0  0  0  0  0  0
    8.5166  -43.3672   15.5255 O   0  0  0  0  0  0  0  0  0  0  0  0
    8.5028  -46.1759   12.9558 C   0  0  1  0  0  0  0  0  0  0  0  0
    9.9374  -46.2542   12.8731 O   0  0  0  0  0  0  0  0  0  0  0  0
    4.0002  -48.6934   16.3848 C   0  0  1  0  0  0  0  0  0  0  0  0
    2.6479  -48.6721   15.9105 O   0  0  0  0  0  0  0  0  0  0  0  0
   12.5312  -34.0504   14.8039 C   0  0  2  0  0  0  0  0  0  0  0  0
   13.3503  -32.9442   15.1692 O   0  0  0  0  0  0  0  0  0  0  0  0
   11.3111  -37.3804   17.6749 C   0  0  2  0  0  0  0  0  0  0  0  0
   10.7559  -42.6907   15.6968 C   0  0  2  0  0  0  0  0  0  0  0  0
   11.1263  -41.5802   16.5013 O   0  0  0  0  0  0  0  0  0  0  0  0
    8.0308  -47.3914   13.9119 C   0  0  2  0  0  0  0  0  0  0  0  0
    6.5954  -47.2837   13.9507 O   0  0  0  0  0  0  0  0  0  0  0  0
    4.4407  -50.1643   16.5665 C   0  0  2  0  0  0  0  0  0  0  0  0
    4.2951  -50.4455   17.9759 O   0  0  0  0  0  0  0  0  0  0  0  0
   11.5165  -34.3573   15.9423 C   0  0  2  0  0  0  0  0  0  0  0  0
   10.6764  -35.4987   15.5168 O   0  0  0  0  0  0  0  0  0  0  0  0
   11.0979  -38.8801   18.0446 C   0  0  2  0  0  0  0  0  0  0  0  0
   10.2703  -39.4696   17.0133 O   0  0  0  0  0  0  0  0  0  0  0  0
   11.8057  -42.8624   14.6045 C   0  0  0  0  0  0  0  0  0  0  0  0
   11.8310  -41.6415   13.8496 O   0  0  0  0  0  0  0  0  0  0  0  0
    8.5771  -47.0645   15.2889 C   0  0  1  0  0  0  0  0  0  0  0  0
    8.4734  -45.7750   15.9280 O   0  0  0  0  0  0  0  0  0  0  0  0
    5.8584  -50.3806   16.0441 C   0  0  2  0  0  0  0  0  0  0  0  0
    6.0896  -49.8974   14.6919 O   0  0  0  0  0  0  0  0  0  0  0  0
   10.6154  -33.1964   16.2206 C   0  0  0  0  0  0  0  0  0  0  0  0
   11.3936  -32.1631   16.7612 O   0  0  0  0  0  0  0  0  0  0  0  0
   10.4209  -38.9969   19.4591 C   0  0  1  0  0  0  0  0  0  0  0  0
   10.2837  -40.4208   19.7953 O   0  0  0  0  0  0  0  0  0  0  0  0
    8.1786  -48.1208   16.3797 C   0  0  0  0  0  0  0  0  0  0  0  0
    8.8119  -49.4472   16.1826 N   0  0  0  0  0  0  0  0  0  0  0  0
    6.5381  -51.7472   16.0917 C   0  0  0  0  0  0  0  0  0  0  0  0
    6.5490  -52.3559   14.7636 O   0  0  0  0  0  0  0  0  0  0  0  0
  1  2  1  1  0  0  0
  1  8  1  0  0  0  0
  1 36  1  0  0  0  0
  3  4  1  1  0  0  0
  3 10  1  0  0  0  0
  3 47  1  0  0  0  0
  5 11  1  0  0  0  0
  5 30  1  0  0  0  0
  5 38  1  6  0  0  0
  6 21  1  1  0  0  0
  6 42  1  0  0  0  0
  7 15  1  0  0  0  0
  7 44  1  0  0  0  0
  7 32  1  1  0  0  0
  8  9  1  1  0  0  0
  8 17  1  0  0  0  0
 11 12  1  1  0  0  0
 11 20  1  0  0  0  0
 13  6  1  0  0  0  0
 13 14  1  1  0  0  0
 15 16  1  6  0  0  0
 15 24  1  0  0  0  0
 17 26  1  0  0  0  0
 18 10  1  0  0  0  0
 18 19  1  6  0  0  0
 20 21  1  1  0  0  0
 20 29  1  0  0  0  0
 22 13  1  0  0  0  0
 22 23  1  1  0  0  0
 24 25  1  6  0  0  0
 24 33  1  0  0  0  0
 26 27  1  1  0  0  0
 26 35  1  0  0  0  0
 28  2  1  6  0  0  0
 28 18  1  0  0  0  0
 29 30  1  0  0  0  0
 29 39  1  6  0  0  0
 31 22  1  0  0  0  0
 31 32  1  1  0  0  0
 31 41  1  0  0  0  0
 33 34  1  1  0  0  0
 33 43  1  0  0  0  0
 35 36  1  0  0  0  0
 35 45  1  6  0  0  0
 37 28  1  0  0  0  0
 37 38  1  6  0  0  0
 39 40  1  0  0  0  0
 41 42  1  0  0  0  0
 41 49  1  1  0  0  0
 43 44  1  0  0  0  0
 43 51  1  6  0  0  0
 45 46  1  0  0  0  0
 47 37  1  0  0  0  0
 47 48  1  1  0  0  0
 49 50  1  0  0  0  0
 51 52  1  0  0  0  0
M  END
>  <CHROM.1>
171.17424678,169.82475116,-89.49612335,125.58908202,-176.14410487,-126.57144189
54.74794007,154.30936434,-67.18588177,172.70457367,67.82754089,104.03627319
9.19326543,-42.34289868,16.02185282,-0.62759509,-1.05621308,-2.16297458

>  <Name>
2fd0_lig

>  <RI>
2.85265e+07

>  <Rbt.Current_Directory>
/home/itssahil/PROJECTS/Mol_Feturizer/New_Systems/rnas/2fd0

>  <Rbt.Executable>
rbdock ($Id: //depot/dev/client3/rdock/2013.1/src/exe/rbdock.cxx#4 $)

>  <Rbt.Library>
libRbt.so (2013.1, Build901 2013/11/27)

>  <Rbt.Parameter_File>
/export/apps/rDock/src/rDock_2013.1_src/data/scripts/dock_solv.prm

>  <Rbt.Receptor>
prm/blind_docking_60.prm

>  <SCORE>
-21.631

>  <SCORE.INTER>
-28.1558

>  <SCORE.INTER.CONST>
1

>  <SCORE.INTER.POLAR>
-1.31315

>  <SCORE.INTER.ROT>
12

>  <SCORE.INTER.SOLV>
25.221

>  <SCORE.INTER.VDW>
-34.4004

>  <SCORE.INTER.norm>
-0.541459

>  <SCORE.INTRA>
5.64344

>  <SCORE.INTRA.DIHEDRAL>
3.21339

>  <SCORE.INTRA.DIHEDRAL.0>
23.9727

>  <SCORE.INTRA.POLAR>
0

>  <SCORE.INTRA.POLAR.0>
0

>  <SCORE.INTRA.REPUL>
0.0639613

>  <SCORE.INTRA.REPUL.0>
0

>  <SCORE.INTRA.SOLV>
3.5332

>  <SCORE.INTRA.SOLV.lig_0>
-115.028

>  <SCORE.INTRA.VDW>
1.95034

>  <SCORE.INTRA.VDW.0>
-6.82393

>  <SCORE.INTRA.norm>
0.108528

>  <SCORE.RESTR>
0.881401

>  <SCORE.RESTR.CAVITY>
0.881401

>  <SCORE.RESTR.norm>
0.01695

>  <SCORE.SYSTEM>
0

>  <SCORE.SYSTEM.CONST>
0

>  <SCORE.SYSTEM.DIHEDRAL>
0

>  <SCORE.SYSTEM.SOLV>
0

>  <SCORE.SYSTEM.norm>
0

>  <SCORE.heavy>
52

>  <SCORE.norm>
-0.415981

>  <RMSD>
13.312

$$$$
2fd0_lig
 OpenBabel11021811433D
libRbt.so/2013.1/901 2013/11/27
 52 56  0  0  0  0  0  0  0  0999 V2000
   -4.7868  -50.6978    2.9649 C   0  0  2  0  0  0  0  0  0  0  0  0
   -6.1250  -51.1144    3.2692 O   0  0  0  0  0  0  0  0  0  0  0  0
   -8.3215  -51.2546    7.0173 C   0  0  2  0  0  0  0  0  0  0  0  0
   -8.8143  -51.6967    8.3321 N   0  0  0  0  0  0  0  0  0  0  0  0
   -4.1778  -49.3099    6.4459 C   0  0  1  0  0  0  0  0  0  0  0  0
   -0.3505  -47.1466    7.6674 C   0  0  1  0  0  0  0  0  0  0  0  0
    3.4420  -47.2325   11.1193 C   0  0  1  0  0  0  0  0  0  0  0  0
   -4.8003  -49.9386    1.5884 C   0  0  2  0  0  0  0  0  0  0  0  0
   -5.7146  -48.8053    1.6029 N   0  0  0  0  0  0  0  0  0  0  0  0
   -8.5872  -52.3781    5.9218 C   0  0  0  0  0  0  0  0  0  0  0  0
   -2.7382  -49.7431    6.6550 C   0  0  2  0  0  0  0  0  0  0  0  0
   -2.5497  -50.4384    7.9195 O   0  0  0  0  0  0  0  0  0  0  0  0
    0.9059  -48.0766    7.3270 C   0  0  2  0  0  0  0  0  0  0  0  0
    0.9819  -49.2193    8.2776 N   0  0  0  0  0  0  0  0  0  0  0  0
    4.8672  -47.3644   10.5368 C   0  0  1  0  0  0  0  0  0  0  0  0
    5.1819  -46.1673    9.7833 O   0  0  0  0  0  0  0  0  0  0  0  0
   -5.1393  -50.9337    0.4173 C   0  0  0  0  0  0  0  0  0  0  0  0
   -8.0598  -51.8901    4.4890 C   0  0  2  0  0  0  0  0  0  0  0  0
   -8.2912  -52.9125    3.4579 N   0  0  0  0  0  0  0  0  0  0  0  0
   -1.9649  -48.4463    6.4844 C   0  0  2  0  0  0  0  0  0  0  0  0
   -1.4745  -47.9764    7.7106 O   0  0  0  0  0  0  0  0  0  0  0  0
    2.2106  -47.1245    7.2775 C   0  0  1  0  0  0  0  0  0  0  0  0
    1.9693  -46.0909    6.3057 O   0  0  0  0  0  0  0  0  0  0  0  0
    6.0270  -47.6241   11.5360 C   0  0  1  0  0  0  0  0  0  0  0  0
    6.5859  -46.3563   11.9027 O   0  0  0  0  0  0  0  0  0  0  0  0
   -4.1159  -52.1152    0.4576 C   0  0  2  0  0  0  0  0  0  0  0  0
   -4.3780  -53.0313   -0.6008 O   0  0  0  0  0  0  0  0  0  0  0  0
   -6.5433  -51.5645    4.5882 C   0  0  2  0  0  0  0  0  0  0  0  0
   -2.9383  -47.3507    5.9879 C   0  0  2  0  0  0  0  0  0  0  0  0
   -4.1256  -48.0870    5.7318 O   0  0  0  0  0  0  0  0  0  0  0  0
    2.4652  -46.3777    8.6887 C   0  0  2  0  0  0  0  0  0  0  0  0
    2.7179  -47.4452    9.6216 O   0  0  0  0  0  0  0  0  0  0  0  0
    5.6554  -48.3953   12.8235 C   0  0  2  0  0  0  0  0  0  0  0  0
    6.7423  -49.3181   13.0548 O   0  0  0  0  0  0  0  0  0  0  0  0
   -4.2208  -52.8441    1.8277 C   0  0  2  0  0  0  0  0  0  0  0  0
   -3.9259  -51.8638    2.8961 O   0  0  0  0  0  0  0  0  0  0  0  0
   -6.2234  -50.5086    5.6898 C   0  0  2  0  0  0  0  0  0  0  0  0
   -4.7874  -50.3257    5.7141 O   0  0  0  0  0  0  0  0  0  0  0  0
   -2.5213  -46.6506    4.6994 C   0  0  0  0  0  0  0  0  0  0  0  0
   -3.6399  -45.8600    4.2691 O   0  0  0  0  0  0  0  0  0  0  0  0
    1.1449  -45.7234    9.0495 C   0  0  1  0  0  0  0  0  0  0  0  0
   -0.1398  -46.3772    8.9843 O   0  0  0  0  0  0  0  0  0  0  0  0
    4.2965  -49.0757   12.6820 C   0  0  2  0  0  0  0  0  0  0  0  0
    3.2231  -48.2044   12.2303 O   0  0  0  0  0  0  0  0  0  0  0  0
   -3.2391  -53.9665    1.9442 C   0  0  0  0  0  0  0  0  0  0  0  0
   -3.5655  -54.9302    0.9796 O   0  0  0  0  0  0  0  0  0  0  0  0
   -6.7618  -51.0009    7.0828 C   0  0  1  0  0  0  0  0  0  0  0  0
   -6.4891  -49.9600    8.0836 O   0  0  0  0  0  0  0  0  0  0  0  0
    1.1806  -44.9773   10.4302 C   0  0  0  0  0  0  0  0  0  0  0  0
   -0.1439  -44.4747   10.8690 N   0  0  0  0  0  0  0  0  0  0  0  0
    3.6821  -49.8977   13.8128 C   0  0  0  0  0  0  0  0  0  0  0  0
    4.6711  -50.8195   14.3665 O   0  0  0  0  0  0  0  0  0  0  0  0
  1  2  1  6  0  0  0
  1  8  1  0  0  0  0
  1 36  1  0  0  0  0
  3  4  1  1  0  0  0
  3 10  1  0  0  0  0
  3 47  1  0  0  0  0
  5 11  1  0  0  0  0
  5 30  1  0  0  0  0
  5 38  1  6  0  0  0
  6 21  1  1  0  0  0
  6 42  1  0  0  0  0
  7 15  1  0  0  0  0
  7 44  1  0  0  0  0
  7 32  1  6  0  0  0
  8  9  1  1  0  0  0
  8 17  1  0  0  0  0
 11 12  1  1  0  0  0
 11 20  1  0  0  0  0
 13  6  1  0  0  0  0
 13 14  1  1  0  0  0
 15 16  1  1  0  0  0
 15 24  1  0  0  0  0
 17 26  1  0  0  0  0
 18 10  1  0  0  0  0
 18 19  1  6  0  0  0
 20 21  1  1  0  0  0
 20 29  1  0  0  0  0
 22 13  1  0  0  0  0
 22 23  1  6  0  0  0
 24 25  1  1  0  0  0
 24 33  1  0  0  0  0
 26 27  1  6  0  0  0
 26 35  1  0  0  0  0
 28  2  1  6  0  0  0
 28 18  1  0  0  0  0
 29 30  1  0  0  0  0
 29 39  1  6  0  0  0
 31 22  1  0  0  0  0
 31 32  1  1  0  0  0
 31 41  1  0  0  0  0
 33 34  1  6  0  0  0
 33 43  1  0  0  0  0
 35 36  1  0  0  0  0
 35 45  1  6  0  0  0
 37 28  1  0  0  0  0
 37 38  1  1  0  0  0
 39 40  1  0  0  0  0
 41 42  1  0  0  0  0
 41 49  1  1  0  0  0
 43 44  1  0  0  0  0
 43 51  1  1  0  0  0
 45 46  1  0  0  0  0
 47 37  1  0  0  0  0
 47 48  1  1  0  0  0
 49 50  1  0  0  0  0
 51 52  1  0  0  0  0
M  END
>  <CHROM.1>
-165.28068241,159.03922533,-73.70419524,-86.70606208,155.27700639,178.89852647
169.68497551,162.70147468,-64.12257180,170.33570967,-173.04850002,-47.15583893
-1.52406880,-49.24853078,6.97967556,-2.46682174,0.30555469,1.47421310

>  <Name>
2fd0_lig

>  <RI>
0

>  <Rbt.Current_Directory>
/home/itssahil/PROJECTS/Mol_Feturizer/New_Systems/rnas/2fd0

>  <Rbt.Executable>
rbdock ($Id: //depot/dev/client3/rdock/2013.1/src/exe/rbdock.cxx#4 $)

>  <Rbt.Library>
libRbt.so (2013.1, Build901 2013/11/27)

>  <Rbt.Parameter_File>
/export/apps/rDock/src/rDock_2013.1_src/data/scripts/dock_solv.prm

>  <Rbt.Receptor>
prm/pocket_docking_6.prm

>  <SCORE>
-14.0111

>  <SCORE.INTER>
-9.17241

>  <SCORE.INTER.CONST>
1

>  <SCORE.INTER.POLAR>
-1.50507

>  <SCORE.INTER.ROT>
12

>  <SCORE.INTER.SOLV>
10.1112

>  <SCORE.INTER.VDW>
-16.0684

>  <SCORE.INTER.norm>
-0.176393

>  <SCORE.INTRA>
-4.95514

>  <SCORE.INTRA.DIHEDRAL>
-10.029

>  <SCORE.INTRA.DIHEDRAL.0>
23.9727

>  <SCORE.INTRA.POLAR>
0

>  <SCORE.INTRA.POLAR.0>
0

>  <SCORE.INTRA.REPUL>
0

>  <SCORE.INTRA.REPUL.0>
0

>  <SCORE.INTRA.SOLV>
-4.42793

>  <SCORE.INTRA.SOLV.lig_0>
-115.028

>  <SCORE.INTRA.VDW>
2.27332

>  <SCORE.INTRA.VDW.0>
-6.82393

>  <SCORE.INTRA.norm>
-0.0952912

>  <SCORE.RESTR>
0.116501

>  <SCORE.RESTR.CAVITY>
0.116501

>  <SCORE.RESTR.norm>
0.00224041

>  <SCORE.SYSTEM>
0

>  <SCORE.SYSTEM.CONST>
0

>  <SCORE.SYSTEM.DIHEDRAL>
0

>  <SCORE.SYSTEM.SOLV>
0

>  <SCORE.SYSTEM.norm>
0

>  <SCORE.heavy>
52

>  <SCORE.norm>
-0.269443

>  <RMSD>
13.315

$$$$
2fd0_lig
 OpenBabel11021811433D
libRbt.so/2013.1/901 2013/11/27
 52 56  0  0  0  0  0  0  0  0999 V2000
   12.3531  -36.0501   18.7973 C   0  0  2  0  0  0  0  0  0  0  0  0
   12.0291  -37.3906   18.4036 O   0  0  0  0  0  0  0  0  0  0  0  0
   11.8539  -41.0440   20.7519 C   0  0  2  0  0  0  0  0  0  0  0  0
   11.4091  -42.0683   21.7110 N   0  0  0  0  0  0  0  0  0  0  0  0
    9.6994  -40.4740   16.7688 C   0  0  1  0  0  0  0  0  0  0  0  0
    9.5841  -42.3871   14.1426 C   0  0  1  0  0  0  0  0  0  0  0  0
    5.5223  -43.6666   12.0045 C   0  0  1  0  0  0  0  0  0  0  0  0
   11.0143  -35.2554   19.0147 C   0  0  2  0  0  0  0  0  0  0  0  0
   10.1543  -35.8999   19.9974 N   0  0  0  0  0  0  0  0  0  0  0  0
   12.0885  -39.6564   21.4952 C   0  0  0  0  0  0  0  0  0  0  0  0
   10.8966  -41.3171   16.3695 C   0  0  2  0  0  0  0  0  0  0  0  0
   11.4894  -40.8746   15.1161 O   0  0  0  0  0  0  0  0  0  0  0  0
    8.0026  -42.4929   14.3593 C   0  0  2  0  0  0  0  0  0  0  0  0
    7.5649  -43.9150   14.3224 N   0  0  0  0  0  0  0  0  0  0  0  0
    4.9540  -42.3936   11.3381 C   0  0  1  0  0  0  0  0  0  0  0  0
    5.0422  -42.5347    9.8986 O   0  0  0  0  0  0  0  0  0  0  0  0
   10.2679  -35.0542   17.6440 C   0  0  0  0  0  0  0  0  0  0  0  0
   12.5834  -38.5455   20.4509 C   0  0  2  0  0  0  0  0  0  0  0  0
   12.8051  -37.2514   21.1126 N   0  0  0  0  0  0  0  0  0  0  0  0
   10.3367  -42.7295   16.3812 C   0  0  2  0  0  0  0  0  0  0  0  0
   10.1836  -43.2315   15.0814 O   0  0  0  0  0  0  0  0  0  0  0  0
    7.3017  -41.5207   13.2755 C   0  0  1  0  0  0  0  0  0  0  0  0
    7.8289  -40.1947   13.4621 O   0  0  0  0  0  0  0  0  0  0  0  0
    3.4979  -41.9888   11.6945 C   0  0  1  0  0  0  0  0  0  0  0  0
    2.6268  -42.5650   10.7130 O   0  0  0  0  0  0  0  0  0  0  0  0
   11.2444  -34.3516   16.6452 C   0  0  2  0  0  0  0  0  0  0  0  0
   10.5989  -34.1343   15.3945 O   0  0  0  0  0  0  0  0  0  0  0  0
   11.5220  -38.3956   19.3255 C   0  0  2  0  0  0  0  0  0  0  0  0
    8.9080  -42.6912   16.9742 C   0  0  2  0  0  0  0  0  0  0  0  0
    8.7977  -41.3486   17.4245 O   0  0  0  0  0  0  0  0  0  0  0  0
    7.6632  -41.9495   11.7590 C   0  0  2  0  0  0  0  0  0  0  0  0
    7.1039  -43.2685   11.6138 O   0  0  0  0  0  0  0  0  0  0  0  0
    3.0032  -42.3987   13.1009 C   0  0  2  0  0  0  0  0  0  0  0  0
    2.2486  -41.2704   13.5949 O   0  0  0  0  0  0  0  0  0  0  0  0
   12.5056  -35.2395   16.4436 C   0  0  2  0  0  0  0  0  0  0  0  0
   13.1540  -35.4265   17.7605 O   0  0  0  0  0  0  0  0  0  0  0  0
   11.2136  -39.7425   18.6032 C   0  0  2  0  0  0  0  0  0  0  0  0
   10.1870  -39.4823   17.6160 O   0  0  0  0  0  0  0  0  0  0  0  0
    8.6763  -43.6162   18.1638 C   0  0  0  0  0  0  0  0  0  0  0  0
    9.1266  -44.9227   17.7748 O   0  0  0  0  0  0  0  0  0  0  0  0
    9.1757  -42.0585   11.7142 C   0  0  1  0  0  0  0  0  0  0  0  0
    9.9785  -42.7443   12.6978 O   0  0  0  0  0  0  0  0  0  0  0  0
    4.1721  -42.7922   14.0000 C   0  0  2  0  0  0  0  0  0  0  0  0
    5.0792  -43.7733   13.4255 O   0  0  0  0  0  0  0  0  0  0  0  0
   13.4991  -34.6046   15.5233 C   0  0  0  0  0  0  0  0  0  0  0  0
   14.5104  -35.5404   15.2644 O   0  0  0  0  0  0  0  0  0  0  0  0
   10.7443  -40.8205   19.6473 C   0  0  1  0  0  0  0  0  0  0  0  0
   10.5135  -42.0874   18.9394 O   0  0  0  0  0  0  0  0  0  0  0  0
    9.7221  -42.5157   10.3154 C   0  0  0  0  0  0  0  0  0  0  0  0
    9.4857  -43.9506   10.0246 N   0  0  0  0  0  0  0  0  0  0  0  0
    3.9647  -43.2500   15.4420 C   0  0  0  0  0  0  0  0  0  0  0  0
    2.8818  -42.4925   16.0650 O   0  0  0  0  0  0  0  0  0  0  0  0
  1  2  1  6  0  0  0
  1  8  1  0  0  0  0
  1 36  1  0  0  0  0
  3  4  1  1  0  0  0
  3 10  1  0  0  0  0
  3 47  1  0  0  0  0
  5 11  1  0  0  0  0
  5 30  1  0  0  0  0
  5 38  1  1  0  0  0
  6 21  1  1  0  0  0
  6 42  1  0  0  0  0
  7 15  1  0  0  0  0
  7 44  1  0  0  0  0
  7 32  1  1  0  0  0
  8  9  1  1  0  0  0
  8 17  1  0  0  0  0
 11 12  1  6  0  0  0
 11 20  1  0  0  0  0
 13  6  1  0  0  0  0
 13 14  1  6  0  0  0
 15 16  1  6  0  0  0
 15 24  1  0  0  0  0
 17 26  1  0  0  0  0
 18 10  1  0  0  0  0
 18 19  1  1  0  0  0
 20 21  1  6  0  0  0
 20 29  1  0  0  0  0
 22 13  1  0  0  0  0
 22 23  1  1  0  0  0
 24 25  1  6  0  0  0
 24 33  1  0  0  0  0
 26 27  1  6  0  0  0
 26 35  1  0  0  0  0
 28  2  1  6  0  0  0
 28 18  1  0  0  0  0
 29 30  1  0  0  0  0
 29 39  1  1  0  0  0
 31 22  1  0  0  0  0
 31 32  1  1  0  0  0
 31 41  1  0  0  0  0
 33 34  1  1  0  0  0
 33 43  1  0  0  0  0
 35 36  1  0  0  0  0
 35 45  1  6  0  0  0
 37 28  1  0  0  0  0
 37 38  1  6  0  0  0
 39 40  1  0  0  0  0
 41 42  1  0  0  0  0
 41 49  1  6  0  0  0
 43 44  1  0  0  0  0
 43 51  1  1  0  0  0
 45 46  1  0  0  0  0
 47 37  1  0  0  0  0
 47 48  1  6  0  0  0
 49 50  1  0  0  0  0
 51 52  1  0  0  0  0
M  END
>  <CHROM.1>
-74.59200581,-39.11387131,-81.44524746,43.83797903,-46.15071993,-58.22246481
-51.38418929,50.79767179,-172.42996708,178.50716738,-73.31592970,-37.09319316
9.02826024,-40.50107595,15.72330674,-0.09151357,-0.89978240,-0.86543853

>  <Name>
2fd0_lig

>  <RI>
2.85265e+07

>  <Rbt.Current_Directory>
/home/itssahil/PROJECTS/Mol_Feturizer/New_Systems/rnas/2fd0

>  <Rbt.Executable>
rbdock ($Id: //depot/dev/client3/rdock/2013.1/src/exe/rbdock.cxx#4 $)

>  <Rbt.Library>
libRbt.so (2013.1, Build901 2013/11/27)

>  <Rbt.Parameter_File>
/export/apps/rDock/src/rDock_2013.1_src/data/scripts/dock_solv.prm

>  <Rbt.Receptor>
prm/blind_docking_60.prm

>  <SCORE>
2.52978

>  <SCORE.INTER>
-9.27768

>  <SCORE.INTER.CONST>
1

>  <SCORE.INTER.POLAR>
-1.77297

>  <SCORE.INTER.ROT>
12

>  <SCORE.INTER.SOLV>
29.7682

>  <SCORE.INTER.VDW>
-21.798

>  <SCORE.INTER.norm>
-0.178417

>  <SCORE.INTRA>
11.3572

>  <SCORE.INTRA.DIHEDRAL>
-12.3512

>  <SCORE.INTRA.DIHEDRAL.0>
23.9727

>  <SCORE.INTRA.POLAR>
0

>  <SCORE.INTRA.POLAR.0>
0

>  <SCORE.INTRA.REPUL>
0

>  <SCORE.INTRA.REPUL.0>
0

>  <SCORE.INTRA.SOLV>
7.1176

>  <SCORE.INTRA.SOLV.lig_0>
-115.028

>  <SCORE.INTRA.VDW>
13.974

>  <SCORE.INTRA.VDW.0>
-6.82393

>  <SCORE.INTRA.norm>
0.218408

>  <SCORE.RESTR>
0.450238

>  <SCORE.RESTR.CAVITY>
0.450238

>  <SCORE.RESTR.norm>
0.00865843

>  <SCORE.SYSTEM>
0

>  <SCORE.SYSTEM.CONST>
0

>  <SCORE.SYSTEM.DIHEDRAL>
0

>  <SCORE.SYSTEM.SOLV>
0

>  <SCORE.SYSTEM.norm>
0

>  <SCORE.heavy>
52

>  <SCORE.norm>
0.0486496

>  <RMSD>
13.344

$$$$
2fd0_lig
 OpenBabel11021811433D
libRbt.so/2013.1/901 2013/11/27
 52 56  0  0  0  0  0  0  0  0999 V2000
   -6.4760  -53.1524    5.2465 C   0  0  2  0  0  0  0  0  0  0  0  0
   -7.1693  -52.3208    4.3060 O   0  0  0  0  0  0  0  0  0  0  0  0
   -8.6098  -48.2234    4.4746 C   0  0  2  0  0  0  0  0  0  0  0  0
   -9.4263  -47.0417    4.7971 N   0  0  0  0  0  0  0  0  0  0  0  0
   -5.3934  -50.4703    7.2067 C   0  0  1  0  0  0  0  0  0  0  0  0
   -1.7679  -51.6348    9.6223 C   0  0  1  0  0  0  0  0  0  0  0  0
    2.1622  -48.9138   11.3268 C   0  0  1  0  0  0  0  0  0  0  0  0
   -5.5723  -54.1624    4.4498 C   0  0  2  0  0  0  0  0  0  0  0  0
   -4.6403  -53.4759    3.5662 N   0  0  0  0  0  0  0  0  0  0  0  0
   -9.4981  -49.3271    3.7495 C   0  0  0  0  0  0  0  0  0  0  0  0
   -5.2727  -51.2992    8.4723 C   0  0  2  0  0  0  0  0  0  0  0  0
   -5.6657  -50.5542    9.6591 O   0  0  0  0  0  0  0  0  0  0  0  0
   -1.2588  -51.0136   11.0059 C   0  0  2  0  0  0  0  0  0  0  0  0
   -1.3600  -49.5289   10.9799 N   0  0  0  0  0  0  0  0  0  0  0  0
    3.4946  -49.6341   11.0208 C   0  0  1  0  0  0  0  0  0  0  0  0
    4.0088  -49.1573    9.7527 O   0  0  0  0  0  0  0  0  0  0  0  0
   -6.4646  -55.1877    3.6566 C   0  0  0  0  0  0  0  0  0  0  0  0
   -8.6045  -50.6082    3.3895 C   0  0  2  0  0  0  0  0  0  0  0  0
   -9.4031  -51.6456    2.7201 N   0  0  0  0  0  0  0  0  0  0  0  0
   -3.8305  -51.7756    8.4303 C   0  0  2  0  0  0  0  0  0  0  0  0
   -3.0447  -51.1172    9.3862 O   0  0  0  0  0  0  0  0  0  0  0  0
    0.2185  -51.6057   11.2852 C   0  0  1  0  0  0  0  0  0  0  0  0
    0.1279  -53.0419   11.2885 O   0  0  0  0  0  0  0  0  0  0  0  0
    4.6288  -49.5186   12.0751 C   0  0  1  0  0  0  0  0  0  0  0  0
    5.4579  -48.4075   11.7114 O   0  0  0  0  0  0  0  0  0  0  0  0
   -7.4297  -55.8909    4.6660 C   0  0  2  0  0  0  0  0  0  0  0  0
   -8.2442  -56.8426    3.9886 O   0  0  0  0  0  0  0  0  0  0  0  0
   -7.9776  -51.1748    4.6939 C   0  0  2  0  0  0  0  0  0  0  0  0
   -3.2199  -51.3866    7.0627 C   0  0  2  0  0  0  0  0  0  0  0  0
   -4.3468  -50.8954    6.3512 O   0  0  0  0  0  0  0  0  0  0  0  0
    1.2567  -51.2137   10.1093 C   0  0  2  0  0  0  0  0  0  0  0  0
    1.3281  -49.7762   10.1551 O   0  0  0  0  0  0  0  0  0  0  0  0
    4.1769  -49.3428   13.5433 C   0  0  2  0  0  0  0  0  0  0  0  0
    5.0599  -50.1750   14.3271 O   0  0  0  0  0  0  0  0  0  0  0  0
   -8.3252  -54.8223    5.3558 C   0  0  2  0  0  0  0  0  0  0  0  0
   -7.4432  -53.8653    6.0599 O   0  0  0  0  0  0  0  0  0  0  0  0
   -7.1427  -50.1133    5.4731 C   0  0  2  0  0  0  0  0  0  0  0  0
   -6.6531  -50.7447    6.6804 O   0  0  0  0  0  0  0  0  0  0  0  0
   -2.6192  -52.5423    6.2702 C   0  0  0  0  0  0  0  0  0  0  0  0
   -1.7997  -53.2940    7.1782 O   0  0  0  0  0  0  0  0  0  0  0  0
    0.5812  -51.6228    8.8140 C   0  0  1  0  0  0  0  0  0  0  0  0
   -0.7895  -51.3264    8.4741 O   0  0  0  0  0  0  0  0  0  0  0  0
    2.7008  -49.6938   13.7083 C   0  0  2  0  0  0  0  0  0  0  0  0
    1.8082  -49.0291   12.7719 O   0  0  0  0  0  0  0  0  0  0  0  0
   -9.2498  -55.4287    6.3631 C   0  0  0  0  0  0  0  0  0  0  0  0
   -9.9505  -54.3887    6.9902 O   0  0  0  0  0  0  0  0  0  0  0  0
   -8.0342  -48.8605    5.8027 C   0  0  1  0  0  0  0  0  0  0  0  0
   -7.2022  -47.8626    6.4893 O   0  0  0  0  0  0  0  0  0  0  0  0
    1.4275  -51.2759    7.5381 C   0  0  0  0  0  0  0  0  0  0  0  0
    2.5647  -52.2000    7.3094 N   0  0  0  0  0  0  0  0  0  0  0  0
    1.9926  -49.5975   15.0578 C   0  0  0  0  0  0  0  0  0  0  0  0
    2.1381  -48.2541   15.6134 O   0  0  0  0  0  0  0  0  0  0  0  0
  1  2  1  6  0  0  0
  1  8  1  0  0  0  0
  1 36  1  0  0  0  0
  3  4  1  1  0  0  0
  3 10  1  0  0  0  0
  3 47  1  0  0  0  0
  5 11  1  0  0  0  0
  5 30  1  0  0  0  0
  5 38  1  6  0  0  0
  6 21  1  6  0  0  0
  6 42  1  0  0  0  0
  7 15  1  0  0  0  0
  7 44  1  0  0  0  0
  7 32  1  6  0  0  0
  8  9  1  6  0  0  0
  8 17  1  0  0  0  0
 11 12  1  1  0  0  0
 11 20  1  0  0  0  0
 13  6  1  0  0  0  0
 13 14  1  6  0  0  0
 15 16  1  6  0  0  0
 15 24  1  0  0  0  0
 17 26  1  0  0  0  0
 18 10  1  0  0  0  0
 18 19  1  1  0  0  0
 20 21  1  1  0  0  0
 20 29  1  0  0  0  0
 22 13  1  0  0  0  0
 22 23  1  6  0  0  0
 24 25  1  6  0  0  0
 24 33  1  0  0  0  0
 26 27  1  6  0  0  0
 26 35  1  0  0  0  0
 28  2  1  6  0  0  0
 28 18  1  0  0  0  0
 29 30  1  0  0  0  0
 29 39  1  6  0  0  0
 31 22  1  0  0  0  0
 31 32  1  6  0  0  0
 31 41  1  0  0  0  0
 33 34  1  1  0  0  0
 33 43  1  0  0  0  0
 35 36  1  0  0  0  0
 35 45  1  1  0  0  0
 37 28  1  0  0  0  0
 37 38  1  1  0  0  0
 39 40  1  0  0  0  0
 41 42  1  0  0  0  0
 41 49  1  6  0  0  0
 43 44  1  0  0  0  0
 43 51  1  1  0  0  0
 45 46  1  0  0  0  0
 47 37  1  0  0  0  0
 47 48  1  6  0  0  0
 49 50  1  0  0  0  0
 51 52  1  0  0  0  0
M  END
>  <CHROM.1>
-172.84133803,178.85516899,-163.64535610,56.43633215,168.38613709,-177.00896962
-47.07490341,75.22082081,176.25555819,143.35653867,76.26177479,55.46125370
-3.01999476,-51.23913864,8.12531681,-2.75312116,-0.49654381,0.37614175

>  <Name>
2fd0_lig

>  <RI>
3.4301e+07

>  <Rbt.Current_Directory>
/home/itssahil/PROJECTS/Mol_Feturizer/New_Systems/rnas/2fd0

>  <Rbt.Executable>
rbdock ($Id: //depot/dev/client3/rdock/2013.1/src/exe/rbdock.cxx#4 $)

>  <Rbt.Library>
libRbt.so (2013.1, Build901 2013/11/27)

>  <Rbt.Parameter_File>
/export/apps/rDock/src/rDock_2013.1_src/data/scripts/dock_solv.prm

>  <Rbt.Receptor>
prm/pocket_docking_7.prm

>  <SCORE>
-15.26

>  <SCORE.INTER>
-7.92482

>  <SCORE.INTER.CONST>
1

>  <SCORE.INTER.POLAR>
-1.47301

>  <SCORE.INTER.ROT>
12

>  <SCORE.INTER.SOLV>
7.27975

>  <SCORE.INTER.VDW>
-14.3998

>  <SCORE.INTER.norm>
-0.1524

>  <SCORE.INTRA>
-7.33519

>  <SCORE.INTRA.DIHEDRAL>
-13.0006

>  <SCORE.INTRA.DIHEDRAL.0>
23.9727

>  <SCORE.INTRA.POLAR>
0

>  <SCORE.INTRA.POLAR.0>
0

>  <SCORE.INTRA.REPUL>
0

>  <SCORE.INTRA.REPUL.0>
0

>  <SCORE.INTRA.SOLV>
-2.75058

>  <SCORE.INTRA.SOLV.lig_0>
-115.028

>  <SCORE.INTRA.VDW>
0.540394

>  <SCORE.INTRA.VDW.0>
-6.82393

>  <SCORE.INTRA.norm>
-0.141061

>  <SCORE.RESTR>
0

>  <SCORE.RESTR.CAVITY>
0

>  <SCORE.RESTR.norm>
0

>  <SCORE.SYSTEM>
0

>  <SCORE.SYSTEM.CONST>
0

>  <SCORE.SYSTEM.DIHEDRAL>
0

>  <SCORE.SYSTEM.SOLV>
0

>  <SCORE.SYSTEM.norm>
0

>  <SCORE.heavy>
52

>  <SCORE.norm>
-0.293462

>  <RMSD>
13.355

$$$$
2fd0_lig
 OpenBabel11021811433D
libRbt.so/2013.1/901 2013/11/27
 52 56  0  0  0  0  0  0  0  0999 V2000
   11.3117  -36.9075   17.1543 C   0  0  2  0  0  0  0  0  0  0  0  0
   11.9864  -37.2477   18.3733 O   0  0  0  0  0  0  0  0  0  0  0  0
   11.5280  -39.2860   22.1849 C   0  0  2  0  0  0  0  0  0  0  0  0
   10.9240  -39.9762   23.3364 N   0  0  0  0  0  0  0  0  0  0  0  0
   10.3819  -40.3803   17.9482 C   0  0  1  0  0  0  0  0  0  0  0  0
    8.6523  -41.8418   14.4463 C   0  0  1  0  0  0  0  0  0  0  0  0
    7.3640  -45.6285   11.8249 C   0  0  1  0  0  0  0  0  0  0  0  0
   12.3571  -36.2778   16.1633 C   0  0  2  0  0  0  0  0  0  0  0  0
   13.4764  -37.1751   15.9133 N   0  0  0  0  0  0  0  0  0  0  0  0
   10.8615  -37.8543   21.9875 C   0  0  0  0  0  0  0  0  0  0  0  0
   10.5306  -41.1066   16.6238 C   0  0  2  0  0  0  0  0  0  0  0  0
   10.4913  -40.1970   15.4884 O   0  0  0  0  0  0  0  0  0  0  0  0
    7.2706  -41.5796   13.6835 C   0  0  2  0  0  0  0  0  0  0  0  0
    6.2318  -42.5428   14.1399 N   0  0  0  0  0  0  0  0  0  0  0  0
    5.8701  -45.8854   11.5247 C   0  0  1  0  0  0  0  0  0  0  0  0
    5.5868  -45.4849   10.1612 O   0  0  0  0  0  0  0  0  0  0  0  0
   12.8494  -34.8829   16.7001 C   0  0  0  0  0  0  0  0  0  0  0  0
   11.5284  -37.1003   20.7401 C   0  0  2  0  0  0  0  0  0  0  0  0
   10.9278  -35.7742   20.5340 N   0  0  0  0  0  0  0  0  0  0  0  0
    9.4271  -42.1494   16.6824 C   0  0  2  0  0  0  0  0  0  0  0  0
    8.3727  -41.8298   15.8158 O   0  0  0  0  0  0  0  0  0  0  0  0
    7.5850  -41.5942   12.0986 C   0  0  1  0  0  0  0  0  0  0  0  0
    8.5936  -40.6016   11.8369 O   0  0  0  0  0  0  0  0  0  0  0  0
    5.3391  -47.3311   11.7228 C   0  0  1  0  0  0  0  0  0  0  0  0
    5.4307  -48.0112   10.4645 O   0  0  0  0  0  0  0  0  0  0  0  0
   11.6003  -33.9724   16.9358 C   0  0  2  0  0  0  0  0  0  0  0  0
   12.0056  -32.6907   17.4060 O   0  0  0  0  0  0  0  0  0  0  0  0
   11.3519  -37.9711   19.4648 C   0  0  2  0  0  0  0  0  0  0  0  0
    8.8074  -42.1359   18.1002 C   0  0  2  0  0  0  0  0  0  0  0  0
    9.6723  -41.2573   18.8056 O   0  0  0  0  0  0  0  0  0  0  0  0
    8.1996  -43.0109   11.6195 C   0  0  2  0  0  0  0  0  0  0  0  0
    7.1543  -43.9656   11.8833 O   0  0  0  0  0  0  0  0  0  0  0  0
    6.0569  -48.1775   12.7994 C   0  0  2  0  0  0  0  0  0  0  0  0
    5.0133  -48.8970   13.4919 O   0  0  0  0  0  0  0  0  0  0  0  0
   10.6587  -34.6449   17.9755 C   0  0  2  0  0  0  0  0  0  0  0  0
   10.2486  -35.9629   17.4425 O   0  0  0  0  0  0  0  0  0  0  0  0
   11.9385  -39.4064   19.6279 C   0  0  2  0  0  0  0  0  0  0  0  0
   11.6744  -40.1271   18.4003 O   0  0  0  0  0  0  0  0  0  0  0  0
    8.8029  -43.4815   18.8170 C   0  0  0  0  0  0  0  0  0  0  0  0
    8.5165  -44.4834   17.8294 O   0  0  0  0  0  0  0  0  0  0  0  0
    9.3586  -43.2922   12.5570 C   0  0  1  0  0  0  0  0  0  0  0  0
    9.3028  -43.1616   13.9930 O   0  0  0  0  0  0  0  0  0  0  0  0
    6.9025  -47.2968   13.7153 C   0  0  2  0  0  0  0  0  0  0  0  0
    7.8110  -46.3952   13.0246 O   0  0  0  0  0  0  0  0  0  0  0  0
    9.4230  -33.8383   18.2195 C   0  0  0  0  0  0  0  0  0  0  0  0
    8.7756  -33.6535   16.9897 O   0  0  0  0  0  0  0  0  0  0  0  0
   11.2815  -40.1214   20.8648 C   0  0  1  0  0  0  0  0  0  0  0  0
   11.8947  -41.4480   21.0178 O   0  0  0  0  0  0  0  0  0  0  0  0
   10.0634  -44.6662   12.2751 C   0  0  0  0  0  0  0  0  0  0  0  0
   11.2292  -44.9279   13.1536 N   0  0  0  0  0  0  0  0  0  0  0  0
    7.7268  -47.8788   14.8615 C   0  0  0  0  0  0  0  0  0  0  0  0
    7.8860  -49.3211   14.6917 O   0  0  0  0  0  0  0  0  0  0  0  0
  1  2  1  1  0  0  0
  1  8  1  0  0  0  0
  1 36  1  0  0  0  0
  3  4  1  1  0  0  0
  3 10  1  0  0  0  0
  3 47  1  0  0  0  0
  5 11  1  0  0  0  0
  5 30  1  0  0  0  0
  5 38  1  1  0  0  0
  6 21  1  1  0  0  0
  6 42  1  0  0  0  0
  7 15  1  0  0  0  0
  7 44  1  0  0  0  0
  7 32  1  1  0  0  0
  8  9  1  1  0  0  0
  8 17  1  0  0  0  0
 11 12  1  6  0  0  0
 11 20  1  0  0  0  0
 13  6  1  0  0  0  0
 13 14  1  6  0  0  0
 15 16  1  6  0  0  0
 15 24  1  0  0  0  0
 17 26  1  0  0  0  0
 18 10  1  0  0  0  0
 18 19  1  6  0  0  0
 20 21  1  6  0  0  0
 20 29  1  0  0  0  0
 22 13  1  0  0  0  0
 22 23  1  1  0  0  0
 24 25  1  6  0  0  0
 24 33  1  0  0  0  0
 26 27  1  1  0  0  0
 26 35  1  0  0  0  0
 28  2  1  6  0  0  0
 28 18  1  0  0  0  0
 29 30  1  0  0  0  0
 29 39  1  1  0  0  0
 31 22  1  0  0  0  0
 31 32  1  1  0  0  0
 31 41  1  0  0  0  0
 33 34  1  1  0  0  0
 33 43  1  0  0  0  0
 35 36  1  0  0  0  0
 35 45  1  6  0  0  0
 37 28  1  0  0  0  0
 37 38  1  6  0  0  0
 39 40  1  0  0  0  0
 41 42  1  0  0  0  0
 41 49  1  1  0  0  0
 43 44  1  0  0  0  0
 43 51  1  1  0  0  0
 45 46  1  0  0  0  0
 47 37  1  0  0  0  0
 47 48  1  1  0  0  0
 49 50  1  0  0  0  0
 51 52  1  0  0  0  0
M  END
>  <CHROM.1>
-173.80122477,178.11916171,174.94123562,-154.70457551,65.57100753,-125.08848805
-38.14772512,-168.64022314,56.98745670,-62.10818689,177.86218906,16.33082269
9.36700147,-41.28176884,16.00154734,0.28428778,-1.19677760,-0.69925029

>  <Name>
2fd0_lig

>  <RI>
2.85265e+07

>  <Rbt.Current_Directory>
/home/itssahil/PROJECTS/Mol_Feturizer/New_Systems/rnas/2fd0

>  <Rbt.Executable>
rbdock ($Id: //depot/dev/client3/rdock/2013.1/src/exe/rbdock.cxx#4 $)

>  <Rbt.Library>
libRbt.so (2013.1, Build901 2013/11/27)

>  <Rbt.Parameter_File>
/export/apps/rDock/src/rDock_2013.1_src/data/scripts/dock_solv.prm

>  <Rbt.Receptor>
prm/blind_docking_60.prm

>  <SCORE>
-10.0894

>  <SCORE.INTER>
-12.9327

>  <SCORE.INTER.CONST>
1

>  <SCORE.INTER.POLAR>
-0.699591

>  <SCORE.INTER.ROT>
12

>  <SCORE.INTER.SOLV>
25.4016

>  <SCORE.INTER.VDW>
-26.357

>  <SCORE.INTER.norm>
-0.248707

>  <SCORE.INTRA>
-0.122509

>  <SCORE.INTRA.DIHEDRAL>
-6.25307

>  <SCORE.INTRA.DIHEDRAL.0>
23.9727

>  <SCORE.INTRA.POLAR>
0

>  <SCORE.INTRA.POLAR.0>
0

>  <SCORE.INTRA.REPUL>
0

>  <SCORE.INTRA.REPUL.0>
0

>  <SCORE.INTRA.SOLV>
-0.291589

>  <SCORE.INTRA.SOLV.lig_0>
-115.028

>  <SCORE.INTRA.VDW>
3.14982

>  <SCORE.INTRA.VDW.0>
-6.82393

>  <SCORE.INTRA.norm>
-0.00235595

>  <SCORE.RESTR>
2.96581

>  <SCORE.RESTR.CAVITY>
2.96581

>  <SCORE.RESTR.norm>
0.0570347

>  <SCORE.SYSTEM>
0

>  <SCORE.SYSTEM.CONST>
0

>  <SCORE.SYSTEM.DIHEDRAL>
0

>  <SCORE.SYSTEM.SOLV>
0

>  <SCORE.SYSTEM.norm>
0

>  <SCORE.heavy>
52

>  <SCORE.norm>
-0.194028

>  <RMSD>
13.479

$$$$
2fd0_lig
 OpenBabel11021811433D
libRbt.so/2013.1/901 2013/11/27
 52 56  0  0  0  0  0  0  0  0999 V2000
   -9.8676  -50.7311    5.4382 C   0  0  2  0  0  0  0  0  0  0  0  0
   -8.6352  -51.1816    6.0172 O   0  0  0  0  0  0  0  0  0  0  0  0
   -9.6856  -55.0719    7.6466 C   0  0  2  0  0  0  0  0  0  0  0  0
   -9.5848  -56.3823    8.3096 N   0  0  0  0  0  0  0  0  0  0  0  0
   -7.7594  -51.3931    9.4430 C   0  0  1  0  0  0  0  0  0  0  0  0
   -3.9036  -49.4016   10.4145 C   0  0  1  0  0  0  0  0  0  0  0  0
    0.9178  -47.8119    9.2430 C   0  0  1  0  0  0  0  0  0  0  0  0
   -9.5876  -49.4120    4.6300 C   0  0  2  0  0  0  0  0  0  0  0  0
   -8.5665  -49.6071    3.6102 N   0  0  0  0  0  0  0  0  0  0  0  0
   -8.6727  -54.9935    6.4215 C   0  0  0  0  0  0  0  0  0  0  0  0
   -6.9419  -50.4652    8.5632 C   0  0  2  0  0  0  0  0  0  0  0  0
   -6.1909  -51.1879    7.5474 O   0  0  0  0  0  0  0  0  0  0  0  0
   -3.7015  -47.9261    9.8299 C   0  0  2  0  0  0  0  0  0  0  0  0
   -3.2752  -47.9834    8.4050 N   0  0  0  0  0  0  0  0  0  0  0  0
    0.6794  -47.4452    7.7610 C   0  0  1  0  0  0  0  0  0  0  0  0
    0.2682  -46.0582    7.6781 O   0  0  0  0  0  0  0  0  0  0  0  0
   -9.2039  -48.2410    5.6088 C   0  0  0  0  0  0  0  0  0  0  0  0
   -8.7921  -53.5699    5.6945 C   0  0  2  0  0  0  0  0  0  0  0  0
   -7.8635  -53.4704    4.5589 N   0  0  0  0  0  0  0  0  0  0  0  0
   -6.1182  -49.6803    9.5701 C   0  0  2  0  0  0  0  0  0  0  0  0
   -4.7720  -50.0704    9.5472 O   0  0  0  0  0  0  0  0  0  0  0  0
   -2.6963  -47.1466   10.8263 C   0  0  1  0  0  0  0  0  0  0  0  0
   -3.2674  -47.1779   12.1469 O   0  0  0  0  0  0  0  0  0  0  0  0
    1.8580  -47.6585    6.7728 C   0  0  1  0  0  0  0  0  0  0  0  0
    2.5849  -46.4267    6.6802 O   0  0  0  0  0  0  0  0  0  0  0  0
  -10.3450  -48.0834    6.6661 C   0  0  2  0  0  0  0  0  0  0  0  0
  -10.0437  -47.0184    7.5623 O   0  0  0  0  0  0  0  0  0  0  0  0
   -8.4980  -52.4450    6.7258 C   0  0  2  0  0  0  0  0  0  0  0  0
   -6.6177  -50.0236   10.9939 C   0  0  2  0  0  0  0  0  0  0  0  0
   -7.7725  -50.8086   10.7338 O   0  0  0  0  0  0  0  0  0  0  0  0
   -1.2600  -47.8820   10.9294 C   0  0  2  0  0  0  0  0  0  0  0  0
   -0.7217  -47.8114    9.5957 O   0  0  0  0  0  0  0  0  0  0  0  0
    2.8459  -48.7937    7.1277 C   0  0  2  0  0  0  0  0  0  0  0  0
    3.1487  -49.4540    5.8792 O   0  0  0  0  0  0  0  0  0  0  0  0
  -10.5043  -49.4131    7.4575 C   0  0  2  0  0  0  0  0  0  0  0  0
  -10.8323  -50.4873    6.4943 O   0  0  0  0  0  0  0  0  0  0  0  0
   -9.4281  -52.5132    7.9753 C   0  0  2  0  0  0  0  0  0  0  0  0
   -9.0291  -51.4505    8.8740 O   0  0  0  0  0  0  0  0  0  0  0  0
   -7.0334  -48.8254   11.8400 C   0  0  0  0  0  0  0  0  0  0  0  0
   -5.8958  -47.9535   11.9224 O   0  0  0  0  0  0  0  0  0  0  0  0
   -1.5653  -49.3328   11.2510 C   0  0  1  0  0  0  0  0  0  0  0  0
   -2.5576  -50.1321   10.5738 O   0  0  0  0  0  0  0  0  0  0  0  0
    2.2549  -49.7247    8.1830 C   0  0  2  0  0  0  0  0  0  0  0  0
    1.7357  -49.0543    9.3647 O   0  0  0  0  0  0  0  0  0  0  0  0
  -11.6082  -49.3396    8.4641 C   0  0  0  0  0  0  0  0  0  0  0  0
  -11.6793  -50.5761    9.1210 O   0  0  0  0  0  0  0  0  0  0  0  0
   -9.3058  -53.9217    8.6636 C   0  0  1  0  0  0  0  0  0  0  0  0
  -10.2325  -53.9670    9.8032 O   0  0  0  0  0  0  0  0  0  0  0  0
   -0.2802  -50.2293   11.3468 C   0  0  0  0  0  0  0  0  0  0  0  0
    0.4998  -50.0195   12.5906 N   0  0  0  0  0  0  0  0  0  0  0  0
    3.0256  -50.9270    8.7236 C   0  0  0  0  0  0  0  0  0  0  0  0
    4.3053  -50.5000    9.2845 O   0  0  0  0  0  0  0  0  0  0  0  0
  1  2  1  1  0  0  0
  1  8  1  0  0  0  0
  1 36  1  0  0  0  0
  3  4  1  1  0  0  0
  3 10  1  0  0  0  0
  3 47  1  0  0  0  0
  5 11  1  0  0  0  0
  5 30  1  0  0  0  0
  5 38  1  6  0  0  0
  6 21  1  6  0  0  0
  6 42  1  0  0  0  0
  7 15  1  0  0  0  0
  7 44  1  0  0  0  0
  7 32  1  6  0  0  0
  8  9  1  6  0  0  0
  8 17  1  0  0  0  0
 11 12  1  6  0  0  0
 11 20  1  0  0  0  0
 13  6  1  0  0  0  0
 13 14  1  6  0  0  0
 15 16  1  1  0  0  0
 15 24  1  0  0  0  0
 17 26  1  0  0  0  0
 18 10  1  0  0  0  0
 18 19  1  6  0  0  0
 20 21  1  1  0  0  0
 20 29  1  0  0  0  0
 22 13  1  0  0  0  0
 22 23  1  1  0  0  0
 24 25  1  1  0  0  0
 24 33  1  0  0  0  0
 26 27  1  1  0  0  0
 26 35  1  0  0  0  0
 28  2  1  6  0  0  0
 28 18  1  0  0  0  0
 29 30  1  0  0  0  0
 29 39  1  1  0  0  0
 31 22  1  0  0  0  0
 31 32  1  6  0  0  0
 31 41  1  0  0  0  0
 33 34  1  6  0  0  0
 33 43  1  0  0  0  0
 35 36  1  0  0  0  0
 35 45  1  1  0  0  0
 37 28  1  0  0  0  0
 37 38  1  1  0  0  0
 39 40  1  0  0  0  0
 41 42  1  0  0  0  0
 41 49  1  6  0  0  0
 43 44  1  0  0  0  0
 43 51  1  1  0  0  0
 45 46  1  0  0  0  0
 47 37  1  0  0  0  0
 47 48  1  1  0  0  0
 49 50  1  0  0  0  0
 51 52  1  0  0  0  0
M  END
>  <CHROM.1>
-173.88615226,96.21965699,-72.07900735,-169.65628007,178.84737702,63.13915661
-57.74054567,153.03774509,179.81241661,-61.91772317,74.74287178,56.73674328
-4.97134696,-49.99924096,8.49249451,-2.88850747,0.14943457,0.99356084

>  <Name>
2fd0_lig

>  <RI>
0

>  <Rbt.Current_Directory>
/home/itssahil/PROJECTS/Mol_Feturizer/New_Systems/rnas/2fd0

>  <Rbt.Executable>
rbdock ($Id: //depot/dev/client3/rdock/2013.1/src/exe/rbdock.cxx#4 $)

>  <Rbt.Library>
libRbt.so (2013.1, Build901 2013/11/27)

>  <Rbt.Parameter_File>
/export/apps/rDock/src/rDock_2013.1_src/data/scripts/dock_solv.prm

>  <Rbt.Receptor>
prm/pocket_docking_8.prm

>  <SCORE>
-8.72114

>  <SCORE.INTER>
-2.58099

>  <SCORE.INTER.CONST>
1

>  <SCORE.INTER.POLAR>
-0.715332

>  <SCORE.INTER.ROT>
12

>  <SCORE.INTER.SOLV>
8.43278

>  <SCORE.INTER.VDW>
-13.7472

>  <SCORE.INTER.norm>
-0.0496345

>  <SCORE.INTRA>
-6.14015

>  <SCORE.INTRA.DIHEDRAL>
-12.7808

>  <SCORE.INTRA.DIHEDRAL.0>
23.9727

>  <SCORE.INTRA.POLAR>
0

>  <SCORE.INTRA.POLAR.0>
0

>  <SCORE.INTRA.REPUL>
0

>  <SCORE.INTRA.REPUL.0>
0

>  <SCORE.INTRA.SOLV>
-0.731594

>  <SCORE.INTRA.SOLV.lig_0>
-115.028

>  <SCORE.INTRA.VDW>
0.616052

>  <SCORE.INTRA.VDW.0>
-6.82393

>  <SCORE.INTRA.norm>
-0.11808

>  <SCORE.RESTR>
0

>  <SCORE.RESTR.CAVITY>
0

>  <SCORE.RESTR.norm>
0

>  <SCORE.SYSTEM>
0

>  <SCORE.SYSTEM.CONST>
0

>  <SCORE.SYSTEM.DIHEDRAL>
0

>  <SCORE.SYSTEM.SOLV>
0

>  <SCORE.SYSTEM.norm>
0

>  <SCORE.heavy>
52

>  <SCORE.norm>
-0.167714

>  <RMSD>
13.550

$$$$
2fd0_lig
 OpenBabel11021811433D
libRbt.so/2013.1/901 2013/11/27
 52 56  0  0  0  0  0  0  0  0999 V2000
   11.7698  -37.9450   19.3820 C   0  0  2  0  0  0  0  0  0  0  0  0
   11.0346  -37.5049   18.2319 O   0  0  0  0  0  0  0  0  0  0  0  0
   12.3130  -34.7164   15.1525 C   0  0  2  0  0  0  0  0  0  0  0  0
   12.9738  -34.1558   13.9625 N   0  0  0  0  0  0  0  0  0  0  0  0
   10.2889  -38.8114   15.1505 C   0  0  1  0  0  0  0  0  0  0  0  0
    8.9801  -42.8481   13.5045 C   0  0  1  0  0  0  0  0  0  0  0  0
    7.1550  -46.9418   16.1897 C   0  0  1  0  0  0  0  0  0  0  0  0
   10.8131  -38.8010   20.2894 C   0  0  2  0  0  0  0  0  0  0  0  0
   10.2434  -39.9285   19.5650 N   0  0  0  0  0  0  0  0  0  0  0  0
   13.3955  -35.3105   16.1567 C   0  0  0  0  0  0  0  0  0  0  0  0
    9.1127  -39.7642   15.0390 C   0  0  2  0  0  0  0  0  0  0  0  0
    8.9521  -40.5839   16.2308 O   0  0  0  0  0  0  0  0  0  0  0  0
    7.7934  -43.0457   14.5591 C   0  0  2  0  0  0  0  0  0  0  0  0
    8.3411  -43.2645   15.9257 N   0  0  0  0  0  0  0  0  0  0  0  0
    7.9312  -48.2146   15.7833 C   0  0  1  0  0  0  0  0  0  0  0  0
    9.2602  -48.1609   16.3583 O   0  0  0  0  0  0  0  0  0  0  0  0
    9.6890  -37.8918   20.9108 C   0  0  0  0  0  0  0  0  0  0  0  0
   12.6745  -35.9103   17.4566 C   0  0  2  0  0  0  0  0  0  0  0  0
   13.6536  -36.4688   18.4007 N   0  0  0  0  0  0  0  0  0  0  0  0
    9.4022  -40.5120   13.7484 C   0  0  2  0  0  0  0  0  0  0  0  0
    9.8025  -41.8318   13.9990 O   0  0  0  0  0  0  0  0  0  0  0  0
    6.8388  -44.2213   13.9954 C   0  0  1  0  0  0  0  0  0  0  0  0
    6.3939  -43.8401   12.6810 O   0  0  0  0  0  0  0  0  0  0  0  0
    7.3012  -49.5850   16.1524 C   0  0  1  0  0  0  0  0  0  0  0  0
    7.8360  -49.9899   17.4191 O   0  0  0  0  0  0  0  0  0  0  0  0
   10.3715  -36.7127   21.6780 C   0  0  2  0  0  0  0  0  0  0  0  0
    9.3855  -35.8743   22.2723 O   0  0  0  0  0  0  0  0  0  0  0  0
   11.6669  -37.0097   17.0186 C   0  0  2  0  0  0  0  0  0  0  0  0
   10.6114  -39.8451   13.0500 C   0  0  2  0  0  0  0  0  0  0  0  0
   10.8260  -38.6878   13.8450 O   0  0  0  0  0  0  0  0  0  0  0  0
    7.6385  -45.6160   13.8231 C   0  0  2  0  0  0  0  0  0  0  0  0
    8.0474  -45.9651   15.1590 O   0  0  0  0  0  0  0  0  0  0  0  0
    5.7574  -49.6252   16.2282 C   0  0  2  0  0  0  0  0  0  0  0  0
    5.3677  -50.8743   15.6165 O   0  0  0  0  0  0  0  0  0  0  0  0
   11.2427  -35.8870   20.6885 C   0  0  2  0  0  0  0  0  0  0  0  0
   12.2619  -36.7887   20.1075 O   0  0  0  0  0  0  0  0  0  0  0  0
   10.6181  -36.4913   15.9879 C   0  0  2  0  0  0  0  0  0  0  0  0
    9.7721  -37.6095   15.6273 O   0  0  0  0  0  0  0  0  0  0  0  0
   10.3637  -39.4001   11.6130 C   0  0  0  0  0  0  0  0  0  0  0  0
    9.6722  -38.1435   11.6749 O   0  0  0  0  0  0  0  0  0  0  0  0
    8.8755  -45.2807   13.0114 C   0  0  1  0  0  0  0  0  0  0  0  0
    9.7487  -44.1616   13.2706 O   0  0  0  0  0  0  0  0  0  0  0  0
    5.1435  -48.3993   15.5576 C   0  0  2  0  0  0  0  0  0  0  0  0
    5.6858  -47.1255   16.0035 O   0  0  0  0  0  0  0  0  0  0  0  0
   11.9536  -34.7612   21.3698 C   0  0  0  0  0  0  0  0  0  0  0  0
   11.2366  -33.5821   21.1220 O   0  0  0  0  0  0  0  0  0  0  0  0
   11.3470  -35.8947   14.7288 C   0  0  1  0  0  0  0  0  0  0  0  0
   10.3311  -35.3705   13.8054 O   0  0  0  0  0  0  0  0  0  0  0  0
    9.8148  -46.5162   12.7757 C   0  0  0  0  0  0  0  0  0  0  0  0
   11.1881  -46.3284   13.3033 N   0  0  0  0  0  0  0  0  0  0  0  0
    3.6333  -48.1811   15.4985 C   0  0  0  0  0  0  0  0  0  0  0  0
    3.1179  -47.8330   16.8204 O   0  0  0  0  0  0  0  0  0  0  0  0
  1  2  1  6  0  0  0
  1  8  1  0  0  0  0
  1 36  1  0  0  0  0
  3  4  1  6  0  0  0
  3 10  1  0  0  0  0
  3 47  1  0  0  0  0
  5 11  1  0  0  0  0
  5 30  1  0  0  0  0
  5 38  1  6  0  0  0
  6 21  1  1  0  0  0
  6 42  1  0  0  0  0
  7 15  1  0  0  0  0
  7 44  1  0  0  0  0
  7 32  1  6  0  0  0
  8  9  1  6  0  0  0
  8 17  1  0  0  0  0
 11 12  1  1  0  0  0
 11 20  1  0  0  0  0
 13  6  1  0  0  0  0
 13 14  1  1  0  0  0
 15 16  1  1  0  0  0
 15 24  1  0  0  0  0
 17 26  1  0  0  0  0
 18 10  1  0  0  0  0
 18 19  1  1  0  0  0
 20 21  1  1  0  0  0
 20 29  1  0  0  0  0
 22 13  1  0  0  0  0
 22 23  1  6  0  0  0
 24 25  1  1  0  0  0
 24 33  1  0  0  0  0
 26 27  1  6  0  0  0
 26 35  1  0  0  0  0
 28  2  1  1  0  0  0
 28 18  1  0  0  0  0
 29 30  1  0  0  0  0
 29 39  1  6  0  0  0
 31 22  1  0  0  0  0
 31 32  1  1  0  0  0
 31 41  1  0  0  0  0
 33 34  1  6  0  0  0
 33 43  1  0  0  0  0
 35 36  1  0  0  0  0
 35 45  1  1  0  0  0
 37 28  1  0  0  0  0
 37 38  1  6  0  0  0
 39 40  1  0  0  0  0
 41 42  1  0  0  0  0
 41 49  1  1  0  0  0
 43 44  1  0  0  0  0
 43 51  1  1  0  0  0
 45 46  1  0  0  0  0
 47 37  1  0  0  0  0
 47 48  1  6  0  0  0
 49 50  1  0  0  0  0
 51 52  1  0  0  0  0
M  END
>  <CHROM.1>
-162.77142898,173.82880238,-82.55054331,94.84878327,117.28928693,-51.34822865
80.49681171,92.37361775,-100.19668036,-54.19598183,-121.07786810,71.79446350
9.38831561,-41.33680448,16.11731018,0.42202122,1.15941626,1.34138546

>  <Name>
2fd0_lig

>  <RI>
2.85265e+07

>  <Rbt.Current_Directory>
/home/itssahil/PROJECTS/Mol_Feturizer/New_Systems/rnas/2fd0

>  <Rbt.Executable>
rbdock ($Id: //depot/dev/client3/rdock/2013.1/src/exe/rbdock.cxx#4 $)

>  <Rbt.Library>
libRbt.so (2013.1, Build901 2013/11/27)

>  <Rbt.Parameter_File>
/export/apps/rDock/src/rDock_2013.1_src/data/scripts/dock_solv.prm

>  <Rbt.Receptor>
prm/blind_docking_60.prm

>  <SCORE>
16.2964

>  <SCORE.INTER>
-0.87111

>  <SCORE.INTER.CONST>
1

>  <SCORE.INTER.POLAR>
-1.051

>  <SCORE.INTER.ROT>
12

>  <SCORE.INTER.SOLV>
30.837

>  <SCORE.INTER.VDW>
-18.9564

>  <SCORE.INTER.norm>
-0.0167521

>  <SCORE.INTRA>
11.084

>  <SCORE.INTRA.DIHEDRAL>
6.68935

>  <SCORE.INTRA.DIHEDRAL.0>
23.9727

>  <SCORE.INTRA.POLAR>
0

>  <SCORE.INTRA.POLAR.0>
0

>  <SCORE.INTRA.REPUL>
0.140312

>  <SCORE.INTRA.REPUL.0>
0

>  <SCORE.INTRA.SOLV>
1.76719

>  <SCORE.INTRA.SOLV.lig_0>
-115.028

>  <SCORE.INTRA.VDW>
6.15419

>  <SCORE.INTRA.VDW.0>
-6.82393

>  <SCORE.INTRA.norm>
0.213154

>  <SCORE.RESTR>
6.08347

>  <SCORE.RESTR.CAVITY>
6.08347

>  <SCORE.RESTR.norm>
0.11699

>  <SCORE.SYSTEM>
0

>  <SCORE.SYSTEM.CONST>
0

>  <SCORE.SYSTEM.DIHEDRAL>
0

>  <SCORE.SYSTEM.SOLV>
0

>  <SCORE.SYSTEM.norm>
0

>  <SCORE.heavy>
52

>  <SCORE.norm>
0.313392

>  <RMSD>
13.557

$$$$
2fd0_lig
 OpenBabel11021811433D
libRbt.so/2013.1/901 2013/11/27
 52 56  0  0  0  0  0  0  0  0999 V2000
   11.8554  -35.5809   17.3519 C   0  0  2  0  0  0  0  0  0  0  0  0
   11.1409  -36.7027   16.8151 O   0  0  0  0  0  0  0  0  0  0  0  0
   11.2740  -40.3117   19.2336 C   0  0  2  0  0  0  0  0  0  0  0  0
   10.8627  -41.4309   20.0969 N   0  0  0  0  0  0  0  0  0  0  0  0
    9.7608  -40.3644   15.0656 C   0  0  1  0  0  0  0  0  0  0  0  0
    8.2063  -43.1757   14.1207 C   0  0  1  0  0  0  0  0  0  0  0  0
    6.4240  -47.6690   15.3398 C   0  0  1  0  0  0  0  0  0  0  0  0
   11.0836  -34.2663   16.9679 C   0  0  2  0  0  0  0  0  0  0  0  0
    9.7060  -34.2885   17.4397 N   0  0  0  0  0  0  0  0  0  0  0  0
   10.9396  -38.9223   19.9340 C   0  0  0  0  0  0  0  0  0  0  0  0
    8.2522  -40.2671   14.9305 C   0  0  2  0  0  0  0  0  0  0  0  0
    7.5571  -40.8962   16.0437 O   0  0  0  0  0  0  0  0  0  0  0  0
    7.6862  -44.5175   13.4218 C   0  0  2  0  0  0  0  0  0  0  0  0
    6.2228  -44.6843   13.6367 N   0  0  0  0  0  0  0  0  0  0  0  0
    5.3404  -47.5825   16.4381 C   0  0  1  0  0  0  0  0  0  0  0  0
    4.3918  -46.5456   16.0848 O   0  0  0  0  0  0  0  0  0  0  0  0
   11.1537  -34.0239   15.4146 C   0  0  0  0  0  0  0  0  0  0  0  0
   11.3983  -37.7053   18.9971 C   0  0  2  0  0  0  0  0  0  0  0  0
   11.0978  -36.4082   19.6208 N   0  0  0  0  0  0  0  0  0  0  0  0
    7.9945  -40.8662   13.5582 C   0  0  2  0  0  0  0  0  0  0  0  0
    7.4012  -42.1325   13.6544 O   0  0  0  0  0  0  0  0  0  0  0  0
    8.6109  -45.7294   13.9577 C   0  0  1  0  0  0  0  0  0  0  0  0
    9.9813  -45.4085   13.6576 O   0  0  0  0  0  0  0  0  0  0  0  0
    4.5436  -48.8756   16.7602 C   0  0  1  0  0  0  0  0  0  0  0  0
    3.3524  -48.8702   15.9631 O   0  0  0  0  0  0  0  0  0  0  0  0
   12.6562  -34.0028   14.9826 C   0  0  2  0  0  0  0  0  0  0  0  0
   12.7637  -33.7669   13.5822 O   0  0  0  0  0  0  0  0  0  0  0  0
   10.6769  -37.8187   17.6251 C   0  0  2  0  0  0  0  0  0  0  0  0
    9.3539  -41.1052   12.8587 C   0  0  2  0  0  0  0  0  0  0  0  0
   10.2711  -40.4862   13.7493 O   0  0  0  0  0  0  0  0  0  0  0  0
    8.5186  -45.8928   15.5637 C   0  0  2  0  0  0  0  0  0  0  0  0
    7.1408  -46.2288   15.8137 O   0  0  0  0  0  0  0  0  0  0  0  0
    5.2905  -50.2097   16.5297 C   0  0  2  0  0  0  0  0  0  0  0  0
    4.9391  -51.0536   17.6481 O   0  0  0  0  0  0  0  0  0  0  0  0
   13.3174  -35.3639   15.3431 C   0  0  2  0  0  0  0  0  0  0  0  0
   13.1990  -35.5621   16.8046 O   0  0  0  0  0  0  0  0  0  0  0  0
   10.9267  -39.1883   16.9231 C   0  0  2  0  0  0  0  0  0  0  0  0
   10.1725  -39.1884   15.6873 O   0  0  0  0  0  0  0  0  0  0  0  0
    9.5005  -40.4515   11.4892 C   0  0  0  0  0  0  0  0  0  0  0  0
    8.4340  -40.9512   10.6681 O   0  0  0  0  0  0  0  0  0  0  0  0
    8.7899  -44.5125   16.1316 C   0  0  1  0  0  0  0  0  0  0  0  0
    8.1797  -43.2947   15.6555 O   0  0  0  0  0  0  0  0  0  0  0  0
    6.7925  -49.9793   16.3869 C   0  0  2  0  0  0  0  0  0  0  0  0
    7.1632  -48.9632   15.4145 O   0  0  0  0  0  0  0  0  0  0  0  0
   14.7696  -35.3956   14.9866 C   0  0  0  0  0  0  0  0  0  0  0  0
   15.4378  -34.4753   15.8066 O   0  0  0  0  0  0  0  0  0  0  0  0
   10.4835  -40.3670   17.8649 C   0  0  1  0  0  0  0  0  0  0  0  0
   10.7811  -41.6394   17.1928 O   0  0  0  0  0  0  0  0  0  0  0  0
    8.6976  -44.4585   17.6978 C   0  0  0  0  0  0  0  0  0  0  0  0
    9.7542  -43.6299   18.3276 N   0  0  0  0  0  0  0  0  0  0  0  0
    7.7671  -51.1289   16.1407 C   0  0  0  0  0  0  0  0  0  0  0  0
    9.1416  -50.6343   16.1194 O   0  0  0  0  0  0  0  0  0  0  0  0
  1  2  1  6  0  0  0
  1  8  1  0  0  0  0
  1 36  1  0  0  0  0
  3  4  1  1  0  0  0
  3 10  1  0  0  0  0
  3 47  1  0  0  0  0
  5 11  1  0  0  0  0
  5 30  1  0  0  0  0
  5 38  1  6  0  0  0
  6 21  1  1  0  0  0
  6 42  1  0  0  0  0
  7 15  1  0  0  0  0
  7 44  1  0  0  0  0
  7 32  1  1  0  0  0
  8  9  1  6  0  0  0
  8 17  1  0  0  0  0
 11 12  1  1  0  0  0
 11 20  1  0  0  0  0
 13  6  1  0  0  0  0
 13 14  1  1  0  0  0
 15 16  1  6  0  0  0
 15 24  1  0  0  0  0
 17 26  1  0  0  0  0
 18 10  1  0  0  0  0
 18 19  1  1  0  0  0
 20 21  1  1  0  0  0
 20 29  1  0  0  0  0
 22 13  1  0  0  0  0
 22 23  1  1  0  0  0
 24 25  1  6  0  0  0
 24 33  1  0  0  0  0
 26 27  1  6  0  0  0
 26 35  1  0  0  0  0
 28  2  1  6  0  0  0
 28 18  1  0  0  0  0
 29 30  1  0  0  0  0
 29 39  1  6  0  0  0
 31 22  1  0  0  0  0
 31 32  1  6  0  0  0
 31 41  1  0  0  0  0
 33 34  1  1  0  0  0
 33 43  1  0  0  0  0
 35 36  1  0  0  0  0
 35 45  1  1  0  0  0
 37 28  1  0  0  0  0
 37 38  1  6  0  0  0
 39 40  1  0  0  0  0
 41 42  1  0  0  0  0
 41 49  1  1  0  0  0
 43 44  1  0  0  0  0
 43 51  1  6  0  0  0
 45 46  1  0  0  0  0
 47 37  1  0  0  0  0
 47 48  1  6  0  0  0
 49 50  1  0  0  0  0
 51 52  1  0  0  0  0
M  END
>  <CHROM.1>
-124.27862030,123.20762665,-149.26547555,155.50402472,-70.95549342,-13.69150602
-57.54036218,67.26485015,66.40605220,-155.74631989,139.13333294,-176.86516648
9.24424919,-41.89698430,15.88587711,-0.37596591,1.11102495,2.01571665

>  <Name>
2fd0_lig

>  <RI>
0

>  <Rbt.Current_Directory>
/home/itssahil/PROJECTS/Mol_Feturizer/New_Systems/rnas/2fd0

>  <Rbt.Executable>
rbdock ($Id: //depot/dev/client3/rdock/2013.1/src/exe/rbdock.cxx#4 $)

>  <Rbt.Library>
libRbt.so (2013.1, Build901 2013/11/27)

>  <Rbt.Parameter_File>
/export/apps/rDock/src/rDock_2013.1_src/data/scripts/dock_solv.prm

>  <Rbt.Receptor>
prm/blind_docking_100.prm

>  <SCORE>
-9.64516

>  <SCORE.INTER>
-27.4386

>  <SCORE.INTER.CONST>
1

>  <SCORE.INTER.POLAR>
-1.93498

>  <SCORE.INTER.ROT>
12

>  <SCORE.INTER.SOLV>
28.9147

>  <SCORE.INTER.VDW>
-33.0807

>  <SCORE.INTER.norm>
-0.527665

>  <SCORE.INTRA>
15.4709

>  <SCORE.INTRA.DIHEDRAL>
10.7177

>  <SCORE.INTRA.DIHEDRAL.0>
23.9727

>  <SCORE.INTRA.POLAR>
0

>  <SCORE.INTRA.POLAR.0>
0

>  <SCORE.INTRA.REPUL>
0

>  <SCORE.INTRA.REPUL.0>
0

>  <SCORE.INTRA.SOLV>
4.85545

>  <SCORE.INTRA.SOLV.lig_0>
-115.028

>  <SCORE.INTRA.VDW>
7.68436

>  <SCORE.INTRA.VDW.0>
-6.82393

>  <SCORE.INTRA.norm>
0.297518

>  <SCORE.RESTR>
2.32246

>  <SCORE.RESTR.CAVITY>
2.32246

>  <SCORE.RESTR.norm>
0.0446627

>  <SCORE.SYSTEM>
0

>  <SCORE.SYSTEM.CONST>
0

>  <SCORE.SYSTEM.DIHEDRAL>
0

>  <SCORE.SYSTEM.SOLV>
0

>  <SCORE.SYSTEM.norm>
0

>  <SCORE.heavy>
52

>  <SCORE.norm>
-0.185484

>  <RMSD>
13.561

$$$$
2fd0_lig
 OpenBabel11021811433D
libRbt.so/2013.1/901 2013/11/27
 52 56  0  0  0  0  0  0  0  0999 V2000
   12.6937  -35.8911   17.5781 C   0  0  2  0  0  0  0  0  0  0  0  0
   11.4070  -36.1695   17.0090 O   0  0  0  0  0  0  0  0  0  0  0  0
   10.8917  -40.4312   17.6908 C   0  0  2  0  0  0  0  0  0  0  0  0
   10.2685  -41.7554   17.8486 N   0  0  0  0  0  0  0  0  0  0  0  0
    9.8171  -38.1746   14.0652 C   0  0  1  0  0  0  0  0  0  0  0  0
    7.9622  -41.2496   11.3276 C   0  0  1  0  0  0  0  0  0  0  0  0
    7.7880  -45.2468   13.4952 C   0  0  1  0  0  0  0  0  0  0  0  0
   12.8616  -34.3324   17.6959 C   0  0  2  0  0  0  0  0  0  0  0  0
   11.7953  -33.7299   18.4838 N   0  0  0  0  0  0  0  0  0  0  0  0
   10.2674  -39.3998   18.7299 C   0  0  0  0  0  0  0  0  0  0  0  0
   10.0791  -39.3749   13.1740 C   0  0  2  0  0  0  0  0  0  0  0  0
   10.4730  -38.9868   11.8278 O   0  0  0  0  0  0  0  0  0  0  0  0
    7.0134  -42.2819   12.0981 C   0  0  2  0  0  0  0  0  0  0  0  0
    7.4828  -42.4778   13.4969 N   0  0  0  0  0  0  0  0  0  0  0  0
    8.9468  -45.4674   14.4933 C   0  0  1  0  0  0  0  0  0  0  0  0
    9.4054  -44.1805   14.9763 O   0  0  0  0  0  0  0  0  0  0  0  0
   12.9555  -33.6820   16.2661 C   0  0  0  0  0  0  0  0  0  0  0  0
   10.9553  -37.9615   18.5637 C   0  0  2  0  0  0  0  0  0  0  0  0
   10.3937  -36.9880   19.5118 N   0  0  0  0  0  0  0  0  0  0  0  0
    8.7902  -40.1713   13.2890 C   0  0  2  0  0  0  0  0  0  0  0  0
    8.0331  -40.0947   12.1118 O   0  0  0  0  0  0  0  0  0  0  0  0
    6.9280  -43.6214   11.1985 C   0  0  1  0  0  0  0  0  0  0  0  0
    6.4483  -43.2501    9.8935 O   0  0  0  0  0  0  0  0  0  0  0  0
    8.6685  -46.3728   15.7237 C   0  0  1  0  0  0  0  0  0  0  0  0
    8.2546  -45.5306   16.8070 O   0  0  0  0  0  0  0  0  0  0  0  0
   14.1224  -34.3684   15.4838 C   0  0  2  0  0  0  0  0  0  0  0  0
   14.2525  -33.7937   14.1873 O   0  0  0  0  0  0  0  0  0  0  0  0
   10.7523  -37.4653   17.1049 C   0  0  2  0  0  0  0  0  0  0  0  0
    7.9065  -39.5282   14.3844 C   0  0  2  0  0  0  0  0  0  0  0  0
    8.7733  -38.5530   14.9457 O   0  0  0  0  0  0  0  0  0  0  0  0
    8.3822  -44.2934   10.9793 C   0  0  2  0  0  0  0  0  0  0  0  0
    8.8126  -44.6626   12.3029 O   0  0  0  0  0  0  0  0  0  0  0  0
    7.6116  -47.4837   15.5252 C   0  0  2  0  0  0  0  0  0  0  0  0
    8.1395  -48.6506   16.1932 O   0  0  0  0  0  0  0  0  0  0  0  0
   13.8371  -35.8927   15.3617 C   0  0  2  0  0  0  0  0  0  0  0  0
   13.7258  -36.4525   16.7268 O   0  0  0  0  0  0  0  0  0  0  0  0
   11.2966  -38.4701   16.0442 C   0  0  2  0  0  0  0  0  0  0  0  0
   11.0106  -37.9200   14.7359 O   0  0  0  0  0  0  0  0  0  0  0  0
    7.4644  -40.4731   15.4962 C   0  0  0  0  0  0  0  0  0  0  0  0
    6.1241  -40.8860   15.1894 O   0  0  0  0  0  0  0  0  0  0  0  0
    9.2768  -43.1771   10.4743 C   0  0  1  0  0  0  0  0  0  0  0  0
    9.3500  -41.8580   11.0546 O   0  0  0  0  0  0  0  0  0  0  0  0
    7.3228  -47.7071   14.0431 C   0  0  2  0  0  0  0  0  0  0  0  0
    7.0037  -46.5007   13.2961 O   0  0  0  0  0  0  0  0  0  0  0  0
   14.9375  -36.6156   14.6520 C   0  0  0  0  0  0  0  0  0  0  0  0
   14.5130  -37.9315   14.4199 O   0  0  0  0  0  0  0  0  0  0  0  0
   10.6198  -39.8766   16.2349 C   0  0  1  0  0  0  0  0  0  0  0  0
   11.1938  -40.8084   15.2542 O   0  0  0  0  0  0  0  0  0  0  0  0
   10.7619  -43.6306   10.2432 C   0  0  0  0  0  0  0  0  0  0  0  0
   11.4999  -43.9123   11.4983 N   0  0  0  0  0  0  0  0  0  0  0  0
    6.3078  -48.7426   13.5642 C   0  0  0  0  0  0  0  0  0  0  0  0
    6.5822  -50.0424   14.1722 O   0  0  0  0  0  0  0  0  0  0  0  0
  1  2  1  6  0  0  0
  1  8  1  0  0  0  0
  1 36  1  0  0  0  0
  3  4  1  6  0  0  0
  3 10  1  0  0  0  0
  3 47  1  0  0  0  0
  5 11  1  0  0  0  0
  5 30  1  0  0  0  0
  5 38  1  1  0  0  0
  6 21  1  1  0  0  0
  6 42  1  0  0  0  0
  7 15  1  0  0  0  0
  7 44  1  0  0  0  0
  7 32  1  6  0  0  0
  8  9  1  6  0  0  0
  8 17  1  0  0  0  0
 11 12  1  6  0  0  0
 11 20  1  0  0  0  0
 13  6  1  0  0  0  0
 13 14  1  1  0  0  0
 15 16  1  1  0  0  0
 15 24  1  0  0  0  0
 17 26  1  0  0  0  0
 18 10  1  0  0  0  0
 18 19  1  1  0  0  0
 20 21  1  6  0  0  0
 20 29  1  0  0  0  0
 22 13  1  0  0  0  0
 22 23  1  6  0  0  0
 24 25  1  1  0  0  0
 24 33  1  0  0  0  0
 26 27  1  6  0  0  0
 26 35  1  0  0  0  0
 28  2  1  1  0  0  0
 28 18  1  0  0  0  0
 29 30  1  0  0  0  0
 29 39  1  1  0  0  0
 31 22  1  0  0  0  0
 31 32  1  1  0  0  0
 31 41  1  0  0  0  0
 33 34  1  6  0  0  0
 33 43  1  0  0  0  0
 35 36  1  0  0  0  0
 35 45  1  1  0  0  0
 37 28  1  0  0  0  0
 37 38  1  6  0  0  0
 39 40  1  0  0  0  0
 41 42  1  0  0  0  0
 41 49  1  1  0  0  0
 43 44  1  0  0  0  0
 43 51  1  1  0  0  0
 45 46  1  0  0  0  0
 47 37  1  0  0  0  0
 47 48  1  6  0  0  0
 49 50  1  0  0  0  0
 51 52  1  0  0  0  0
M  END
>  <CHROM.1>
-161.59996086,-93.28347271,72.78669458,176.84530379,108.82851611,42.89443467
-99.17293823,36.86477066,-171.68249700,-88.94887768,-70.12737231,-51.63303335
9.84185344,-40.92414666,14.61159910,0.08783528,1.13760889,1.75829092

>  <Name>
2fd0_lig

>  <RI>
0

>  <Rbt.Current_Directory>
/home/itssahil/PROJECTS/Mol_Feturizer/New_Systems/rnas/2fd0

>  <Rbt.Executable>
rbdock ($Id: //depot/dev/client3/rdock/2013.1/src/exe/rbdock.cxx#4 $)

>  <Rbt.Library>
libRbt.so (2013.1, Build901 2013/11/27)

>  <Rbt.Parameter_File>
/export/apps/rDock/src/rDock_2013.1_src/data/scripts/dock_solv.prm

>  <Rbt.Receptor>
prm/blind_docking_100.prm

>  <SCORE>
-0.95259

>  <SCORE.INTER>
-10.8601

>  <SCORE.INTER.CONST>
1

>  <SCORE.INTER.POLAR>
-0.750263

>  <SCORE.INTER.ROT>
12

>  <SCORE.INTER.SOLV>
23.7876

>  <SCORE.INTER.VDW>
-24.2684

>  <SCORE.INTER.norm>
-0.208849

>  <SCORE.INTRA>
7.89908

>  <SCORE.INTRA.DIHEDRAL>
2.33149

>  <SCORE.INTRA.DIHEDRAL.0>
23.9727

>  <SCORE.INTRA.POLAR>
0

>  <SCORE.INTRA.POLAR.0>
0

>  <SCORE.INTRA.REPUL>
0.133791

>  <SCORE.INTRA.REPUL.0>
0

>  <SCORE.INTRA.SOLV>
6.04277

>  <SCORE.INTRA.SOLV.lig_0>
-115.028

>  <SCORE.INTRA.VDW>
3.043

>  <SCORE.INTRA.VDW.0>
-6.82393

>  <SCORE.INTRA.norm>
0.151905

>  <SCORE.RESTR>
2.00848

>  <SCORE.RESTR.CAVITY>
2.00848

>  <SCORE.RESTR.norm>
0.0386245

>  <SCORE.SYSTEM>
0

>  <SCORE.SYSTEM.CONST>
0

>  <SCORE.SYSTEM.DIHEDRAL>
0

>  <SCORE.SYSTEM.SOLV>
0

>  <SCORE.SYSTEM.norm>
0

>  <SCORE.heavy>
52

>  <SCORE.norm>
-0.018319

>  <RMSD>
13.570

$$$$
2fd0_lig
 OpenBabel11021811433D
libRbt.so/2013.1/901 2013/11/27
 52 56  0  0  0  0  0  0  0  0999 V2000
   10.9096  -36.5412   16.7949 C   0  0  2  0  0  0  0  0  0  0  0  0
   12.2880  -36.2087   16.5795 O   0  0  0  0  0  0  0  0  0  0  0  0
   14.4051  -34.9810   12.9874 C   0  0  2  0  0  0  0  0  0  0  0  0
   15.1174  -35.0297   11.7000 N   0  0  0  0  0  0  0  0  0  0  0  0
   10.6231  -37.2748   13.3488 C   0  0  1  0  0  0  0  0  0  0  0  0
   11.0274  -41.8175   13.6117 C   0  0  1  0  0  0  0  0  0  0  0  0
    8.1107  -45.8856   12.3401 C   0  0  1  0  0  0  0  0  0  0  0  0
   10.2607  -35.4257   17.6927 C   0  0  2  0  0  0  0  0  0  0  0  0
   10.3972  -34.1033   17.0983 N   0  0  0  0  0  0  0  0  0  0  0  0
   15.1684  -35.8579   14.0743 C   0  0  0  0  0  0  0  0  0  0  0  0
   11.3528  -38.3779   14.0932 C   0  0  2  0  0  0  0  0  0  0  0  0
   12.6920  -38.6038   13.5700 O   0  0  0  0  0  0  0  0  0  0  0  0
   11.5302  -42.7354   12.4016 C   0  0  2  0  0  0  0  0  0  0  0  0
   10.6125  -42.6112   11.2364 N   0  0  0  0  0  0  0  0  0  0  0  0
    7.1353  -44.6871   12.3309 C   0  0  1  0  0  0  0  0  0  0  0  0
    7.2133  -44.0248   11.0444 O   0  0  0  0  0  0  0  0  0  0  0  0
   10.8689  -35.4676   19.1435 C   0  0  0  0  0  0  0  0  0  0  0  0
   14.3970  -35.7943   15.4780 C   0  0  2  0  0  0  0  0  0  0  0  0
   15.0812  -36.5995   16.5005 N   0  0  0  0  0  0  0  0  0  0  0  0
   10.3906  -39.5495   13.9932 C   0  0  2  0  0  0  0  0  0  0  0  0
   10.8615  -40.5257   13.1043 O   0  0  0  0  0  0  0  0  0  0  0  0
   11.7224  -44.2320   12.9798 C   0  0  1  0  0  0  0  0  0  0  0  0
   12.6428  -44.1665   14.0841 O   0  0  0  0  0  0  0  0  0  0  0  0
    5.6404  -44.9791   12.6329 C   0  0  1  0  0  0  0  0  0  0  0  0
    4.9701  -45.1874   11.3833 O   0  0  0  0  0  0  0  0  0  0  0  0
   10.6789  -36.9085   19.7202 C   0  0  2  0  0  0  0  0  0  0  0  0
   11.2014  -36.9835   21.0429 O   0  0  0  0  0  0  0  0  0  0  0  0
   12.9414  -36.3029   15.2828 C   0  0  2  0  0  0  0  0  0  0  0  0
    9.0611  -39.0479   13.3806 C   0  0  2  0  0  0  0  0  0  0  0  0
    9.2544  -37.6414   13.3359 O   0  0  0  0  0  0  0  0  0  0  0  0
   10.3412  -44.8325   13.5680 C   0  0  2  0  0  0  0  0  0  0  0  0
    9.4613  -44.8955   12.4298 O   0  0  0  0  0  0  0  0  0  0  0  0
    5.3566  -46.1858   13.5570 C   0  0  2  0  0  0  0  0  0  0  0  0
    4.2938  -45.7624   14.4388 O   0  0  0  0  0  0  0  0  0  0  0  0
   11.4073  -37.9329   18.8038 C   0  0  2  0  0  0  0  0  0  0  0  0
   10.8249  -37.8345   17.4471 O   0  0  0  0  0  0  0  0  0  0  0  0
   12.1676  -35.5116   14.1846 C   0  0  2  0  0  0  0  0  0  0  0  0
   10.8517  -36.1037   14.0666 O   0  0  0  0  0  0  0  0  0  0  0  0
    7.8165  -39.3343   14.2131 C   0  0  0  0  0  0  0  0  0  0  0  0
    8.1115  -40.4763   15.0317 O   0  0  0  0  0  0  0  0  0  0  0  0
    9.8147  -43.7825   14.5281 C   0  0  1  0  0  0  0  0  0  0  0  0
    9.7343  -42.3714   14.2375 O   0  0  0  0  0  0  0  0  0  0  0  0
    6.6212  -46.6232   14.2913 C   0  0  2  0  0  0  0  0  0  0  0  0
    7.7773  -46.8417   13.4363 O   0  0  0  0  0  0  0  0  0  0  0  0
   11.2331  -39.3391   19.2826 C   0  0  0  0  0  0  0  0  0  0  0  0
    9.8627  -39.6350   19.2702 O   0  0  0  0  0  0  0  0  0  0  0  0
   12.9488  -35.5751   12.8213 C   0  0  1  0  0  0  0  0  0  0  0  0
   12.2184  -34.7774   11.8266 O   0  0  0  0  0  0  0  0  0  0  0  0
    8.4375  -44.1698   15.1744 C   0  0  0  0  0  0  0  0  0  0  0  0
    7.9229  -43.1579   16.1286 N   0  0  0  0  0  0  0  0  0  0  0  0
    6.6257  -47.8018   15.2623 C   0  0  0  0  0  0  0  0  0  0  0  0
    5.6563  -47.5820   16.3330 O   0  0  0  0  0  0  0  0  0  0  0  0
  1  2  1  1  0  0  0
  1  8  1  0  0  0  0
  1 36  1  0  0  0  0
  3  4  1  6  0  0  0
  3 10  1  0  0  0  0
  3 47  1  0  0  0  0
  5 11  1  0  0  0  0
  5 30  1  0  0  0  0
  5 38  1  1  0  0  0
  6 21  1  6  0  0  0
  6 42  1  0  0  0  0
  7 15  1  0  0  0  0
  7 44  1  0  0  0  0
  7 32  1  1  0  0  0
  8  9  1  6  0  0  0
  8 17  1  0  0  0  0
 11 12  1  6  0  0  0
 11 20  1  0  0  0  0
 13  6  1  0  0  0  0
 13 14  1  6  0  0  0
 15 16  1  6  0  0  0
 15 24  1  0  0  0  0
 17 26  1  0  0  0  0
 18 10  1  0  0  0  0
 18 19  1  1  0  0  0
 20 21  1  6  0  0  0
 20 29  1  0  0  0  0
 22 13  1  0  0  0  0
 22 23  1  1  0  0  0
 24 25  1  6  0  0  0
 24 33  1  0  0  0  0
 26 27  1  1  0  0  0
 26 35  1  0  0  0  0
 28  2  1  1  0  0  0
 28 18  1  0  0  0  0
 29 30  1  0  0  0  0
 29 39  1  1  0  0  0
 31 22  1  0  0  0  0
 31 32  1  6  0  0  0
 31 41  1  0  0  0  0
 33 34  1  1  0  0  0
 33 43  1  0  0  0  0
 35 36  1  0  0  0  0
 35 45  1  1  0  0  0
 37 28  1  0  0  0  0
 37 38  1  6  0  0  0
 39 40  1  0  0  0  0
 41 42  1  0  0  0  0
 41 49  1  6  0  0  0
 43 44  1  0  0  0  0
 43 51  1  6  0  0  0
 45 46  1  0  0  0  0
 47 37  1  0  0  0  0
 47 48  1  6  0  0  0
 49 50  1  0  0  0  0
 51 52  1  0  0  0  0
M  END
>  <CHROM.1>
-135.56253864,66.04786629,178.53294546,113.36342400,122.66403697,177.51128867
-25.02867911,158.74009740,60.80362086,-79.75899316,179.22558587,-57.73724257
10.11298368,-40.38757291,14.68392896,0.63205345,0.94920508,1.05926055

>  <Name>
2fd0_lig

>  <RI>
2.85265e+07

>  <Rbt.Current_Directory>
/home/itssahil/PROJECTS/Mol_Feturizer/New_Systems/rnas/2fd0

>  <Rbt.Executable>
rbdock ($Id: //depot/dev/client3/rdock/2013.1/src/exe/rbdock.cxx#4 $)

>  <Rbt.Library>
libRbt.so (2013.1, Build901 2013/11/27)

>  <Rbt.Parameter_File>
/export/apps/rDock/src/rDock_2013.1_src/data/scripts/dock_solv.prm

>  <Rbt.Receptor>
prm/blind_docking_60.prm

>  <SCORE>
-5.62141

>  <SCORE.INTER>
-11.858

>  <SCORE.INTER.CONST>
1

>  <SCORE.INTER.POLAR>
-0.290822

>  <SCORE.INTER.ROT>
12

>  <SCORE.INTER.SOLV>
21.8277

>  <SCORE.INTER.VDW>
-25.8118

>  <SCORE.INTER.norm>
-0.228038

>  <SCORE.INTRA>
4.32798

>  <SCORE.INTRA.DIHEDRAL>
4.96597

>  <SCORE.INTRA.DIHEDRAL.0>
23.9727

>  <SCORE.INTRA.POLAR>
0

>  <SCORE.INTRA.POLAR.0>
0

>  <SCORE.INTRA.REPUL>
0.0671642

>  <SCORE.INTRA.REPUL.0>
0

>  <SCORE.INTRA.SOLV>
0.330781

>  <SCORE.INTRA.SOLV.lig_0>
-115.028

>  <SCORE.INTRA.VDW>
1.34379

>  <SCORE.INTRA.VDW.0>
-6.82393

>  <SCORE.INTRA.norm>
0.0832304

>  <SCORE.RESTR>
1.90861

>  <SCORE.RESTR.CAVITY>
1.90861

>  <SCORE.RESTR.norm>
0.0367041

>  <SCORE.SYSTEM>
0

>  <SCORE.SYSTEM.CONST>
0

>  <SCORE.SYSTEM.DIHEDRAL>
0

>  <SCORE.SYSTEM.SOLV>
0

>  <SCORE.SYSTEM.norm>
0

>  <SCORE.heavy>
52

>  <SCORE.norm>
-0.108104

>  <RMSD>
13.570

$$$$
2fd0_lig
 OpenBabel11021811433D
libRbt.so/2013.1/901 2013/11/27
 52 56  0  0  0  0  0  0  0  0999 V2000
   -5.5937  -50.3220    3.2918 C   0  0  2  0  0  0  0  0  0  0  0  0
   -6.8677  -50.9420    3.0690 O   0  0  0  0  0  0  0  0  0  0  0  0
   -8.3710  -54.8756    4.1455 C   0  0  2  0  0  0  0  0  0  0  0  0
   -8.6388  -56.3230    4.1237 N   0  0  0  0  0  0  0  0  0  0  0  0
   -4.3392  -53.0684    5.5281 C   0  0  1  0  0  0  0  0  0  0  0  0
   -0.1949  -52.7673    6.7187 C   0  0  1  0  0  0  0  0  0  0  0  0
    3.8343  -51.2631    9.5852 C   0  0  1  0  0  0  0  0  0  0  0  0
   -5.7659  -48.7648    3.1613 C   0  0  2  0  0  0  0  0  0  0  0  0
   -6.7703  -48.2510    4.0821 N   0  0  0  0  0  0  0  0  0  0  0  0
   -8.8645  -54.2024    2.7904 C   0  0  0  0  0  0  0  0  0  0  0  0
   -2.9164  -52.6556    5.1983 C   0  0  2  0  0  0  0  0  0  0  0  0
   -2.1164  -53.7713    4.7153 O   0  0  0  0  0  0  0  0  0  0  0  0
    0.6066  -53.8975    7.5185 C   0  0  2  0  0  0  0  0  0  0  0  0
    0.4097  -53.7376    8.9852 N   0  0  0  0  0  0  0  0  0  0  0  0
    2.9659  -51.3378   10.8611 C   0  0  1  0  0  0  0  0  0  0  0  0
    3.1273  -52.6446   11.4663 O   0  0  0  0  0  0  0  0  0  0  0  0
   -6.0982  -48.3732    1.6738 C   0  0  0  0  0  0  0  0  0  0  0  0
   -8.5821  -52.6248    2.8209 C   0  0  2  0  0  0  0  0  0  0  0  0
   -9.0270  -51.9783    1.5776 N   0  0  0  0  0  0  0  0  0  0  0  0
   -2.4441  -52.0041    6.4871 C   0  0  2  0  0  0  0  0  0  0  0  0
   -1.5197  -52.8131    7.1622 O   0  0  0  0  0  0  0  0  0  0  0  0
    2.1405  -53.8495    7.0128 C   0  0  1  0  0  0  0  0  0  0  0  0
    2.1433  -54.0317    5.5853 O   0  0  0  0  0  0  0  0  0  0  0  0
    3.2110  -50.2654   11.9570 C   0  0  1  0  0  0  0  0  0  0  0  0
    4.1549  -50.7995   12.8940 O   0  0  0  0  0  0  0  0  0  0  0  0
   -4.9775  -48.9474    0.7469 C   0  0  2  0  0  0  0  0  0  0  0  0
   -5.2324  -48.5981   -0.6101 O   0  0  0  0  0  0  0  0  0  0  0  0
   -7.0616  -52.3836    3.0346 C   0  0  2  0  0  0  0  0  0  0  0  0
   -3.6503  -51.8748    7.4478 C   0  0  2  0  0  0  0  0  0  0  0  0
   -4.7406  -52.2695    6.6275 O   0  0  0  0  0  0  0  0  0  0  0  0
    2.8226  -52.4107    7.2936 C   0  0  2  0  0  0  0  0  0  0  0  0
    2.8135  -52.2805    8.7277 O   0  0  0  0  0  0  0  0  0  0  0  0
    3.7228  -48.8927   11.4626 C   0  0  2  0  0  0  0  0  0  0  0  0
    3.0067  -47.9057   12.2369 O   0  0  0  0  0  0  0  0  0  0  0  0
   -4.9260  -50.4950    0.8950 C   0  0  2  0  0  0  0  0  0  0  0  0
   -4.6434  -50.8141    2.3120 O   0  0  0  0  0  0  0  0  0  0  0  0
   -6.5160  -53.0732    4.3221 C   0  0  2  0  0  0  0  0  0  0  0  0
   -5.0929  -52.8146    4.3851 O   0  0  0  0  0  0  0  0  0  0  0  0
   -3.9215  -50.4644    7.9593 C   0  0  0  0  0  0  0  0  0  0  0  0
   -4.8682  -50.5808    9.0324 O   0  0  0  0  0  0  0  0  0  0  0  0
    1.8694  -51.3852    6.7094 C   0  0  1  0  0  0  0  0  0  0  0  0
    0.4416  -51.3795    6.9178 O   0  0  0  0  0  0  0  0  0  0  0  0
    3.5282  -48.7454    9.9559 C   0  0  2  0  0  0  0  0  0  0  0  0
    4.0500  -49.8479    9.1637 O   0  0  0  0  0  0  0  0  0  0  0  0
   -3.8467  -51.1045    0.0580 C   0  0  0  0  0  0  0  0  0  0  0  0
   -3.8886  -52.4940    0.2404 O   0  0  0  0  0  0  0  0  0  0  0  0
   -6.8165  -54.6161    4.2774 C   0  0  1  0  0  0  0  0  0  0  0  0
   -6.3357  -55.2222    5.5267 O   0  0  0  0  0  0  0  0  0  0  0  0
    2.3438  -49.9046    6.9271 C   0  0  0  0  0  0  0  0  0  0  0  0
    1.3653  -48.8921    6.4616 N   0  0  0  0  0  0  0  0  0  0  0  0
    3.9576  -47.4874    9.2043 C   0  0  0  0  0  0  0  0  0  0  0  0
    3.2295  -46.3234    9.7039 O   0  0  0  0  0  0  0  0  0  0  0  0
  1  2  1  6  0  0  0
  1  8  1  0  0  0  0
  1 36  1  0  0  0  0
  3  4  1  6  0  0  0
  3 10  1  0  0  0  0
  3 47  1  0  0  0  0
  5 11  1  0  0  0  0
  5 30  1  0  0  0  0
  5 38  1  6  0  0  0
  6 21  1  1  0  0  0
  6 42  1  0  0  0  0
  7 15  1  0  0  0  0
  7 44  1  0  0  0  0
  7 32  1  6  0  0  0
  8  9  1  1  0  0  0
  8 17  1  0  0  0  0
 11 12  1  1  0  0  0
 11 20  1  0  0  0  0
 13  6  1  0  0  0  0
 13 14  1  1  0  0  0
 15 16  1  1  0  0  0
 15 24  1  0  0  0  0
 17 26  1  0  0  0  0
 18 10  1  0  0  0  0
 18 19  1  6  0  0  0
 20 21  1  1  0  0  0
 20 29  1  0  0  0  0
 22 13  1  0  0  0  0
 22 23  1  6  0  0  0
 24 25  1  1  0  0  0
 24 33  1  0  0  0  0
 26 27  1  6  0  0  0
 26 35  1  0  0  0  0
 28  2  1  1  0  0  0
 28 18  1  0  0  0  0
 29 30  1  0  0  0  0
 29 39  1  6  0  0  0
 31 22  1  0  0  0  0
 31 32  1  1  0  0  0
 31 41  1  0  0  0  0
 33 34  1  1  0  0  0
 33 43  1  0  0  0  0
 35 36  1  0  0  0  0
 35 45  1  6  0  0  0
 37 28  1  0  0  0  0
 37 38  1  6  0  0  0
 39 40  1  0  0  0  0
 41 42  1  0  0  0  0
 41 49  1  1  0  0  0
 43 44  1  0  0  0  0
 43 51  1  6  0  0  0
 45 46  1  0  0  0  0
 47 37  1  0  0  0  0
 47 48  1  1  0  0  0
 49 50  1  0  0  0  0
 51 52  1  0  0  0  0
M  END
>  <CHROM.1>
176.17199949,-179.42089232,-173.11529861,163.46076146,81.23475597,178.02566769
-168.01083942,158.28157421,-179.17591097,167.61295929,-175.14259637,-61.34767218
-2.05370453,-51.46462937,6.05356454,-2.92619282,0.61972334,2.55465625

>  <Name>
2fd0_lig

>  <RI>
0

>  <Rbt.Current_Directory>
/home/itssahil/PROJECTS/Mol_Feturizer/New_Systems/rnas/2fd0

>  <Rbt.Executable>
rbdock ($Id: //depot/dev/client3/rdock/2013.1/src/exe/rbdock.cxx#4 $)

>  <Rbt.Library>
libRbt.so (2013.1, Build901 2013/11/27)

>  <Rbt.Parameter_File>
/export/apps/rDock/src/rDock_2013.1_src/data/scripts/dock_solv.prm

>  <Rbt.Receptor>
prm/pocket_docking_6.prm

>  <SCORE>
-10.9272

>  <SCORE.INTER>
-2.08849

>  <SCORE.INTER.CONST>
1

>  <SCORE.INTER.POLAR>
-0.904297

>  <SCORE.INTER.ROT>
12

>  <SCORE.INTER.SOLV>
8.67062

>  <SCORE.INTER.VDW>
-12.8682

>  <SCORE.INTER.norm>
-0.0401633

>  <SCORE.INTRA>
-8.83874

>  <SCORE.INTRA.DIHEDRAL>
-15.4611

>  <SCORE.INTRA.DIHEDRAL.0>
23.9727

>  <SCORE.INTRA.POLAR>
0

>  <SCORE.INTRA.POLAR.0>
0

>  <SCORE.INTRA.REPUL>
0

>  <SCORE.INTRA.REPUL.0>
0

>  <SCORE.INTRA.SOLV>
-4.11603

>  <SCORE.INTRA.SOLV.lig_0>
-115.028

>  <SCORE.INTRA.VDW>
0.949841

>  <SCORE.INTRA.VDW.0>
-6.82393

>  <SCORE.INTRA.norm>
-0.169976

>  <SCORE.RESTR>
0

>  <SCORE.RESTR.CAVITY>
0

>  <SCORE.RESTR.norm>
0

>  <SCORE.SYSTEM>
0

>  <SCORE.SYSTEM.CONST>
0

>  <SCORE.SYSTEM.DIHEDRAL>
0

>  <SCORE.SYSTEM.SOLV>
0

>  <SCORE.SYSTEM.norm>
0

>  <SCORE.heavy>
52

>  <SCORE.norm>
-0.210139

>  <RMSD>
13.584

$$$$
2fd0_lig
 OpenBabel11021811433D
libRbt.so/2013.1/901 2013/11/27
 52 56  0  0  0  0  0  0  0  0999 V2000
   12.4608  -34.9873   18.5078 C   0  0  2  0  0  0  0  0  0  0  0  0
   12.2693  -36.4019   18.3686 O   0  0  0  0  0  0  0  0  0  0  0  0
   11.9613  -39.5632   21.3357 C   0  0  2  0  0  0  0  0  0  0  0  0
   11.4525  -40.4107   22.4265 N   0  0  0  0  0  0  0  0  0  0  0  0
   10.9352  -39.0142   16.5275 C   0  0  1  0  0  0  0  0  0  0  0  0
   10.4432  -42.2873   13.3945 C   0  0  1  0  0  0  0  0  0  0  0  0
    5.9168  -42.6839   11.0297 C   0  0  1  0  0  0  0  0  0  0  0  0
   11.1000  -34.2653   18.1939 C   0  0  2  0  0  0  0  0  0  0  0  0
   10.0239  -34.7386   19.0534 N   0  0  0  0  0  0  0  0  0  0  0  0
   12.0896  -38.0536   21.8232 C   0  0  0  0  0  0  0  0  0  0  0  0
   10.5452  -40.4686   16.3370 C   0  0  2  0  0  0  0  0  0  0  0  0
   11.6439  -41.3771   16.6296 O   0  0  0  0  0  0  0  0  0  0  0  0
    9.7986  -41.8075   12.0111 C   0  0  2  0  0  0  0  0  0  0  0  0
    8.7887  -40.7403   12.2485 N   0  0  0  0  0  0  0  0  0  0  0  0
    4.9427  -41.9766   11.9986 C   0  0  1  0  0  0  0  0  0  0  0  0
    5.4761  -40.6719   12.3353 O   0  0  0  0  0  0  0  0  0  0  0  0
   10.7320  -34.4277   16.6725 C   0  0  0  0  0  0  0  0  0  0  0  0
   12.6542  -37.1348   20.6374 C   0  0  2  0  0  0  0  0  0  0  0  0
   12.7799  -35.7326   21.0615 N   0  0  0  0  0  0  0  0  0  0  0  0
   10.0182  -40.4953   14.9122 C   0  0  2  0  0  0  0  0  0  0  0  0
   10.9109  -41.1431   14.0471 O   0  0  0  0  0  0  0  0  0  0  0  0
    9.2533  -43.1251   11.2512 C   0  0  1  0  0  0  0  0  0  0  0  0
   10.3561  -44.0366   11.0961 O   0  0  0  0  0  0  0  0  0  0  0  0
    3.4748  -41.7905   11.5278 C   0  0  1  0  0  0  0  0  0  0  0  0
    3.3694  -40.5015   10.9100 O   0  0  0  0  0  0  0  0  0  0  0  0
   11.9240  -33.8929   15.8134 C   0  0  2  0  0  0  0  0  0  0  0  0
   11.6220  -34.0056   14.4262 O   0  0  0  0  0  0  0  0  0  0  0  0
   11.7016  -37.2399   19.4138 C   0  0  2  0  0  0  0  0  0  0  0  0
    9.9275  -39.0415   14.3902 C   0  0  2  0  0  0  0  0  0  0  0  0
   10.2163  -38.2785   15.5530 O   0  0  0  0  0  0  0  0  0  0  0  0
    8.1339  -43.9024   12.1213 C   0  0  2  0  0  0  0  0  0  0  0  0
    7.0487  -42.9628   12.2354 O   0  0  0  0  0  0  0  0  0  0  0  0
    2.9346  -42.8577   10.5481 C   0  0  2  0  0  0  0  0  0  0  0  0
    1.5828  -43.1336   10.9760 O   0  0  0  0  0  0  0  0  0  0  0  0
   13.2070  -34.7077   16.1445 C   0  0  2  0  0  0  0  0  0  0  0  0
   13.4941  -34.5508   17.5875 O   0  0  0  0  0  0  0  0  0  0  0  0
   11.4968  -38.7087   18.9326 C   0  0  2  0  0  0  0  0  0  0  0  0
   10.5629  -38.6785   17.8267 O   0  0  0  0  0  0  0  0  0  0  0  0
    8.5555  -38.6246   13.8721 C   0  0  0  0  0  0  0  0  0  0  0  0
    8.7143  -37.3432   13.2444 O   0  0  0  0  0  0  0  0  0  0  0  0
    8.7478  -44.1003   13.4944 C   0  0  1  0  0  0  0  0  0  0  0  0
    9.4282  -43.0728   14.2450 O   0  0  0  0  0  0  0  0  0  0  0  0
    3.8333  -44.0912   10.5310 C   0  0  2  0  0  0  0  0  0  0  0  0
    5.2455  -43.8130   10.3216 O   0  0  0  0  0  0  0  0  0  0  0  0
   14.3960  -34.2202   15.3791 C   0  0  0  0  0  0  0  0  0  0  0  0
   14.1599  -34.4524   14.0167 O   0  0  0  0  0  0  0  0  0  0  0  0
   10.9569  -39.5942   20.1145 C   0  0  1  0  0  0  0  0  0  0  0  0
   10.8259  -40.9786   19.6392 O   0  0  0  0  0  0  0  0  0  0  0  0
    7.7806  -44.8076   14.5087 C   0  0  0  0  0  0  0  0  0  0  0  0
    6.3997  -44.2672   14.4893 N   0  0  0  0  0  0  0  0  0  0  0  0
    3.5366  -45.2956    9.6403 C   0  0  0  0  0  0  0  0  0  0  0  0
    4.7767  -45.9782    9.2789 O   0  0  0  0  0  0  0  0  0  0  0  0
  1  2  1  6  0  0  0
  1  8  1  0  0  0  0
  1 36  1  0  0  0  0
  3  4  1  1  0  0  0
  3 10  1  0  0  0  0
  3 47  1  0  0  0  0
  5 11  1  0  0  0  0
  5 30  1  0  0  0  0
  5 38  1  1  0  0  0
  6 21  1  1  0  0  0
  6 42  1  0  0  0  0
  7 15  1  0  0  0  0
  7 44  1  0  0  0  0
  7 32  1  1  0  0  0
  8  9  1  1  0  0  0
  8 17  1  0  0  0  0
 11 12  1  6  0  0  0
 11 20  1  0  0  0  0
 13  6  1  0  0  0  0
 13 14  1  1  0  0  0
 15 16  1  6  0  0  0
 15 24  1  0  0  0  0
 17 26  1  0  0  0  0
 18 10  1  0  0  0  0
 18 19  1  1  0  0  0
 20 21  1  6  0  0  0
 20 29  1  0  0  0  0
 22 13  1  0  0  0  0
 22 23  1  1  0  0  0
 24 25  1  6  0  0  0
 24 33  1  0  0  0  0
 26 27  1  6  0  0  0
 26 35  1  0  0  0  0
 28  2  1  6  0  0  0
 28 18  1  0  0  0  0
 29 30  1  0  0  0  0
 29 39  1  1  0  0  0
 31 22  1  0  0  0  0
 31 32  1  1  0  0  0
 31 41  1  0  0  0  0
 33 34  1  1  0  0  0
 33 43  1  0  0  0  0
 35 36  1  0  0  0  0
 35 45  1  6  0  0  0
 37 28  1  0  0  0  0
 37 38  1  6  0  0  0
 39 40  1  0  0  0  0
 41 42  1  0  0  0  0
 41 49  1  1  0  0  0
 43 44  1  0  0  0  0
 43 51  1  6  0  0  0
 45 46  1  0  0  0  0
 47 37  1  0  0  0  0
 47 48  1  6  0  0  0
 49 50  1  0  0  0  0
 51 52  1  0  0  0  0
M  END
>  <CHROM.1>
-82.39058455,96.52222700,90.37846672,163.92470371,119.01287697,-61.37268507
-171.05703356,79.94422180,-64.79156196,113.32300594,-45.09568404,151.05721983
9.30043312,-39.82594929,15.00628856,0.12636767,-0.97336425,-0.62725819

>  <Name>
2fd0_lig

>  <RI>
2.85265e+07

>  <Rbt.Current_Directory>
/home/itssahil/PROJECTS/Mol_Feturizer/New_Systems/rnas/2fd0

>  <Rbt.Executable>
rbdock ($Id: //depot/dev/client3/rdock/2013.1/src/exe/rbdock.cxx#4 $)

>  <Rbt.Library>
libRbt.so (2013.1, Build901 2013/11/27)

>  <Rbt.Parameter_File>
/export/apps/rDock/src/rDock_2013.1_src/data/scripts/dock_solv.prm

>  <Rbt.Receptor>
prm/blind_docking_60.prm

>  <SCORE>
-9.47566

>  <SCORE.INTER>
-21.1408

>  <SCORE.INTER.CONST>
1

>  <SCORE.INTER.POLAR>
-2.58035

>  <SCORE.INTER.ROT>
12

>  <SCORE.INTER.SOLV>
21.4533

>  <SCORE.INTER.VDW>
-24.2438

>  <SCORE.INTER.norm>
-0.406554

>  <SCORE.INTRA>
9.97542

>  <SCORE.INTRA.DIHEDRAL>
8.21625

>  <SCORE.INTRA.DIHEDRAL.0>
23.9727

>  <SCORE.INTRA.POLAR>
0

>  <SCORE.INTRA.POLAR.0>
0

>  <SCORE.INTRA.REPUL>
0

>  <SCORE.INTRA.REPUL.0>
0

>  <SCORE.INTRA.SOLV>
5.01894

>  <SCORE.INTRA.SOLV.lig_0>
-115.028

>  <SCORE.INTRA.VDW>
3.35783

>  <SCORE.INTRA.VDW.0>
-6.82393

>  <SCORE.INTRA.norm>
0.191835

>  <SCORE.RESTR>
1.68975

>  <SCORE.RESTR.CAVITY>
1.68975

>  <SCORE.RESTR.norm>
0.0324952

>  <SCORE.SYSTEM>
0

>  <SCORE.SYSTEM.CONST>
0

>  <SCORE.SYSTEM.DIHEDRAL>
0

>  <SCORE.SYSTEM.SOLV>
0

>  <SCORE.SYSTEM.norm>
0

>  <SCORE.heavy>
52

>  <SCORE.norm>
-0.182224

>  <RMSD>
13.616

$$$$
2fd0_lig
 OpenBabel11021811433D
libRbt.so/2013.1/901 2013/11/27
 52 56  0  0  0  0  0  0  0  0999 V2000
   12.8583  -35.4641   16.8843 C   0  0  2  0  0  0  0  0  0  0  0  0
   12.7060  -36.5274   17.8346 O   0  0  0  0  0  0  0  0  0  0  0  0
   10.6675  -36.5635   21.6733 C   0  0  2  0  0  0  0  0  0  0  0  0
    9.6026  -36.5728   22.6896 N   0  0  0  0  0  0  0  0  0  0  0  0
   10.3738  -39.3977   18.2420 C   0  0  1  0  0  0  0  0  0  0  0  0
    8.7166  -41.2168   14.4449 C   0  0  1  0  0  0  0  0  0  0  0  0
    4.7605  -43.6690   12.4476 C   0  0  1  0  0  0  0  0  0  0  0  0
   11.9059  -35.7430   15.6650 C   0  0  2  0  0  0  0  0  0  0  0  0
   10.5175  -35.8825   16.0818 N   0  0  0  0  0  0  0  0  0  0  0  0
   10.5192  -35.2903   20.7299 C   0  0  0  0  0  0  0  0  0  0  0  0
   10.6750  -39.7516   16.7971 C   0  0  2  0  0  0  0  0  0  0  0  0
   10.4644  -38.6265   15.8983 O   0  0  0  0  0  0  0  0  0  0  0  0
    7.7416  -40.3214   13.5466 C   0  0  2  0  0  0  0  0  0  0  0  0
    6.4058  -40.1972   14.1911 N   0  0  0  0  0  0  0  0  0  0  0  0
    4.8353  -43.9160   13.9711 C   0  0  1  0  0  0  0  0  0  0  0  0
    4.1409  -42.8453   14.6577 O   0  0  0  0  0  0  0  0  0  0  0  0
   12.3944  -37.0081   14.8665 C   0  0  0  0  0  0  0  0  0  0  0  0
   11.6862  -35.2763   19.6311 C   0  0  2  0  0  0  0  0  0  0  0  0
   11.5705  -34.1098   18.7437 N   0  0  0  0  0  0  0  0  0  0  0  0
    9.8009  -40.9709   16.5566 C   0  0  2  0  0  0  0  0  0  0  0  0
    8.7111  -40.6658   15.7295 O   0  0  0  0  0  0  0  0  0  0  0  0
    7.7407  -40.9536   12.0595 C   0  0  1  0  0  0  0  0  0  0  0  0
    9.1008  -40.9863   11.5902 O   0  0  0  0  0  0  0  0  0  0  0  0
    4.2858  -45.2668   14.5045 C   0  0  1  0  0  0  0  0  0  0  0  0
    2.9157  -45.0700   14.8765 O   0  0  0  0  0  0  0  0  0  0  0  0
   13.8834  -36.7846   14.4448 C   0  0  2  0  0  0  0  0  0  0  0  0
   14.3589  -37.9027   13.7018 O   0  0  0  0  0  0  0  0  0  0  0  0
   11.6198  -36.5885   18.8008 C   0  0  2  0  0  0  0  0  0  0  0  0
    9.1795  -41.4087   17.9044 C   0  0  2  0  0  0  0  0  0  0  0  0
    9.8462  -40.5704   18.8373 O   0  0  0  0  0  0  0  0  0  0  0  0
    7.2166  -42.4832   12.0556 C   0  0  2  0  0  0  0  0  0  0  0  0
    5.8539  -42.3991   12.5135 O   0  0  0  0  0  0  0  0  0  0  0  0
    4.3704  -46.4664   13.5328 C   0  0  2  0  0  0  0  0  0  0  0  0
    4.7755  -47.5950   14.3382 O   0  0  0  0  0  0  0  0  0  0  0  0
   14.7566  -36.5830   15.7162 C   0  0  2  0  0  0  0  0  0  0  0  0
   14.2410  -35.4052   16.4485 O   0  0  0  0  0  0  0  0  0  0  0  0
   11.7030  -37.8686   19.6870 C   0  0  2  0  0  0  0  0  0  0  0  0
   11.5862  -39.0142   18.8095 O   0  0  0  0  0  0  0  0  0  0  0  0
    9.4374  -42.8598   18.2946 C   0  0  0  0  0  0  0  0  0  0  0  0
    8.5160  -43.1826   19.3472 O   0  0  0  0  0  0  0  0  0  0  0  0
    8.0375  -43.1997   13.1112 C   0  0  1  0  0  0  0  0  0  0  0  0
    8.2858  -42.6950   14.4400 O   0  0  0  0  0  0  0  0  0  0  0  0
    5.3209  -46.1691   12.3762 C   0  0  2  0  0  0  0  0  0  0  0  0
    5.0660  -44.9150   11.6852 O   0  0  0  0  0  0  0  0  0  0  0  0
   16.1912  -36.3278   15.3785 C   0  0  0  0  0  0  0  0  0  0  0  0
   16.3205  -34.9768   15.0269 O   0  0  0  0  0  0  0  0  0  0  0  0
   10.5590  -37.8542   20.7658 C   0  0  1  0  0  0  0  0  0  0  0  0
   10.7006  -39.0466   21.6129 O   0  0  0  0  0  0  0  0  0  0  0  0
    7.6369  -44.7070   13.2892 C   0  0  0  0  0  0  0  0  0  0  0  0
    8.3679  -45.3915   14.3831 N   0  0  0  0  0  0  0  0  0  0  0  0
    5.5820  -47.1817   11.2634 C   0  0  0  0  0  0  0  0  0  0  0  0
    6.1634  -48.4036   11.8142 O   0  0  0  0  0  0  0  0  0  0  0  0
  1  2  1  1  0  0  0
  1  8  1  0  0  0  0
  1 36  1  0  0  0  0
  3  4  1  1  0  0  0
  3 10  1  0  0  0  0
  3 47  1  0  0  0  0
  5 11  1  0  0  0  0
  5 30  1  0  0  0  0
  5 38  1  1  0  0  0
  6 21  1  1  0  0  0
  6 42  1  0  0  0  0
  7 15  1  0  0  0  0
  7 44  1  0  0  0  0
  7 32  1  6  0  0  0
  8  9  1  1  0  0  0
  8 17  1  0  0  0  0
 11 12  1  6  0  0  0
 11 20  1  0  0  0  0
 13  6  1  0  0  0  0
 13 14  1  1  0  0  0
 15 16  1  1  0  0  0
 15 24  1  0  0  0  0
 17 26  1  0  0  0  0
 18 10  1  0  0  0  0
 18 19  1  6  0  0  0
 20 21  1  6  0  0  0
 20 29  1  0  0  0  0
 22 13  1  0  0  0  0
 22 23  1  1  0  0  0
 24 25  1  6  0  0  0
 24 33  1  0  0  0  0
 26 27  1  1  0  0  0
 26 35  1  0  0  0  0
 28  2  1  6  0  0  0
 28 18  1  0  0  0  0
 29 30  1  0  0  0  0
 29 39  1  1  0  0  0
 31 22  1  0  0  0  0
 31 32  1  1  0  0  0
 31 41  1  0  0  0  0
 33 34  1  1  0  0  0
 33 43  1  0  0  0  0
 35 36  1  0  0  0  0
 35 45  1  6  0  0  0
 37 28  1  0  0  0  0
 37 38  1  6  0  0  0
 39 40  1  0  0  0  0
 41 42  1  0  0  0  0
 41 49  1  1  0  0  0
 43 44  1  0  0  0  0
 43 51  1  6  0  0  0
 45 46  1  0  0  0  0
 47 37  1  0  0  0  0
 47 48  1  1  0  0  0
 49 50  1  0  0  0  0
 51 52  1  0  0  0  0
M  END
>  <CHROM.1>
-81.30175355,137.28484427,-158.72903492,106.13763929,110.73217839,-57.07604941
-164.83401612,169.06444375,80.55168455,-74.66628731,-175.98800588,-61.04972229
9.31223061,-40.43372239,15.82729506,-0.62376286,-0.77802578,-1.87089303

>  <Name>
2fd0_lig

>  <RI>
2.85265e+07

>  <Rbt.Current_Directory>
/home/itssahil/PROJECTS/Mol_Feturizer/New_Systems/rnas/2fd0

>  <Rbt.Executable>
rbdock ($Id: //depot/dev/client3/rdock/2013.1/src/exe/rbdock.cxx#4 $)

>  <Rbt.Library>
libRbt.so (2013.1, Build901 2013/11/27)

>  <Rbt.Parameter_File>
/export/apps/rDock/src/rDock_2013.1_src/data/scripts/dock_solv.prm

>  <Rbt.Receptor>
prm/blind_docking_60.prm

>  <SCORE>
-4.19989

>  <SCORE.INTER>
-15.2505

>  <SCORE.INTER.CONST>
1

>  <SCORE.INTER.POLAR>
-0.664532

>  <SCORE.INTER.ROT>
12

>  <SCORE.INTER.SOLV>
17.5635

>  <SCORE.INTER.VDW>
-25.4064

>  <SCORE.INTER.norm>
-0.293279

>  <SCORE.INTRA>
7.45166

>  <SCORE.INTRA.DIHEDRAL>
4.22333

>  <SCORE.INTRA.DIHEDRAL.0>
23.9727

>  <SCORE.INTRA.POLAR>
0

>  <SCORE.INTRA.POLAR.0>
0

>  <SCORE.INTRA.REPUL>
0

>  <SCORE.INTRA.REPUL.0>
0

>  <SCORE.INTRA.SOLV>
4.20728

>  <SCORE.INTRA.SOLV.lig_0>
-115.028

>  <SCORE.INTRA.VDW>
3.23636

>  <SCORE.INTRA.VDW.0>
-6.82393

>  <SCORE.INTRA.norm>
0.143301

>  <SCORE.RESTR>
3.59897

>  <SCORE.RESTR.CAVITY>
3.59897

>  <SCORE.RESTR.norm>
0.0692109

>  <SCORE.SYSTEM>
0

>  <SCORE.SYSTEM.CONST>
0

>  <SCORE.SYSTEM.DIHEDRAL>
0

>  <SCORE.SYSTEM.SOLV>
0

>  <SCORE.SYSTEM.norm>
0

>  <SCORE.heavy>
52

>  <SCORE.norm>
-0.0807671

>  <RMSD>
13.639

$$$$
2fd0_lig
 OpenBabel11021811433D
libRbt.so/2013.1/901 2013/11/27
 52 56  0  0  0  0  0  0  0  0999 V2000
   12.8150  -36.7692   16.3007 C   0  0  2  0  0  0  0  0  0  0  0  0
   11.3959  -36.8724   16.4811 O   0  0  0  0  0  0  0  0  0  0  0  0
   10.9973  -40.1497   19.3083 C   0  0  2  0  0  0  0  0  0  0  0  0
   10.4075  -41.1621   20.1996 N   0  0  0  0  0  0  0  0  0  0  0  0
   10.4876  -40.7556   14.9257 C   0  0  1  0  0  0  0  0  0  0  0  0
    8.9750  -43.0143   13.1460 C   0  0  1  0  0  0  0  0  0  0  0  0
    8.1655  -47.8809   14.9499 C   0  0  1  0  0  0  0  0  0  0  0  0
   13.3196  -35.4746   17.0361 C   0  0  2  0  0  0  0  0  0  0  0  0
   12.9671  -35.4811   18.4491 N   0  0  0  0  0  0  0  0  0  0  0  0
   10.5284  -38.6919   19.7418 C   0  0  0  0  0  0  0  0  0  0  0  0
   10.1217  -40.5100   13.4733 C   0  0  2  0  0  0  0  0  0  0  0  0
    8.6817  -40.4650   13.2674 O   0  0  0  0  0  0  0  0  0  0  0  0
    9.6701  -43.8775   14.2997 C   0  0  2  0  0  0  0  0  0  0  0  0
   10.4978  -44.9653   13.7107 N   0  0  0  0  0  0  0  0  0  0  0  0
    6.7186  -48.2485   14.5510 C   0  0  1  0  0  0  0  0  0  0  0  0
    6.6931  -48.6110   13.1483 O   0  0  0  0  0  0  0  0  0  0  0  0
   12.7735  -34.1869   16.3149 C   0  0  0  0  0  0  0  0  0  0  0  0
   11.1807  -37.5906   18.7769 C   0  0  2  0  0  0  0  0  0  0  0  0
   10.7607  -36.2332   19.1548 N   0  0  0  0  0  0  0  0  0  0  0  0
   10.8662  -41.6154   12.7437 C   0  0  2  0  0  0  0  0  0  0  0  0
    9.9883  -42.6028   12.2755 O   0  0  0  0  0  0  0  0  0  0  0  0
    8.5044  -44.3592   15.3097 C   0  0  1  0  0  0  0  0  0  0  0  0
    7.8203  -43.1874   15.7893 O   0  0  0  0  0  0  0  0  0  0  0  0
    6.0207  -49.3794   15.3541 C   0  0  1  0  0  0  0  0  0  0  0  0
    6.2385  -50.6137   14.6587 O   0  0  0  0  0  0  0  0  0  0  0  0
   13.1960  -34.2434   14.8106 C   0  0  2  0  0  0  0  0  0  0  0  0
   12.7352  -33.0834   14.1248 O   0  0  0  0  0  0  0  0  0  0  0  0
   10.7658  -37.8895   17.3092 C   0  0  2  0  0  0  0  0  0  0  0  0
   11.7920  -42.3380   13.7513 C   0  0  2  0  0  0  0  0  0  0  0  0
   11.6761  -41.5270   14.9117 O   0  0  0  0  0  0  0  0  0  0  0  0
    7.3942  -45.2646   14.5601 C   0  0  2  0  0  0  0  0  0  0  0  0
    8.1175  -46.4274   14.1147 O   0  0  0  0  0  0  0  0  0  0  0  0
    6.4730  -49.5491   16.8228 C   0  0  2  0  0  0  0  0  0  0  0  0
    5.2672  -49.8002   17.5774 O   0  0  0  0  0  0  0  0  0  0  0  0
   12.5986  -35.5202   14.1529 C   0  0  2  0  0  0  0  0  0  0  0  0
   13.1140  -36.6998   14.8826 O   0  0  0  0  0  0  0  0  0  0  0  0
   11.1524  -39.3297   16.8539 C   0  0  2  0  0  0  0  0  0  0  0  0
   10.6771  -39.4999   15.4969 O   0  0  0  0  0  0  0  0  0  0  0  0
   13.2623  -42.3961   13.3522 C   0  0  0  0  0  0  0  0  0  0  0  0
   13.3250  -43.0390   12.0700 O   0  0  0  0  0  0  0  0  0  0  0  0
    6.9682  -44.4653   13.3431 C   0  0  1  0  0  0  0  0  0  0  0  0
    7.8763  -43.8184   12.4271 O   0  0  0  0  0  0  0  0  0  0  0  0
    7.2495  -48.3257   17.3021 C   0  0  2  0  0  0  0  0  0  0  0  0
    8.3406  -47.9172   16.4314 O   0  0  0  0  0  0  0  0  0  0  0  0
   12.9970  -35.6523   12.7173 C   0  0  0  0  0  0  0  0  0  0  0  0
   12.8356  -34.4012   12.1054 O   0  0  0  0  0  0  0  0  0  0  0  0
   10.5145  -40.3920   17.8219 C   0  0  1  0  0  0  0  0  0  0  0  0
   10.9420  -41.7310   17.3934 O   0  0  0  0  0  0  0  0  0  0  0  0
    5.9129  -45.2106   12.4513 C   0  0  0  0  0  0  0  0  0  0  0  0
    4.7745  -45.7705   13.2194 N   0  0  0  0  0  0  0  0  0  0  0  0
    7.8222  -48.2338   18.7147 C   0  0  0  0  0  0  0  0  0  0  0  0
    6.7543  -47.9891   19.6812 O   0  0  0  0  0  0  0  0  0  0  0  0
  1  2  1  6  0  0  0
  1  8  1  0  0  0  0
  1 36  1  0  0  0  0
  3  4  1  1  0  0  0
  3 10  1  0  0  0  0
  3 47  1  0  0  0  0
  5 11  1  0  0  0  0
  5 30  1  0  0  0  0
  5 38  1  1  0  0  0
  6 21  1  6  0  0  0
  6 42  1  0  0  0  0
  7 15  1  0  0  0  0
  7 44  1  0  0  0  0
  7 32  1  1  0  0  0
  8  9  1  1  0  0  0
  8 17  1  0  0  0  0
 11 12  1  1  0  0  0
 11 20  1  0  0  0  0
 13  6  1  0  0  0  0
 13 14  1  6  0  0  0
 15 16  1  6  0  0  0
 15 24  1  0  0  0  0
 17 26  1  0  0  0  0
 18 10  1  0  0  0  0
 18 19  1  1  0  0  0
 20 21  1  1  0  0  0
 20 29  1  0  0  0  0
 22 13  1  0  0  0  0
 22 23  1  6  0  0  0
 24 25  1  6  0  0  0
 24 33  1  0  0  0  0
 26 27  1  6  0  0  0
 26 35  1  0  0  0  0
 28  2  1  6  0  0  0
 28 18  1  0  0  0  0
 29 30  1  0  0  0  0
 29 39  1  6  0  0  0
 31 22  1  0  0  0  0
 31 32  1  6  0  0  0
 31 41  1  0  0  0  0
 33 34  1  1  0  0  0
 33 43  1  0  0  0  0
 35 36  1  0  0  0  0
 35 45  1  6  0  0  0
 37 28  1  0  0  0  0
 37 38  1  6  0  0  0
 39 40  1  0  0  0  0
 41 42  1  0  0  0  0
 41 49  1  6  0  0  0
 43 44  1  0  0  0  0
 43 51  1  1  0  0  0
 45 46  1  0  0  0  0
 47 37  1  0  0  0  0
 47 48  1  6  0  0  0
 49 50  1  0  0  0  0
 51 52  1  0  0  0  0
M  END
>  <CHROM.1>
-110.20318251,-174.55151683,-71.82504666,74.08276434,-43.06757094,66.61862135
-57.07228094,96.75624195,-45.27281230,-160.20394231,48.57769287,-74.37876916
9.81774125,-42.01667452,15.38681501,0.15409261,1.13216264,1.42570669

>  <Name>
2fd0_lig

>  <RI>
0

>  <Rbt.Current_Directory>
/home/itssahil/PROJECTS/Mol_Feturizer/New_Systems/rnas/2fd0

>  <Rbt.Executable>
rbdock ($Id: //depot/dev/client3/rdock/2013.1/src/exe/rbdock.cxx#4 $)

>  <Rbt.Library>
libRbt.so (2013.1, Build901 2013/11/27)

>  <Rbt.Parameter_File>
/export/apps/rDock/src/rDock_2013.1_src/data/scripts/dock_solv.prm

>  <Rbt.Receptor>
prm/blind_docking_100.prm

>  <SCORE>
-4.24256

>  <SCORE.INTER>
-20.8054

>  <SCORE.INTER.CONST>
1

>  <SCORE.INTER.POLAR>
-1.93914

>  <SCORE.INTER.ROT>
12

>  <SCORE.INTER.SOLV>
23.3168

>  <SCORE.INTER.VDW>
-26.7787

>  <SCORE.INTER.norm>
-0.400103

>  <SCORE.INTRA>
10.5948

>  <SCORE.INTRA.DIHEDRAL>
-4.19503

>  <SCORE.INTRA.DIHEDRAL.0>
23.9727

>  <SCORE.INTRA.POLAR>
0

>  <SCORE.INTRA.POLAR.0>
0

>  <SCORE.INTRA.REPUL>
0

>  <SCORE.INTRA.REPUL.0>
0

>  <SCORE.INTRA.SOLV>
6.28781

>  <SCORE.INTRA.SOLV.lig_0>
-115.028

>  <SCORE.INTRA.VDW>
9.54843

>  <SCORE.INTRA.VDW.0>
-6.82393

>  <SCORE.INTRA.norm>
0.203747

>  <SCORE.RESTR>
5.96798

>  <SCORE.RESTR.CAVITY>
5.96798

>  <SCORE.RESTR.norm>
0.114769

>  <SCORE.SYSTEM>
0

>  <SCORE.SYSTEM.CONST>
0

>  <SCORE.SYSTEM.DIHEDRAL>
0

>  <SCORE.SYSTEM.SOLV>
0

>  <SCORE.SYSTEM.norm>
0

>  <SCORE.heavy>
52

>  <SCORE.norm>
-0.0815877

>  <RMSD>
13.671

$$$$
2fd0_lig
 OpenBabel11021811433D
libRbt.so/2013.1/901 2013/11/27
 52 56  0  0  0  0  0  0  0  0999 V2000
   10.8851  -37.1894   19.1280 C   0  0  2  0  0  0  0  0  0  0  0  0
   12.2187  -36.8156   18.7558 O   0  0  0  0  0  0  0  0  0  0  0  0
   11.7264  -33.7863   15.6778 C   0  0  2  0  0  0  0  0  0  0  0  0
   12.0050  -32.8830   14.5493 N   0  0  0  0  0  0  0  0  0  0  0  0
   10.7039  -38.5430   15.8846 C   0  0  1  0  0  0  0  0  0  0  0  0
    8.2345  -41.2562   13.1627 C   0  0  1  0  0  0  0  0  0  0  0  0
    7.9794  -46.0075   14.8380 C   0  0  1  0  0  0  0  0  0  0  0  0
   10.6873  -36.8797   20.6566 C   0  0  2  0  0  0  0  0  0  0  0  0
   10.9478  -35.4804   20.9647 N   0  0  0  0  0  0  0  0  0  0  0  0
   12.7601  -33.5279   16.8601 C   0  0  0  0  0  0  0  0  0  0  0  0
   10.3046  -38.5084   14.4208 C   0  0  2  0  0  0  0  0  0  0  0  0
    9.2273  -37.5639   14.1651 O   0  0  0  0  0  0  0  0  0  0  0  0
    6.7861  -41.7166   13.6625 C   0  0  2  0  0  0  0  0  0  0  0  0
    6.7989  -41.9795   15.1274 N   0  0  0  0  0  0  0  0  0  0  0  0
    6.7096  -46.8519   14.5886 C   0  0  1  0  0  0  0  0  0  0  0  0
    6.5678  -47.0821   13.1650 O   0  0  0  0  0  0  0  0  0  0  0  0
   11.5826  -37.8352   21.5294 C   0  0  0  0  0  0  0  0  0  0  0  0
   12.4479  -34.5048   18.0920 C   0  0  2  0  0  0  0  0  0  0  0  0
   13.3919  -34.2880   19.1983 N   0  0  0  0  0  0  0  0  0  0  0  0
   10.0008  -39.9658   14.1169 C   0  0  2  0  0  0  0  0  0  0  0  0
    8.6239  -40.1828   13.9690 O   0  0  0  0  0  0  0  0  0  0  0  0
    6.3295  -42.9594   12.7363 C   0  0  1  0  0  0  0  0  0  0  0  0
    6.3631  -42.5265   11.3643 O   0  0  0  0  0  0  0  0  0  0  0  0
    6.6088  -48.2227   15.3111 C   0  0  1  0  0  0  0  0  0  0  0  0
    7.1228  -49.2266   14.4267 O   0  0  0  0  0  0  0  0  0  0  0  0
   11.2435  -39.3145   21.1532 C   0  0  2  0  0  0  0  0  0  0  0  0
   12.0220  -40.2137   21.9365 O   0  0  0  0  0  0  0  0  0  0  0  0
   12.5242  -35.9789   17.6052 C   0  0  2  0  0  0  0  0  0  0  0  0
   10.4199  -40.8236   15.3346 C   0  0  2  0  0  0  0  0  0  0  0  0
   11.0846  -39.8794   16.1619 O   0  0  0  0  0  0  0  0  0  0  0  0
    7.3549  -44.2043   12.8504 C   0  0  2  0  0  0  0  0  0  0  0  0
    7.2751  -44.6126   14.2290 O   0  0  0  0  0  0  0  0  0  0  0  0
    7.3424  -48.3317   16.6677 C   0  0  2  0  0  0  0  0  0  0  0  0
    6.4556  -49.0731   17.5340 O   0  0  0  0  0  0  0  0  0  0  0  0
   11.5311  -39.5429   19.6416 C   0  0  2  0  0  0  0  0  0  0  0  0
   10.6926  -38.6032   18.8649 O   0  0  0  0  0  0  0  0  0  0  0  0
   11.5697  -36.2692   16.4070 C   0  0  2  0  0  0  0  0  0  0  0  0
   11.7642  -37.6506   16.0199 O   0  0  0  0  0  0  0  0  0  0  0  0
   11.3918  -41.9565   15.0241 C   0  0  0  0  0  0  0  0  0  0  0  0
   11.2998  -42.8978   16.1041 O   0  0  0  0  0  0  0  0  0  0  0  0
    8.7334  -43.6234   12.5978 C   0  0  1  0  0  0  0  0  0  0  0  0
    9.2416  -42.4198   13.2104 O   0  0  0  0  0  0  0  0  0  0  0  0
    7.7080  -46.9510   17.2058 C   0  0  2  0  0  0  0  0  0  0  0  0
    8.4134  -46.0971   16.2630 O   0  0  0  0  0  0  0  0  0  0  0  0
   11.1922  -40.9338   19.2086 C   0  0  0  0  0  0  0  0  0  0  0  0
    9.8566  -41.1827   19.5546 O   0  0  0  0  0  0  0  0  0  0  0  0
   11.8838  -35.2909   15.2167 C   0  0  1  0  0  0  0  0  0  0  0  0
   10.9332  -35.5585   14.1285 O   0  0  0  0  0  0  0  0  0  0  0  0
    9.8835  -44.6857   12.7129 C   0  0  0  0  0  0  0  0  0  0  0  0
    9.4792  -46.0481   12.2891 N   0  0  0  0  0  0  0  0  0  0  0  0
    8.4500  -46.7688   18.5279 C   0  0  0  0  0  0  0  0  0  0  0  0
    7.7526  -47.4705   19.6030 O   0  0  0  0  0  0  0  0  0  0  0  0
  1  2  1  1  0  0  0
  1  8  1  0  0  0  0
  1 36  1  0  0  0  0
  3  4  1  6  0  0  0
  3 10  1  0  0  0  0
  3 47  1  0  0  0  0
  5 11  1  0  0  0  0
  5 30  1  0  0  0  0
  5 38  1  6  0  0  0
  6 21  1  1  0  0  0
  6 42  1  0  0  0  0
  7 15  1  0  0  0  0
  7 44  1  0  0  0  0
  7 32  1  1  0  0  0
  8  9  1  6  0  0  0
  8 17  1  0  0  0  0
 11 12  1  1  0  0  0
 11 20  1  0  0  0  0
 13  6  1  0  0  0  0
 13 14  1  1  0  0  0
 15 16  1  6  0  0  0
 15 24  1  0  0  0  0
 17 26  1  0  0  0  0
 18 10  1  0  0  0  0
 18 19  1  1  0  0  0
 20 21  1  1  0  0  0
 20 29  1  0  0  0  0
 22 13  1  0  0  0  0
 22 23  1  6  0  0  0
 24 25  1  6  0  0  0
 24 33  1  0  0  0  0
 26 27  1  1  0  0  0
 26 35  1  0  0  0  0
 28  2  1  1  0  0  0
 28 18  1  0  0  0  0
 29 30  1  0  0  0  0
 29 39  1  6  0  0  0
 31 22  1  0  0  0  0
 31 32  1  1  0  0  0
 31 41  1  0  0  0  0
 33 34  1  1  0  0  0
 33 43  1  0  0  0  0
 35 36  1  0  0  0  0
 35 45  1  6  0  0  0
 37 28  1  0  0  0  0
 37 38  1  6  0  0  0
 39 40  1  0  0  0  0
 41 42  1  0  0  0  0
 41 49  1  1  0  0  0
 43 44  1  0  0  0  0
 43 51  1  1  0  0  0
 45 46  1  0  0  0  0
 47 37  1  0  0  0  0
 47 48  1  6  0  0  0
 49 50  1  0  0  0  0
 51 52  1  0  0  0  0
M  END
>  <CHROM.1>
-129.82139832,93.62666260,154.31990084,-91.21505529,153.40352585,87.28153761
-160.04814996,170.94022322,54.93453888,128.28444987,32.49468843,-53.44589221
9.68618101,-41.06806532,16.20200195,-0.33468144,1.16983567,2.19209329

>  <Name>
2fd0_lig

>  <RI>
2.85265e+07

>  <Rbt.Current_Directory>
/home/itssahil/PROJECTS/Mol_Feturizer/New_Systems/rnas/2fd0

>  <Rbt.Executable>
rbdock ($Id: //depot/dev/client3/rdock/2013.1/src/exe/rbdock.cxx#4 $)

>  <Rbt.Library>
libRbt.so (2013.1, Build901 2013/11/27)

>  <Rbt.Parameter_File>
/export/apps/rDock/src/rDock_2013.1_src/data/scripts/dock_solv.prm

>  <Rbt.Receptor>
prm/blind_docking_60.prm

>  <SCORE>
-13.5558

>  <SCORE.INTER>
-21.827

>  <SCORE.INTER.CONST>
1

>  <SCORE.INTER.POLAR>
-1.7379

>  <SCORE.INTER.ROT>
12

>  <SCORE.INTER.SOLV>
27.9385

>  <SCORE.INTER.VDW>
-29.6712

>  <SCORE.INTER.norm>
-0.41975

>  <SCORE.INTRA>
7.64266

>  <SCORE.INTRA.DIHEDRAL>
11.6128

>  <SCORE.INTRA.DIHEDRAL.0>
23.9727

>  <SCORE.INTRA.POLAR>
0

>  <SCORE.INTRA.POLAR.0>
0

>  <SCORE.INTRA.REPUL>
0.0133559

>  <SCORE.INTRA.REPUL.0>
0

>  <SCORE.INTRA.SOLV>
3.02122

>  <SCORE.INTRA.SOLV.lig_0>
-115.028

>  <SCORE.INTRA.VDW>
0.25886

>  <SCORE.INTRA.VDW.0>
-6.82393

>  <SCORE.INTRA.norm>
0.146974

>  <SCORE.RESTR>
0.628568

>  <SCORE.RESTR.CAVITY>
0.628568

>  <SCORE.RESTR.norm>
0.0120878

>  <SCORE.SYSTEM>
0

>  <SCORE.SYSTEM.CONST>
0

>  <SCORE.SYSTEM.DIHEDRAL>
0

>  <SCORE.SYSTEM.SOLV>
0

>  <SCORE.SYSTEM.norm>
0

>  <SCORE.heavy>
52

>  <SCORE.norm>
-0.260688

>  <RMSD>
13.672

$$$$
2fd0_lig
 OpenBabel11021811433D
libRbt.so/2013.1/901 2013/11/27
 52 56  0  0  0  0  0  0  0  0999 V2000
    5.1638  -49.3318   14.8959 C   0  0  2  0  0  0  0  0  0  0  0  0
    5.4335  -48.0907   15.5622 O   0  0  0  0  0  0  0  0  0  0  0  0
    3.4540  -45.1544   13.0418 C   0  0  2  0  0  0  0  0  0  0  0  0
    2.9832  -43.8696   12.4991 N   0  0  0  0  0  0  0  0  0  0  0  0
    7.7915  -45.8775   12.7477 C   0  0  1  0  0  0  0  0  0  0  0  0
    9.1680  -41.8047   12.4321 C   0  0  1  0  0  0  0  0  0  0  0  0
   10.9508  -39.5539   16.6484 C   0  0  1  0  0  0  0  0  0  0  0  0
    4.0064  -50.0696   15.6625 C   0  0  2  0  0  0  0  0  0  0  0  0
    2.8069  -49.2490   15.7538 N   0  0  0  0  0  0  0  0  0  0  0  0
    2.9820  -45.3220   14.5524 C   0  0  0  0  0  0  0  0  0  0  0  0
    7.8850  -44.4838   13.3414 C   0  0  2  0  0  0  0  0  0  0  0  0
    6.8733  -43.5862   12.8038 O   0  0  0  0  0  0  0  0  0  0  0  0
   10.5505  -41.1841   12.9449 C   0  0  2  0  0  0  0  0  0  0  0  0
   11.1475  -42.0438   14.0031 N   0  0  0  0  0  0  0  0  0  0  0  0
   10.3074  -40.1042   17.9410 C   0  0  1  0  0  0  0  0  0  0  0  0
   10.5269  -41.5351   18.0055 O   0  0  0  0  0  0  0  0  0  0  0  0
    4.4972  -50.5279   17.0857 C   0  0  0  0  0  0  0  0  0  0  0  0
    3.4863  -46.7265   15.1376 C   0  0  2  0  0  0  0  0  0  0  0  0
    3.0651  -46.9053   16.5349 N   0  0  0  0  0  0  0  0  0  0  0  0
    9.3300  -44.0972   13.0750 C   0  0  2  0  0  0  0  0  0  0  0  0
    9.4243  -43.1290   12.0658 O   0  0  0  0  0  0  0  0  0  0  0  0
   10.2620  -39.6529   13.3726 C   0  0  1  0  0  0  0  0  0  0  0  0
    9.7030  -38.9718   12.2347 O   0  0  0  0  0  0  0  0  0  0  0  0
   10.7670  -39.4848   19.2886 C   0  0  1  0  0  0  0  0  0  0  0  0
   11.8378  -40.2879   19.8012 O   0  0  0  0  0  0  0  0  0  0  0  0
    5.7770  -51.4087   16.9100 C   0  0  2  0  0  0  0  0  0  0  0  0
    6.2435  -51.8599   18.1776 O   0  0  0  0  0  0  0  0  0  0  0  0
    5.0355  -46.7949   15.0334 C   0  0  2  0  0  0  0  0  0  0  0  0
   10.0804  -45.3336   12.5249 C   0  0  2  0  0  0  0  0  0  0  0  0
    9.1186  -46.3683   12.6735 O   0  0  0  0  0  0  0  0  0  0  0  0
    9.1615  -39.5544   14.5531 C   0  0  2  0  0  0  0  0  0  0  0  0
    9.7687  -40.2306   15.6700 O   0  0  0  0  0  0  0  0  0  0  0  0
   11.2315  -38.0109   19.2361 C   0  0  2  0  0  0  0  0  0  0  0  0
   10.6874  -37.3864   20.4195 O   0  0  0  0  0  0  0  0  0  0  0  0
    6.8849  -50.5764   16.2032 C   0  0  2  0  0  0  0  0  0  0  0  0
    6.3673  -50.1422   14.8867 O   0  0  0  0  0  0  0  0  0  0  0  0
    5.5529  -46.5784   13.5786 C   0  0  2  0  0  0  0  0  0  0  0  0
    6.9995  -46.6197   13.6199 O   0  0  0  0  0  0  0  0  0  0  0  0
   11.3324  -45.7283   13.3002 C   0  0  0  0  0  0  0  0  0  0  0  0
   12.2686  -44.6482   13.1656 O   0  0  0  0  0  0  0  0  0  0  0  0
    7.9771  -40.3745   14.0777 C   0  0  1  0  0  0  0  0  0  0  0  0
    8.0705  -41.6963   13.5065 O   0  0  0  0  0  0  0  0  0  0  0  0
   10.7911  -37.3434   17.9361 C   0  0  2  0  0  0  0  0  0  0  0  0
   11.1372  -38.0754   16.7278 O   0  0  0  0  0  0  0  0  0  0  0  0
    8.1278  -51.3757   15.9723 C   0  0  0  0  0  0  0  0  0  0  0  0
    9.1906  -50.4808   15.7842 O   0  0  0  0  0  0  0  0  0  0  0  0
    5.0347  -45.2029   13.0199 C   0  0  1  0  0  0  0  0  0  0  0  0
    5.4975  -45.0577   11.6328 O   0  0  0  0  0  0  0  0  0  0  0  0
    6.8079  -40.4373   15.1234 C   0  0  0  0  0  0  0  0  0  0  0  0
    5.6450  -41.2371   14.6681 N   0  0  0  0  0  0  0  0  0  0  0  0
   11.1275  -35.8877   17.6202 C   0  0  0  0  0  0  0  0  0  0  0  0
   10.4628  -34.9955   18.5671 O   0  0  0  0  0  0  0  0  0  0  0  0
  1  2  1  1  0  0  0
  1  8  1  0  0  0  0
  1 36  1  0  0  0  0
  3  4  1  1  0  0  0
  3 10  1  0  0  0  0
  3 47  1  0  0  0  0
  5 11  1  0  0  0  0
  5 30  1  0  0  0  0
  5 38  1  1  0  0  0
  6 21  1  1  0  0  0
  6 42  1  0  0  0  0
  7 15  1  0  0  0  0
  7 44  1  0  0  0  0
  7 32  1  6  0  0  0
  8  9  1  1  0  0  0
  8 17  1  0  0  0  0
 11 12  1  6  0  0  0
 11 20  1  0  0  0  0
 13  6  1  0  0  0  0
 13 14  1  1  0  0  0
 15 16  1  1  0  0  0
 15 24  1  0  0  0  0
 17 26  1  0  0  0  0
 18 10  1  0  0  0  0
 18 19  1  1  0  0  0
 20 21  1  6  0  0  0
 20 29  1  0  0  0  0
 22 13  1  0  0  0  0
 22 23  1  6  0  0  0
 24 25  1  6  0  0  0
 24 33  1  0  0  0  0
 26 27  1  1  0  0  0
 26 35  1  0  0  0  0
 28  2  1  6  0  0  0
 28 18  1  0  0  0  0
 29 30  1  0  0  0  0
 29 39  1  1  0  0  0
 31 22  1  0  0  0  0
 31 32  1  1  0  0  0
 31 41  1  0  0  0  0
 33 34  1  1  0  0  0
 33 43  1  0  0  0  0
 35 36  1  0  0  0  0
 35 45  1  6  0  0  0
 37 28  1  0  0  0  0
 37 38  1  1  0  0  0
 39 40  1  0  0  0  0
 41 42  1  0  0  0  0
 41 49  1  1  0  0  0
 43 44  1  0  0  0  0
 43 51  1  6  0  0  0
 45 46  1  0  0  0  0
 47 37  1  0  0  0  0
 47 48  1  6  0  0  0
 49 50  1  0  0  0  0
 51 52  1  0  0  0  0
M  END
>  <CHROM.1>
-106.04810554,82.70652983,87.47153665,137.72304349,79.91773852,69.78261047
-64.26261460,77.78134026,-159.62557239,-148.40527677,-179.99417155,-64.86176718
7.94779265,-43.91371251,15.12991864,-2.59324015,-1.04008594,-0.80001904

>  <Name>
2fd0_lig

>  <RI>
2.85265e+07

>  <Rbt.Current_Directory>
/home/itssahil/PROJECTS/Mol_Feturizer/New_Systems/rnas/2fd0

>  <Rbt.Executable>
rbdock ($Id: //depot/dev/client3/rdock/2013.1/src/exe/rbdock.cxx#4 $)

>  <Rbt.Library>
libRbt.so (2013.1, Build901 2013/11/27)

>  <Rbt.Parameter_File>
/export/apps/rDock/src/rDock_2013.1_src/data/scripts/dock_solv.prm

>  <Rbt.Receptor>
prm/blind_docking_60.prm

>  <SCORE>
-9.56893

>  <SCORE.INTER>
-25.8145

>  <SCORE.INTER.CONST>
1

>  <SCORE.INTER.POLAR>
-0.938083

>  <SCORE.INTER.ROT>
12

>  <SCORE.INTER.SOLV>
20.6731

>  <SCORE.INTER.VDW>
-32.5738

>  <SCORE.INTER.norm>
-0.496433

>  <SCORE.INTRA>
15.2692

>  <SCORE.INTRA.DIHEDRAL>
4.06667

>  <SCORE.INTRA.DIHEDRAL.0>
23.9727

>  <SCORE.INTRA.POLAR>
0

>  <SCORE.INTRA.POLAR.0>
0

>  <SCORE.INTRA.REPUL>
0

>  <SCORE.INTRA.REPUL.0>
0

>  <SCORE.INTRA.SOLV>
6.07435

>  <SCORE.INTRA.SOLV.lig_0>
-115.028

>  <SCORE.INTRA.VDW>
10.1987

>  <SCORE.INTRA.VDW.0>
-6.82393

>  <SCORE.INTRA.norm>
0.293638

>  <SCORE.RESTR>
0.976414

>  <SCORE.RESTR.CAVITY>
0.976414

>  <SCORE.RESTR.norm>
0.0187772

>  <SCORE.SYSTEM>
0

>  <SCORE.SYSTEM.CONST>
0

>  <SCORE.SYSTEM.DIHEDRAL>
0

>  <SCORE.SYSTEM.SOLV>
0

>  <SCORE.SYSTEM.norm>
0

>  <SCORE.heavy>
52

>  <SCORE.norm>
-0.184018

>  <RMSD>
13.692

$$$$
2fd0_lig
 OpenBabel11021811433D
libRbt.so/2013.1/901 2013/11/27
 52 56  0  0  0  0  0  0  0  0999 V2000
   12.1849  -34.9893   14.0400 C   0  0  2  0  0  0  0  0  0  0  0  0
   11.6722  -36.2560   14.4754 O   0  0  0  0  0  0  0  0  0  0  0  0
   10.8076  -36.2752   18.7351 C   0  0  2  0  0  0  0  0  0  0  0  0
   10.0892  -36.3958   20.0143 N   0  0  0  0  0  0  0  0  0  0  0  0
   10.4018  -39.6461   15.9313 C   0  0  1  0  0  0  0  0  0  0  0  0
    9.1807  -43.9101   14.9580 C   0  0  1  0  0  0  0  0  0  0  0  0
    5.2933  -47.5220   14.7017 C   0  0  1  0  0  0  0  0  0  0  0  0
   13.1923  -35.2370   12.8587 C   0  0  2  0  0  0  0  0  0  0  0  0
   12.5706  -35.9604   11.7583 N   0  0  0  0  0  0  0  0  0  0  0  0
   10.1049  -35.1896   17.8073 C   0  0  0  0  0  0  0  0  0  0  0  0
   10.7857  -40.8912   15.1529 C   0  0  2  0  0  0  0  0  0  0  0  0
   10.3496  -40.8307   13.7657 O   0  0  0  0  0  0  0  0  0  0  0  0
    8.2196  -44.0893   13.6916 C   0  0  2  0  0  0  0  0  0  0  0  0
    6.8431  -43.6218   14.0110 N   0  0  0  0  0  0  0  0  0  0  0  0
    4.7917  -46.9972   16.0658 C   0  0  1  0  0  0  0  0  0  0  0  0
    4.0995  -45.7404   15.8626 O   0  0  0  0  0  0  0  0  0  0  0  0
   14.4766  -35.9814   13.3811 C   0  0  0  0  0  0  0  0  0  0  0  0
   10.8953  -35.0521   16.4196 C   0  0  2  0  0  0  0  0  0  0  0  0
   10.2641  -34.0558   15.5417 N   0  0  0  0  0  0  0  0  0  0  0  0
   10.1933  -42.0119   15.9907 C   0  0  2  0  0  0  0  0  0  0  0  0
    9.0717  -42.5788   15.3697 O   0  0  0  0  0  0  0  0  0  0  0  0
    8.3381  -45.6273   13.2107 C   0  0  1  0  0  0  0  0  0  0  0  0
    9.7239  -45.9007   12.9349 O   0  0  0  0  0  0  0  0  0  0  0  0
    3.8661  -47.9289   16.8942 C   0  0  1  0  0  0  0  0  0  0  0  0
    2.5083  -47.6009   16.5734 O   0  0  0  0  0  0  0  0  0  0  0  0
   15.0937  -35.1463   14.5501 C   0  0  2  0  0  0  0  0  0  0  0  0
   16.2719  -35.7788   15.0400 O   0  0  0  0  0  0  0  0  0  0  0  0
   10.9333  -36.4373   15.7157 C   0  0  2  0  0  0  0  0  0  0  0  0
    9.6658  -41.4135   17.3166 C   0  0  2  0  0  0  0  0  0  0  0  0
   10.1298  -40.0724   17.2550 O   0  0  0  0  0  0  0  0  0  0  0  0
    7.8890  -46.6581   14.3726 C   0  0  2  0  0  0  0  0  0  0  0  0
    6.4988  -46.3604   14.6017 O   0  0  0  0  0  0  0  0  0  0  0  0
    4.0725  -49.4477   16.6909 C   0  0  2  0  0  0  0  0  0  0  0  0
    3.9713  -50.0362   18.0062 O   0  0  0  0  0  0  0  0  0  0  0  0
   14.0501  -35.0098   15.6955 C   0  0  2  0  0  0  0  0  0  0  0  0
   12.8515  -34.3348   15.1502 O   0  0  0  0  0  0  0  0  0  0  0  0
   11.5617  -37.5509   16.6078 C   0  0  2  0  0  0  0  0  0  0  0  0
   11.4993  -38.7916   15.8644 O   0  0  0  0  0  0  0  0  0  0  0  0
   10.2225  -42.0554   18.5826 C   0  0  0  0  0  0  0  0  0  0  0  0
    9.8176  -41.2304   19.6856 O   0  0  0  0  0  0  0  0  0  0  0  0
    8.6784  -46.2558   15.6040 C   0  0  1  0  0  0  0  0  0  0  0  0
    8.8221  -44.9013   16.0803 O   0  0  0  0  0  0  0  0  0  0  0  0
    5.4010  -49.7321   15.9954 C   0  0  2  0  0  0  0  0  0  0  0  0
    5.6228  -48.9757   14.7731 O   0  0  0  0  0  0  0  0  0  0  0  0
   14.5679  -34.1883   16.8331 C   0  0  0  0  0  0  0  0  0  0  0  0
   13.5171  -33.9926   17.7405 O   0  0  0  0  0  0  0  0  0  0  0  0
   10.7805  -37.6582   17.9683 C   0  0  1  0  0  0  0  0  0  0  0  0
   11.4313  -38.6788   18.8016 O   0  0  0  0  0  0  0  0  0  0  0  0
    8.3404  -47.1245   16.8671 C   0  0  0  0  0  0  0  0  0  0  0  0
    8.8879  -46.5746   18.1309 N   0  0  0  0  0  0  0  0  0  0  0  0
    5.8515  -51.1527   15.6623 C   0  0  0  0  0  0  0  0  0  0  0  0
    6.2256  -51.8662   16.8811 O   0  0  0  0  0  0  0  0  0  0  0  0
  1  2  1  1  0  0  0
  1  8  1  0  0  0  0
  1 36  1  0  0  0  0
  3  4  1  1  0  0  0
  3 10  1  0  0  0  0
  3 47  1  0  0  0  0
  5 11  1  0  0  0  0
  5 30  1  0  0  0  0
  5 38  1  1  0  0  0
  6 21  1  1  0  0  0
  6 42  1  0  0  0  0
  7 15  1  0  0  0  0
  7 44  1  0  0  0  0
  7 32  1  1  0  0  0
  8  9  1  6  0  0  0
  8 17  1  0  0  0  0
 11 12  1  6  0  0  0
 11 20  1  0  0  0  0
 13  6  1  0  0  0  0
 13 14  1  1  0  0  0
 15 16  1  6  0  0  0
 15 24  1  0  0  0  0
 17 26  1  0  0  0  0
 18 10  1  0  0  0  0
 18 19  1  6  0  0  0
 20 21  1  6  0  0  0
 20 29  1  0  0  0  0
 22 13  1  0  0  0  0
 22 23  1  1  0  0  0
 24 25  1  6  0  0  0
 24 33  1  0  0  0  0
 26 27  1  1  0  0  0
 26 35  1  0  0  0  0
 28  2  1  6  0  0  0
 28 18  1  0  0  0  0
 29 30  1  0  0  0  0
 29 39  1  1  0  0  0
 31 22  1  0  0  0  0
 31 32  1  1  0  0  0
 31 41  1  0  0  0  0
 33 34  1  1  0  0  0
 33 43  1  0  0  0  0
 35 36  1  0  0  0  0
 35 45  1  1  0  0  0
 37 28  1  0  0  0  0
 37 38  1  6  0  0  0
 39 40  1  0  0  0  0
 41 42  1  0  0  0  0
 41 49  1  1  0  0  0
 43 44  1  0  0  0  0
 43 51  1  6  0  0  0
 45 46  1  0  0  0  0
 47 37  1  0  0  0  0
 47 48  1  1  0  0  0
 49 50  1  0  0  0  0
 51 52  1  0  0  0  0
M  END
>  <CHROM.1>
166.98128388,-173.55907103,-150.78373063,126.80228834,114.48372665,-2.24784678
169.89633416,132.68800155,173.37216475,-89.08407706,-168.19608915,-71.64152203
9.45772222,-41.61422902,15.91252673,-0.58600079,-0.95516212,-2.26578806

>  <Name>
2fd0_lig

>  <RI>
0

>  <Rbt.Current_Directory>
/home/itssahil/PROJECTS/Mol_Feturizer/New_Systems/rnas/2fd0

>  <Rbt.Executable>
rbdock ($Id: //depot/dev/client3/rdock/2013.1/src/exe/rbdock.cxx#4 $)

>  <Rbt.Library>
libRbt.so (2013.1, Build901 2013/11/27)

>  <Rbt.Parameter_File>
/export/apps/rDock/src/rDock_2013.1_src/data/scripts/dock_solv.prm

>  <Rbt.Receptor>
prm/blind_docking_100.prm

>  <SCORE>
1.1781

>  <SCORE.INTER>
-17.5949

>  <SCORE.INTER.CONST>
1

>  <SCORE.INTER.POLAR>
-0.784964

>  <SCORE.INTER.ROT>
12

>  <SCORE.INTER.SOLV>
28.5467

>  <SCORE.INTER.VDW>
-30.229

>  <SCORE.INTER.norm>
-0.338364

>  <SCORE.INTRA>
14.3727

>  <SCORE.INTRA.DIHEDRAL>
13.8828

>  <SCORE.INTRA.DIHEDRAL.0>
23.9727

>  <SCORE.INTRA.POLAR>
0

>  <SCORE.INTRA.POLAR.0>
0

>  <SCORE.INTRA.REPUL>
0

>  <SCORE.INTRA.REPUL.0>
0

>  <SCORE.INTRA.SOLV>
-1.31206

>  <SCORE.INTRA.SOLV.lig_0>
-115.028

>  <SCORE.INTRA.VDW>
8.08735

>  <SCORE.INTRA.VDW.0>
-6.82393

>  <SCORE.INTRA.norm>
0.276398

>  <SCORE.RESTR>
4.40034

>  <SCORE.RESTR.CAVITY>
4.40034

>  <SCORE.RESTR.norm>
0.0846219

>  <SCORE.SYSTEM>
0

>  <SCORE.SYSTEM.CONST>
0

>  <SCORE.SYSTEM.DIHEDRAL>
0

>  <SCORE.SYSTEM.SOLV>
0

>  <SCORE.SYSTEM.norm>
0

>  <SCORE.heavy>
52

>  <SCORE.norm>
0.0226558

>  <RMSD>
13.732

$$$$
2fd0_lig
 OpenBabel11021811433D
libRbt.so/2013.1/901 2013/11/27
 52 56  0  0  0  0  0  0  0  0999 V2000
   13.9637  -36.4338   15.0728 C   0  0  2  0  0  0  0  0  0  0  0  0
   13.4965  -35.3219   15.8489 O   0  0  0  0  0  0  0  0  0  0  0  0
   11.4346  -36.2686   19.5563 C   0  0  2  0  0  0  0  0  0  0  0  0
   10.3944  -36.3510   20.5947 N   0  0  0  0  0  0  0  0  0  0  0  0
   10.5550  -38.4362   15.8340 C   0  0  1  0  0  0  0  0  0  0  0  0
    8.2625  -41.2207   13.0154 C   0  0  1  0  0  0  0  0  0  0  0  0
    6.6137  -45.9347   13.5431 C   0  0  1  0  0  0  0  0  0  0  0  0
   15.4161  -36.1131   14.5637 C   0  0  2  0  0  0  0  0  0  0  0  0
   16.3241  -35.8197   15.6637 N   0  0  0  0  0  0  0  0  0  0  0  0
   11.7551  -34.7474   19.2154 C   0  0  0  0  0  0  0  0  0  0  0  0
   10.2087  -38.6224   14.3680 C   0  0  2  0  0  0  0  0  0  0  0  0
    9.1049  -37.7710   13.9497 O   0  0  0  0  0  0  0  0  0  0  0  0
    6.6695  -41.3675   13.0355 C   0  0  2  0  0  0  0  0  0  0  0  0
    6.2062  -41.8430   14.3676 N   0  0  0  0  0  0  0  0  0  0  0  0
    5.7290  -46.4897   12.4042 C   0  0  1  0  0  0  0  0  0  0  0  0
    6.4362  -46.3514   11.1469 O   0  0  0  0  0  0  0  0  0  0  0  0
   15.3829  -34.9372   13.5185 C   0  0  0  0  0  0  0  0  0  0  0  0
   12.8958  -34.6601   18.0926 C   0  0  2  0  0  0  0  0  0  0  0  0
   13.2092  -33.2633   17.7569 N   0  0  0  0  0  0  0  0  0  0  0  0
    9.9742  -40.1198   14.2617 C   0  0  2  0  0  0  0  0  0  0  0  0
    8.6134  -40.4160   14.1032 O   0  0  0  0  0  0  0  0  0  0  0  0
    6.2557  -42.2988   11.7815 C   0  0  1  0  0  0  0  0  0  0  0  0
    6.7703  -41.6867   10.5850 O   0  0  0  0  0  0  0  0  0  0  0  0
    5.2452  -47.9601   12.5261 C   0  0  1  0  0  0  0  0  0  0  0  0
    6.1857  -48.7929   11.8362 O   0  0  0  0  0  0  0  0  0  0  0  0
   14.3993  -35.3243   12.3664 C   0  0  2  0  0  0  0  0  0  0  0  0
   14.3546  -34.2908   11.3875 O   0  0  0  0  0  0  0  0  0  0  0  0
   12.4206  -35.4212   16.8235 C   0  0  2  0  0  0  0  0  0  0  0  0
   10.3821  -40.7814   15.5997 C   0  0  2  0  0  0  0  0  0  0  0  0
   10.9780  -39.7032   16.3069 O   0  0  0  0  0  0  0  0  0  0  0  0
    6.9289  -43.7660   11.8729 C   0  0  2  0  0  0  0  0  0  0  0  0
    6.3741  -44.3438   13.0696 O   0  0  0  0  0  0  0  0  0  0  0  0
    5.0638  -48.4992   13.9638 C   0  0  2  0  0  0  0  0  0  0  0  0
    3.8480  -49.2787   13.9394 O   0  0  0  0  0  0  0  0  0  0  0  0
   12.9787  -35.5581   12.9555 C   0  0  2  0  0  0  0  0  0  0  0  0
   13.0660  -36.6475   13.9530 O   0  0  0  0  0  0  0  0  0  0  0  0
   12.0384  -36.9041   17.1165 C   0  0  2  0  0  0  0  0  0  0  0  0
   11.5735  -37.4875   15.8758 O   0  0  0  0  0  0  0  0  0  0  0  0
   11.4089  -41.9021   15.4807 C   0  0  0  0  0  0  0  0  0  0  0  0
   11.2703  -42.4618   14.1659 O   0  0  0  0  0  0  0  0  0  0  0  0
    8.4098  -43.5236   12.0953 C   0  0  1  0  0  0  0  0  0  0  0  0
    8.9541  -42.5956   13.0569 O   0  0  0  0  0  0  0  0  0  0  0  0
    5.0376  -47.3587   14.9777 C   0  0  2  0  0  0  0  0  0  0  0  0
    6.1480  -46.4252   14.8734 O   0  0  0  0  0  0  0  0  0  0  0  0
   11.9951  -35.9680   11.9059 C   0  0  0  0  0  0  0  0  0  0  0  0
   10.9034  -36.5713   12.5463 O   0  0  0  0  0  0  0  0  0  0  0  0
   10.9297  -36.9665   18.2299 C   0  0  1  0  0  0  0  0  0  0  0  0
   10.6333  -38.3771   18.5157 O   0  0  0  0  0  0  0  0  0  0  0  0
    9.2365  -44.8483   12.2573 C   0  0  0  0  0  0  0  0  0  0  0  0
   10.7032  -44.6327   12.2988 N   0  0  0  0  0  0  0  0  0  0  0  0
    4.8798  -47.6115   16.4754 C   0  0  0  0  0  0  0  0  0  0  0  0
    3.6023  -48.2655   16.7486 O   0  0  0  0  0  0  0  0  0  0  0  0
  1  2  1  6  0  0  0
  1  8  1  0  0  0  0
  1 36  1  0  0  0  0
  3  4  1  1  0  0  0
  3 10  1  0  0  0  0
  3 47  1  0  0  0  0
  5 11  1  0  0  0  0
  5 30  1  0  0  0  0
  5 38  1  6  0  0  0
  6 21  1  1  0  0  0
  6 42  1  0  0  0  0
  7 15  1  0  0  0  0
  7 44  1  0  0  0  0
  7 32  1  1  0  0  0
  8  9  1  1  0  0  0
  8 17  1  0  0  0  0
 11 12  1  1  0  0  0
 11 20  1  0  0  0  0
 13  6  1  0  0  0  0
 13 14  1  1  0  0  0
 15 16  1  6  0  0  0
 15 24  1  0  0  0  0
 17 26  1  0  0  0  0
 18 10  1  0  0  0  0
 18 19  1  6  0  0  0
 20 21  1  1  0  0  0
 20 29  1  0  0  0  0
 22 13  1  0  0  0  0
 22 23  1  6  0  0  0
 24 25  1  1  0  0  0
 24 33  1  0  0  0  0
 26 27  1  6  0  0  0
 26 35  1  0  0  0  0
 28  2  1  6  0  0  0
 28 18  1  0  0  0  0
 29 30  1  0  0  0  0
 29 39  1  6  0  0  0
 31 22  1  0  0  0  0
 31 32  1  1  0  0  0
 31 41  1  0  0  0  0
 33 34  1  6  0  0  0
 33 43  1  0  0  0  0
 35 36  1  0  0  0  0
 35 45  1  6  0  0  0
 37 28  1  0  0  0  0
 37 38  1  6  0  0  0
 39 40  1  0  0  0  0
 41 42  1  0  0  0  0
 41 49  1  1  0  0  0
 43 44  1  0  0  0  0
 43 51  1  1  0  0  0
 45 46  1  0  0  0  0
 47 37  1  0  0  0  0
 47 48  1  1  0  0  0
 49 50  1  0  0  0  0
 51 52  1  0  0  0  0
M  END
>  <CHROM.1>
-158.98424342,170.91072759,-178.26066728,-70.49219944,126.60489828,134.82544781
-26.47420501,172.94699231,160.84397746,-145.08300978,172.50675368,-61.50527637
9.69191679,-40.60144361,14.50320201,-0.41897910,-0.93109582,-1.87723647

>  <Name>
2fd0_lig

>  <RI>
2.60878e+07

>  <Rbt.Current_Directory>
/home/itssahil/PROJECTS/Mol_Feturizer/New_Systems/rnas/2fd0

>  <Rbt.Executable>
rbdock ($Id: //depot/dev/client3/rdock/2013.1/src/exe/rbdock.cxx#4 $)

>  <Rbt.Library>
libRbt.so (2013.1, Build901 2013/11/27)

>  <Rbt.Parameter_File>
/export/apps/rDock/src/rDock_2013.1_src/data/scripts/dock_solv.prm

>  <Rbt.Receptor>
prm/blind_docking_80.prm

>  <SCORE>
1.51062

>  <SCORE.INTER>
-9.58216

>  <SCORE.INTER.CONST>
1

>  <SCORE.INTER.POLAR>
-0.153412

>  <SCORE.INTER.ROT>
12

>  <SCORE.INTER.SOLV>
21.0107

>  <SCORE.INTER.VDW>
-24.4803

>  <SCORE.INTER.norm>
-0.184272

>  <SCORE.INTRA>
5.93418

>  <SCORE.INTRA.DIHEDRAL>
2.82633

>  <SCORE.INTRA.DIHEDRAL.0>
23.9727

>  <SCORE.INTRA.POLAR>
0

>  <SCORE.INTRA.POLAR.0>
0

>  <SCORE.INTRA.REPUL>
0.0537741

>  <SCORE.INTRA.REPUL.0>
0

>  <SCORE.INTRA.SOLV>
-1.58094

>  <SCORE.INTRA.SOLV.lig_0>
-115.028

>  <SCORE.INTRA.VDW>
5.04261

>  <SCORE.INTRA.VDW.0>
-6.82393

>  <SCORE.INTRA.norm>
0.114119

>  <SCORE.RESTR>
5.15861

>  <SCORE.RESTR.CAVITY>
5.15861

>  <SCORE.RESTR.norm>
0.099204

>  <SCORE.SYSTEM>
0

>  <SCORE.SYSTEM.CONST>
0

>  <SCORE.SYSTEM.DIHEDRAL>
0

>  <SCORE.SYSTEM.SOLV>
0

>  <SCORE.SYSTEM.norm>
0

>  <SCORE.heavy>
52

>  <SCORE.norm>
0.0290504

>  <RMSD>
13.743

$$$$
2fd0_lig
 OpenBabel11021811433D
libRbt.so/2013.1/901 2013/11/27
 52 56  0  0  0  0  0  0  0  0999 V2000
    4.1927  -45.8344    9.5307 C   0  0  2  0  0  0  0  0  0  0  0  0
    3.6597  -46.5074   10.6796 O   0  0  0  0  0  0  0  0  0  0  0  0
    4.7170  -48.9147   14.1408 C   0  0  2  0  0  0  0  0  0  0  0  0
    5.4907  -49.7272   15.0938 N   0  0  0  0  0  0  0  0  0  0  0  0
    6.1966  -45.0536   11.9934 C   0  0  1  0  0  0  0  0  0  0  0  0
    9.2949  -41.9767   11.3218 C   0  0  1  0  0  0  0  0  0  0  0  0
    9.8098  -40.1052   15.8348 C   0  0  1  0  0  0  0  0  0  0  0  0
    3.2818  -44.5937    9.2108 C   0  0  2  0  0  0  0  0  0  0  0  0
    3.1758  -43.6908   10.3484 N   0  0  0  0  0  0  0  0  0  0  0  0
    4.7458  -49.5815   12.6960 C   0  0  0  0  0  0  0  0  0  0  0  0
    6.7715  -43.7017   12.3746 C   0  0  2  0  0  0  0  0  0  0  0  0
    6.2150  -42.6204   11.5749 O   0  0  0  0  0  0  0  0  0  0  0  0
   10.7805  -42.1344   11.8940 C   0  0  2  0  0  0  0  0  0  0  0  0
   10.7875  -43.0196   13.0906 N   0  0  0  0  0  0  0  0  0  0  0  0
   11.0007  -39.2509   16.3243 C   0  0  1  0  0  0  0  0  0  0  0  0
   11.0647  -38.0355   15.5378 O   0  0  0  0  0  0  0  0  0  0  0  0
    1.8634  -45.0675    8.7208 C   0  0  0  0  0  0  0  0  0  0  0  0
    3.8936  -48.7010   11.6627 C   0  0  2  0  0  0  0  0  0  0  0  0
    3.9062  -49.2947   10.3176 N   0  0  0  0  0  0  0  0  0  0  0  0
    8.2696  -43.9219   12.2493 C   0  0  2  0  0  0  0  0  0  0  0  0
    8.7924  -43.2663   11.1260 O   0  0  0  0  0  0  0  0  0  0  0  0
   11.3680  -40.6470   12.1253 C   0  0  1  0  0  0  0  0  0  0  0  0
   11.2969  -39.9418   10.8728 O   0  0  0  0  0  0  0  0  0  0  0  0
   11.0282  -38.8557   17.8256 C   0  0  1  0  0  0  0  0  0  0  0  0
   10.4032  -37.5724   17.9558 O   0  0  0  0  0  0  0  0  0  0  0  0
    2.0539  -46.0219    7.4970 C   0  0  2  0  0  0  0  0  0  0  0  0
    0.7888  -46.4596    7.0110 O   0  0  0  0  0  0  0  0  0  0  0  0
    4.4779  -47.2615   11.6172 C   0  0  2  0  0  0  0  0  0  0  0  0
    8.5300  -45.4268   12.0006 C   0  0  2  0  0  0  0  0  0  0  0  0
    7.2400  -45.9951   12.1745 O   0  0  0  0  0  0  0  0  0  0  0  0
   10.4763  -39.8041   13.1782 C   0  0  2  0  0  0  0  0  0  0  0  0
   10.5909  -40.5342   14.4141 O   0  0  0  0  0  0  0  0  0  0  0  0
   10.3462  -39.8426   18.8011 C   0  0  2  0  0  0  0  0  0  0  0  0
   11.2102  -39.9112   19.9566 O   0  0  0  0  0  0  0  0  0  0  0  0
    2.9101  -47.2479    7.9254 C   0  0  2  0  0  0  0  0  0  0  0  0
    4.2184  -46.7519    8.4069 O   0  0  0  0  0  0  0  0  0  0  0  0
    4.5251  -46.5845   13.0209 C   0  0  2  0  0  0  0  0  0  0  0  0
    5.1250  -45.2774   12.8541 O   0  0  0  0  0  0  0  0  0  0  0  0
    9.4831  -46.0903   12.9885 C   0  0  0  0  0  0  0  0  0  0  0  0
   10.7829  -45.5234   12.7646 O   0  0  0  0  0  0  0  0  0  0  0  0
    9.0465  -39.9137   12.6833 C   0  0  1  0  0  0  0  0  0  0  0  0
    8.4134  -41.1423   12.2691 O   0  0  0  0  0  0  0  0  0  0  0  0
   10.1086  -41.1953   18.1352 C   0  0  2  0  0  0  0  0  0  0  0  0
    9.4305  -41.1310   16.8501 O   0  0  0  0  0  0  0  0  0  0  0  0
    3.1598  -48.1849    6.7867 C   0  0  0  0  0  0  0  0  0  0  0  0
    1.9447  -48.8027    6.4587 O   0  0  0  0  0  0  0  0  0  0  0  0
    5.3528  -47.4715   14.0211 C   0  0  1  0  0  0  0  0  0  0  0  0
    5.3317  -46.8294   15.3428 O   0  0  0  0  0  0  0  0  0  0  0  0
    8.0119  -39.1868   13.6138 C   0  0  0  0  0  0  0  0  0  0  0  0
    8.3849  -37.7889   13.9399 N   0  0  0  0  0  0  0  0  0  0  0  0
    9.4387  -42.3529   18.8723 C   0  0  0  0  0  0  0  0  0  0  0  0
    9.8816  -42.3936   20.2639 O   0  0  0  0  0  0  0  0  0  0  0  0
  1  2  1  1  0  0  0
  1  8  1  0  0  0  0
  1 36  1  0  0  0  0
  3  4  1  1  0  0  0
  3 10  1  0  0  0  0
  3 47  1  0  0  0  0
  5 11  1  0  0  0  0
  5 30  1  0  0  0  0
  5 38  1  1  0  0  0
  6 21  1  1  0  0  0
  6 42  1  0  0  0  0
  7 15  1  0  0  0  0
  7 44  1  0  0  0  0
  7 32  1  6  0  0  0
  8  9  1  1  0  0  0
  8 17  1  0  0  0  0
 11 12  1  6  0  0  0
 11 20  1  0  0  0  0
 13  6  1  0  0  0  0
 13 14  1  1  0  0  0
 15 16  1  6  0  0  0
 15 24  1  0  0  0  0
 17 26  1  0  0  0  0
 18 10  1  0  0  0  0
 18 19  1  6  0  0  0
 20 21  1  6  0  0  0
 20 29  1  0  0  0  0
 22 13  1  0  0  0  0
 22 23  1  6  0  0  0
 24 25  1  6  0  0  0
 24 33  1  0  0  0  0
 26 27  1  1  0  0  0
 26 35  1  0  0  0  0
 28  2  1  6  0  0  0
 28 18  1  0  0  0  0
 29 30  1  0  0  0  0
 29 39  1  1  0  0  0
 31 22  1  0  0  0  0
 31 32  1  1  0  0  0
 31 41  1  0  0  0  0
 33 34  1  1  0  0  0
 33 43  1  0  0  0  0
 35 36  1  0  0  0  0
 35 45  1  6  0  0  0
 37 28  1  0  0  0  0
 37 38  1  6  0  0  0
 39 40  1  0  0  0  0
 41 42  1  0  0  0  0
 41 49  1  1  0  0  0
 43 44  1  0  0  0  0
 43 51  1  1  0  0  0
 45 46  1  0  0  0  0
 47 37  1  0  0  0  0
 47 48  1  1  0  0  0
 49 50  1  0  0  0  0
 51 52  1  0  0  0  0
M  END
>  <CHROM.1>
-150.79552916,-164.78505387,81.95585209,-91.69415274,92.98838774,-123.34690293
-67.52693719,-178.13202560,-69.36157682,-39.18547963,50.54348019,-38.51606025
7.19296295,-43.76938783,12.86698612,-3.00745262,0.95110369,2.15774014

>  <Name>
2fd0_lig

>  <RI>
2.60878e+07

>  <Rbt.Current_Directory>
/home/itssahil/PROJECTS/Mol_Feturizer/New_Systems/rnas/2fd0

>  <Rbt.Executable>
rbdock ($Id: //depot/dev/client3/rdock/2013.1/src/exe/rbdock.cxx#4 $)

>  <Rbt.Library>
libRbt.so (2013.1, Build901 2013/11/27)

>  <Rbt.Parameter_File>
/export/apps/rDock/src/rDock_2013.1_src/data/scripts/dock_solv.prm

>  <Rbt.Receptor>
prm/blind_docking_80.prm

>  <SCORE>
-4.9168

>  <SCORE.INTER>
-15.8785

>  <SCORE.INTER.CONST>
1

>  <SCORE.INTER.POLAR>
-1.67218

>  <SCORE.INTER.ROT>
12

>  <SCORE.INTER.SOLV>
24.1849

>  <SCORE.INTER.VDW>
-24.6734

>  <SCORE.INTER.norm>
-0.305356

>  <SCORE.INTRA>
6.54359

>  <SCORE.INTRA.DIHEDRAL>
3.55266

>  <SCORE.INTRA.DIHEDRAL.0>
23.9727

>  <SCORE.INTRA.POLAR>
0

>  <SCORE.INTRA.POLAR.0>
0

>  <SCORE.INTRA.REPUL>
0

>  <SCORE.INTRA.REPUL.0>
0

>  <SCORE.INTRA.SOLV>
5.9736

>  <SCORE.INTRA.SOLV.lig_0>
-115.028

>  <SCORE.INTRA.VDW>
1.78046

>  <SCORE.INTRA.VDW.0>
-6.82393

>  <SCORE.INTRA.norm>
0.125838

>  <SCORE.RESTR>
4.41812

>  <SCORE.RESTR.CAVITY>
4.41812

>  <SCORE.RESTR.norm>
0.0849638

>  <SCORE.SYSTEM>
0

>  <SCORE.SYSTEM.CONST>
0

>  <SCORE.SYSTEM.DIHEDRAL>
0

>  <SCORE.SYSTEM.SOLV>
0

>  <SCORE.SYSTEM.norm>
0

>  <SCORE.heavy>
52

>  <SCORE.norm>
-0.0945539

>  <RMSD>
13.761

$$$$
2fd0_lig
 OpenBabel11021811433D
libRbt.so/2013.1/901 2013/11/27
 52 56  0  0  0  0  0  0  0  0999 V2000
    5.3165  -47.1506   14.9024 C   0  0  2  0  0  0  0  0  0  0  0  0
    5.4429  -47.8224   13.6416 O   0  0  0  0  0  0  0  0  0  0  0  0
    4.2063  -47.1146    9.5352 C   0  0  2  0  0  0  0  0  0  0  0  0
    3.3642  -46.9011    8.3468 N   0  0  0  0  0  0  0  0  0  0  0  0
    5.5195  -44.1874   13.2070 C   0  0  1  0  0  0  0  0  0  0  0  0
    8.1816  -42.1126   13.5738 C   0  0  1  0  0  0  0  0  0  0  0  0
   10.4014  -38.6448   15.6226 C   0  0  1  0  0  0  0  0  0  0  0  0
    6.6303  -47.3920   15.7315 C   0  0  2  0  0  0  0  0  0  0  0  0
    7.8152  -46.9450   15.0126 N   0  0  0  0  0  0  0  0  0  0  0  0
    3.8487  -48.5047   10.2228 C   0  0  0  0  0  0  0  0  0  0  0  0
    6.1826  -43.7648   11.9088 C   0  0  2  0  0  0  0  0  0  0  0  0
    7.4102  -44.5028   11.6510 O   0  0  0  0  0  0  0  0  0  0  0  0
    8.0005  -40.7467   14.3867 C   0  0  2  0  0  0  0  0  0  0  0  0
    8.5939  -39.6085   13.6332 N   0  0  0  0  0  0  0  0  0  0  0  0
   11.3383  -38.0712   14.5358 C   0  0  1  0  0  0  0  0  0  0  0  0
   10.7634  -38.3318   13.2314 O   0  0  0  0  0  0  0  0  0  0  0  0
    6.7472  -48.9062   16.1439 C   0  0  0  0  0  0  0  0  0  0  0  0
    4.7745  -48.7402   11.5100 C   0  0  2  0  0  0  0  0  0  0  0  0
    4.4620  -50.0183   12.1662 N   0  0  0  0  0  0  0  0  0  0  0  0
    6.3298  -42.2618   12.0759 C   0  0  2  0  0  0  0  0  0  0  0  0
    7.6660  -41.8981   12.2924 O   0  0  0  0  0  0  0  0  0  0  0  0
    8.5965  -40.9859   15.8695 C   0  0  1  0  0  0  0  0  0  0  0  0
    7.9054  -42.1067   16.4503 O   0  0  0  0  0  0  0  0  0  0  0  0
   11.6862  -36.5601   14.6163 C   0  0  1  0  0  0  0  0  0  0  0  0
   10.7477  -35.8470   13.8009 O   0  0  0  0  0  0  0  0  0  0  0  0
    5.4498  -49.3121   16.9163 C   0  0  2  0  0  0  0  0  0  0  0  0
    5.5242  -50.6746   17.3242 O   0  0  0  0  0  0  0  0  0  0  0  0
    4.5710  -47.5642   12.5057 C   0  0  2  0  0  0  0  0  0  0  0  0
    5.5772  -41.8297   13.3570 C   0  0  2  0  0  0  0  0  0  0  0  0
    4.9105  -43.0241   13.7398 O   0  0  0  0  0  0  0  0  0  0  0  0
   10.1637  -41.3819   15.8321 C   0  0  2  0  0  0  0  0  0  0  0  0
   10.8135  -40.2300   15.2624 O   0  0  0  0  0  0  0  0  0  0  0  0
   11.6897  -35.9376   16.0316 C   0  0  2  0  0  0  0  0  0  0  0  0
   12.8344  -35.0574   16.0695 O   0  0  0  0  0  0  0  0  0  0  0  0
    4.2128  -49.1010   15.9971 C   0  0  2  0  0  0  0  0  0  0  0  0
    4.1631  -47.6735   15.6105 O   0  0  0  0  0  0  0  0  0  0  0  0
    4.8536  -46.1725   11.8621 C   0  0  2  0  0  0  0  0  0  0  0  0
    4.5882  -45.1655   12.8679 O   0  0  0  0  0  0  0  0  0  0  0  0
    4.5300  -40.7400   13.1556 C   0  0  0  0  0  0  0  0  0  0  0  0
    4.9863  -39.5810   13.8696 O   0  0  0  0  0  0  0  0  0  0  0  0
   10.2716  -42.5326   14.8494 C   0  0  1  0  0  0  0  0  0  0  0  0
    9.6550  -42.5584   13.5451 O   0  0  0  0  0  0  0  0  0  0  0  0
   11.7165  -37.0207   17.1067 C   0  0  2  0  0  0  0  0  0  0  0  0
   10.7009  -38.0512   16.9586 O   0  0  0  0  0  0  0  0  0  0  0  0
    2.9319  -49.4385   16.6915 C   0  0  0  0  0  0  0  0  0  0  0  0
    1.9062  -49.4353   15.7356 O   0  0  0  0  0  0  0  0  0  0  0  0
    3.9460  -45.9692   10.5942 C   0  0  1  0  0  0  0  0  0  0  0  0
    4.2762  -44.6728    9.9861 O   0  0  0  0  0  0  0  0  0  0  0  0
   11.7450  -43.0324   14.6409 C   0  0  0  0  0  0  0  0  0  0  0  0
   12.5914  -42.0857   13.8749 N   0  0  0  0  0  0  0  0  0  0  0  0
   11.7146  -36.6821   18.5958 C   0  0  0  0  0  0  0  0  0  0  0  0
   12.6280  -35.5745   18.8664 O   0  0  0  0  0  0  0  0  0  0  0  0
  1  2  1  6  0  0  0
  1  8  1  0  0  0  0
  1 36  1  0  0  0  0
  3  4  1  6  0  0  0
  3 10  1  0  0  0  0
  3 47  1  0  0  0  0
  5 11  1  0  0  0  0
  5 30  1  0  0  0  0
  5 38  1  6  0  0  0
  6 21  1  6  0  0  0
  6 42  1  0  0  0  0
  7 15  1  0  0  0  0
  7 44  1  0  0  0  0
  7 32  1  1  0  0  0
  8  9  1  6  0  0  0
  8 17  1  0  0  0  0
 11 12  1  1  0  0  0
 11 20  1  0  0  0  0
 13  6  1  0  0  0  0
 13 14  1  6  0  0  0
 15 16  1  6  0  0  0
 15 24  1  0  0  0  0
 17 26  1  0  0  0  0
 18 10  1  0  0  0  0
 18 19  1  1  0  0  0
 20 21  1  1  0  0  0
 20 29  1  0  0  0  0
 22 13  1  0  0  0  0
 22 23  1  6  0  0  0
 24 25  1  6  0  0  0
 24 33  1  0  0  0  0
 26 27  1  6  0  0  0
 26 35  1  0  0  0  0
 28  2  1  1  0  0  0
 28 18  1  0  0  0  0
 29 30  1  0  0  0  0
 29 39  1  6  0  0  0
 31 22  1  0  0  0  0
 31 32  1  6  0  0  0
 31 41  1  0  0  0  0
 33 34  1  6  0  0  0
 33 43  1  0  0  0  0
 35 36  1  0  0  0  0
 35 45  1  1  0  0  0
 37 28  1  0  0  0  0
 37 38  1  1  0  0  0
 39 40  1  0  0  0  0
 41 42  1  0  0  0  0
 41 49  1  6  0  0  0
 43 44  1  0  0  0  0
 43 51  1  1  0  0  0
 45 46  1  0  0  0  0
 47 37  1  0  0  0  0
 47 48  1  6  0  0  0
 49 50  1  0  0  0  0
 51 52  1  0  0  0  0
M  END
>  <CHROM.1>
-165.00954793,39.01688373,-93.98949436,-172.54849623,-77.37712281,-164.58790850
-114.44491371,39.90802417,-170.31823332,127.16187209,-71.49601349,-43.09214947
7.41224631,-43.21847600,14.17286519,-2.68129701,-0.93087056,-0.79829662

>  <Name>
2fd0_lig

>  <RI>
2.60878e+07

>  <Rbt.Current_Directory>
/home/itssahil/PROJECTS/Mol_Feturizer/New_Systems/rnas/2fd0

>  <Rbt.Executable>
rbdock ($Id: //depot/dev/client3/rdock/2013.1/src/exe/rbdock.cxx#4 $)

>  <Rbt.Library>
libRbt.so (2013.1, Build901 2013/11/27)

>  <Rbt.Parameter_File>
/export/apps/rDock/src/rDock_2013.1_src/data/scripts/dock_solv.prm

>  <Rbt.Receptor>
prm/blind_docking_80.prm

>  <SCORE>
-3.8622

>  <SCORE.INTER>
-12.7137

>  <SCORE.INTER.CONST>
1

>  <SCORE.INTER.POLAR>
-0.637451

>  <SCORE.INTER.ROT>
12

>  <SCORE.INTER.SOLV>
19.8215

>  <SCORE.INTER.VDW>
-24.5581

>  <SCORE.INTER.norm>
-0.244494

>  <SCORE.INTRA>
7.86849

>  <SCORE.INTRA.DIHEDRAL>
3.06685

>  <SCORE.INTRA.DIHEDRAL.0>
23.9727

>  <SCORE.INTRA.POLAR>
0

>  <SCORE.INTRA.POLAR.0>
0

>  <SCORE.INTRA.REPUL>
0

>  <SCORE.INTRA.REPUL.0>
0

>  <SCORE.INTRA.SOLV>
1.59662

>  <SCORE.INTRA.SOLV.lig_0>
-115.028

>  <SCORE.INTRA.VDW>
5.53676

>  <SCORE.INTRA.VDW.0>
-6.82393

>  <SCORE.INTRA.norm>
0.151317

>  <SCORE.RESTR>
0.983007

>  <SCORE.RESTR.CAVITY>
0.983007

>  <SCORE.RESTR.norm>
0.018904

>  <SCORE.SYSTEM>
0

>  <SCORE.SYSTEM.CONST>
0

>  <SCORE.SYSTEM.DIHEDRAL>
0

>  <SCORE.SYSTEM.SOLV>
0

>  <SCORE.SYSTEM.norm>
0

>  <SCORE.heavy>
52

>  <SCORE.norm>
-0.0742731

>  <RMSD>
13.772

$$$$
2fd0_lig
 OpenBabel11021811433D
libRbt.so/2013.1/901 2013/11/27
 52 56  0  0  0  0  0  0  0  0999 V2000
   12.1191  -35.6511   18.0752 C   0  0  2  0  0  0  0  0  0  0  0  0
   13.3288  -36.1669   17.5027 O   0  0  0  0  0  0  0  0  0  0  0  0
   13.2259  -34.7607   13.3912 C   0  0  2  0  0  0  0  0  0  0  0  0
   13.5477  -34.5886   11.9651 N   0  0  0  0  0  0  0  0  0  0  0  0
   10.7829  -38.2615   15.6289 C   0  0  1  0  0  0  0  0  0  0  0  0
    7.1323  -40.1468   13.5908 C   0  0  1  0  0  0  0  0  0  0  0  0
    7.1378  -45.2289   14.0996 C   0  0  1  0  0  0  0  0  0  0  0  0
   12.4794  -34.8882   19.4017 C   0  0  2  0  0  0  0  0  0  0  0  0
   13.4479  -33.8256   19.1705 N   0  0  0  0  0  0  0  0  0  0  0  0
   14.5010  -34.4393   14.2877 C   0  0  0  0  0  0  0  0  0  0  0  0
   10.1952  -38.3308   14.2312 C   0  0  2  0  0  0  0  0  0  0  0  0
    9.4990  -37.1066   13.8643 O   0  0  0  0  0  0  0  0  0  0  0  0
    6.0898  -40.7497   14.6438 C   0  0  2  0  0  0  0  0  0  0  0  0
    6.8065  -41.3567   15.7985 N   0  0  0  0  0  0  0  0  0  0  0  0
    5.7546  -45.8636   13.8324 C   0  0  1  0  0  0  0  0  0  0  0  0
    5.3233  -45.5101   12.4948 O   0  0  0  0  0  0  0  0  0  0  0  0
   12.9883  -35.8999   20.4944 C   0  0  0  0  0  0  0  0  0  0  0  0
   14.1452  -34.6166   15.8405 C   0  0  2  0  0  0  0  0  0  0  0  0
   15.3087  -34.3277   16.6917 N   0  0  0  0  0  0  0  0  0  0  0  0
    9.3483  -39.5913   14.2807 C   0  0  2  0  0  0  0  0  0  0  0  0
    7.9796  -39.2893   14.2983 O   0  0  0  0  0  0  0  0  0  0  0  0
    5.1074  -41.7445   13.8336 C   0  0  1  0  0  0  0  0  0  0  0  0
    4.4942  -40.9937   12.7699 O   0  0  0  0  0  0  0  0  0  0  0  0
    5.6324  -47.4037   13.9871 C   0  0  1  0  0  0  0  0  0  0  0  0
    5.8519  -47.9955   12.7003 O   0  0  0  0  0  0  0  0  0  0  0  0
   11.8984  -37.0027   20.6963 C   0  0  2  0  0  0  0  0  0  0  0  0
   12.3140  -37.9305   21.6936 O   0  0  0  0  0  0  0  0  0  0  0  0
   13.6500  -36.0691   16.0870 C   0  0  2  0  0  0  0  0  0  0  0  0
    9.6220  -40.3199   15.6182 C   0  0  2  0  0  0  0  0  0  0  0  0
   10.7015  -39.5726   16.1602 O   0  0  0  0  0  0  0  0  0  0  0  0
    5.9196  -42.9543   13.1330 C   0  0  2  0  0  0  0  0  0  0  0  0
    6.4987  -43.6839   14.2311 O   0  0  0  0  0  0  0  0  0  0  0  0
    6.5890  -48.0626   15.0075 C   0  0  2  0  0  0  0  0  0  0  0  0
    5.8000  -49.0546   15.7002 O   0  0  0  0  0  0  0  0  0  0  0  0
   11.6570  -37.7441   19.3503 C   0  0  2  0  0  0  0  0  0  0  0  0
   11.2119  -36.7499   18.3488 O   0  0  0  0  0  0  0  0  0  0  0  0
   12.4350  -36.4533   15.1886 C   0  0  2  0  0  0  0  0  0  0  0  0
   12.0986  -37.8316   15.4769 O   0  0  0  0  0  0  0  0  0  0  0  0
   10.0643  -41.7728   15.4846 C   0  0  0  0  0  0  0  0  0  0  0  0
   11.3614  -41.7628   14.8693 O   0  0  0  0  0  0  0  0  0  0  0  0
    7.0378  -42.2955   12.3475 C   0  0  1  0  0  0  0  0  0  0  0  0
    7.9038  -41.2623   12.8620 O   0  0  0  0  0  0  0  0  0  0  0  0
    7.2065  -47.0182   15.9336 C   0  0  2  0  0  0  0  0  0  0  0  0
    7.8173  -45.8866   15.2540 O   0  0  0  0  0  0  0  0  0  0  0  0
   10.5957  -38.7915   19.4677 C   0  0  0  0  0  0  0  0  0  0  0  0
    9.5574  -38.2710   20.2530 O   0  0  0  0  0  0  0  0  0  0  0  0
   12.8013  -36.2581   13.6719 C   0  0  1  0  0  0  0  0  0  0  0  0
   11.6189  -36.5791   12.8605 O   0  0  0  0  0  0  0  0  0  0  0  0
    7.9763  -43.3253   11.6242 C   0  0  0  0  0  0  0  0  0  0  0  0
    8.9823  -42.6923   10.7374 N   0  0  0  0  0  0  0  0  0  0  0  0
    8.1986  -47.3961   17.0311 C   0  0  0  0  0  0  0  0  0  0  0  0
    9.2270  -48.2885   16.5014 O   0  0  0  0  0  0  0  0  0  0  0  0
  1  2  1  1  0  0  0
  1  8  1  0  0  0  0
  1 36  1  0  0  0  0
  3  4  1  6  0  0  0
  3 10  1  0  0  0  0
  3 47  1  0  0  0  0
  5 11  1  0  0  0  0
  5 30  1  0  0  0  0
  5 38  1  6  0  0  0
  6 21  1  1  0  0  0
  6 42  1  0  0  0  0
  7 15  1  0  0  0  0
  7 44  1  0  0  0  0
  7 32  1  1  0  0  0
  8  9  1  6  0  0  0
  8 17  1  0  0  0  0
 11 12  1  1  0  0  0
 11 20  1  0  0  0  0
 13  6  1  0  0  0  0
 13 14  1  1  0  0  0
 15 16  1  6  0  0  0
 15 24  1  0  0  0  0
 17 26  1  0  0  0  0
 18 10  1  0  0  0  0
 18 19  1  1  0  0  0
 20 21  1  1  0  0  0
 20 29  1  0  0  0  0
 22 13  1  0  0  0  0
 22 23  1  6  0  0  0
 24 25  1  6  0  0  0
 24 33  1  0  0  0  0
 26 27  1  1  0  0  0
 26 35  1  0  0  0  0
 28  2  1  1  0  0  0
 28 18  1  0  0  0  0
 29 30  1  0  0  0  0
 29 39  1  6  0  0  0
 31 22  1  0  0  0  0
 31 32  1  1  0  0  0
 31 41  1  0  0  0  0
 33 34  1  1  0  0  0
 33 43  1  0  0  0  0
 35 36  1  0  0  0  0
 35 45  1  1  0  0  0
 37 28  1  0  0  0  0
 37 38  1  6  0  0  0
 39 40  1  0  0  0  0
 41 42  1  0  0  0  0
 41 49  1  1  0  0  0
 43 44  1  0  0  0  0
 43 51  1  6  0  0  0
 45 46  1  0  0  0  0
 47 37  1  0  0  0  0
 47 48  1  6  0  0  0
 49 50  1  0  0  0  0
 51 52  1  0  0  0  0
M  END
>  <CHROM.1>
-135.31523125,75.75979655,120.34245082,-67.82647364,143.22033565,78.29162192
67.00725194,164.91945493,41.19635245,136.92809476,173.78375935,47.48507048
9.64774529,-40.32247961,15.43643079,-0.18293212,1.01828822,2.06446540

>  <Name>
2fd0_lig

>  <RI>
2.85265e+07

>  <Rbt.Current_Directory>
/home/itssahil/PROJECTS/Mol_Feturizer/New_Systems/rnas/2fd0

>  <Rbt.Executable>
rbdock ($Id: //depot/dev/client3/rdock/2013.1/src/exe/rbdock.cxx#4 $)

>  <Rbt.Library>
libRbt.so (2013.1, Build901 2013/11/27)

>  <Rbt.Parameter_File>
/export/apps/rDock/src/rDock_2013.1_src/data/scripts/dock_solv.prm

>  <Rbt.Receptor>
prm/blind_docking_60.prm

>  <SCORE>
-4.64143

>  <SCORE.INTER>
-12.6678

>  <SCORE.INTER.CONST>
1

>  <SCORE.INTER.POLAR>
0

>  <SCORE.INTER.ROT>
12

>  <SCORE.INTER.SOLV>
24.0077

>  <SCORE.INTER.VDW>
-28.0478

>  <SCORE.INTER.norm>
-0.243611

>  <SCORE.INTRA>
7.82637

>  <SCORE.INTRA.DIHEDRAL>
7.55703

>  <SCORE.INTRA.DIHEDRAL.0>
23.9727

>  <SCORE.INTRA.POLAR>
0

>  <SCORE.INTRA.POLAR.0>
0

>  <SCORE.INTRA.REPUL>
0

>  <SCORE.INTRA.REPUL.0>
0

>  <SCORE.INTRA.SOLV>
1.39785

>  <SCORE.INTRA.SOLV.lig_0>
-115.028

>  <SCORE.INTRA.VDW>
3.34893

>  <SCORE.INTRA.VDW.0>
-6.82393

>  <SCORE.INTRA.norm>
0.150507

>  <SCORE.RESTR>
0.199993

>  <SCORE.RESTR.CAVITY>
0.199993

>  <SCORE.RESTR.norm>
0.00384601

>  <SCORE.SYSTEM>
0

>  <SCORE.SYSTEM.CONST>
0

>  <SCORE.SYSTEM.DIHEDRAL>
0

>  <SCORE.SYSTEM.SOLV>
0

>  <SCORE.SYSTEM.norm>
0

>  <SCORE.heavy>
52

>  <SCORE.norm>
-0.0892582

>  <RMSD>
13.794

$$$$
2fd0_lig
 OpenBabel11021811433D
libRbt.so/2013.1/901 2013/11/27
 52 56  0  0  0  0  0  0  0  0999 V2000
   11.9577  -35.7799   17.9943 C   0  0  2  0  0  0  0  0  0  0  0  0
   11.7731  -37.1944   18.1434 O   0  0  0  0  0  0  0  0  0  0  0  0
   12.4382  -39.6353   21.6778 C   0  0  2  0  0  0  0  0  0  0  0  0
   12.2500  -40.2717   22.9918 N   0  0  0  0  0  0  0  0  0  0  0  0
   10.5543  -40.3297   17.1704 C   0  0  1  0  0  0  0  0  0  0  0  0
    8.1462  -42.4249   14.0854 C   0  0  1  0  0  0  0  0  0  0  0  0
    7.9836  -47.1550   13.6962 C   0  0  1  0  0  0  0  0  0  0  0  0
   11.0262  -35.2738   16.8334 C   0  0  2  0  0  0  0  0  0  0  0  0
    9.6282  -35.5999   17.0783 N   0  0  0  0  0  0  0  0  0  0  0  0
   12.4181  -38.0506   21.8239 C   0  0  0  0  0  0  0  0  0  0  0  0
    9.2044  -40.8897   16.7607 C   0  0  2  0  0  0  0  0  0  0  0  0
    9.0386  -42.2786   17.1625 O   0  0  0  0  0  0  0  0  0  0  0  0
    7.9936  -43.7763   14.9278 C   0  0  2  0  0  0  0  0  0  0  0  0
    9.2368  -44.5898   14.8388 N   0  0  0  0  0  0  0  0  0  0  0  0
    6.4742  -47.4838   13.6578 C   0  0  1  0  0  0  0  0  0  0  0  0
    6.1344  -47.9893   12.3429 O   0  0  0  0  0  0  0  0  0  0  0  0
   11.5143  -35.8453   15.4508 C   0  0  0  0  0  0  0  0  0  0  0  0
   12.6342  -37.3599   20.3937 C   0  0  2  0  0  0  0  0  0  0  0  0
   12.6171  -35.8935   20.5005 N   0  0  0  0  0  0  0  0  0  0  0  0
    9.1629  -40.6175   15.2664 C   0  0  2  0  0  0  0  0  0  0  0  0
    9.3152  -41.7976   14.5256 O   0  0  0  0  0  0  0  0  0  0  0  0
    6.6448  -44.5090   14.4230 C   0  0  1  0  0  0  0  0  0  0  0  0
    5.5505  -43.5896   14.5914 O   0  0  0  0  0  0  0  0  0  0  0  0
    5.9333  -48.4853   14.7139 C   0  0  1  0  0  0  0  0  0  0  0  0
    5.9581  -49.7955   14.1333 O   0  0  0  0  0  0  0  0  0  0  0  0
   13.0140  -35.4503   15.2518 C   0  0  2  0  0  0  0  0  0  0  0  0
   13.4899  -35.9346   13.9999 O   0  0  0  0  0  0  0  0  0  0  0  0
   11.5185  -37.8382   19.4232 C   0  0  2  0  0  0  0  0  0  0  0  0
   10.3797  -39.7394   14.8888 C   0  0  2  0  0  0  0  0  0  0  0  0
   10.9285  -39.4122   16.1574 O   0  0  0  0  0  0  0  0  0  0  0  0
    6.7067  -44.8657   12.8472 C   0  0  2  0  0  0  0  0  0  0  0  0
    7.7993  -45.7964   12.7304 O   0  0  0  0  0  0  0  0  0  0  0  0
    6.6879  -48.5245   16.0629 C   0  0  2  0  0  0  0  0  0  0  0  0
    5.6674  -48.6299   17.0797 O   0  0  0  0  0  0  0  0  0  0  0  0
   13.8644  -36.0479   16.4092 C   0  0  2  0  0  0  0  0  0  0  0  0
   13.3494  -35.5081   17.6870 O   0  0  0  0  0  0  0  0  0  0  0  0
   11.4590  -39.3905   19.2899 C   0  0  2  0  0  0  0  0  0  0  0  0
   10.3608  -39.7098   18.4021 O   0  0  0  0  0  0  0  0  0  0  0  0
   10.0408  -38.4415   14.1642 C   0  0  0  0  0  0  0  0  0  0  0  0
    9.2807  -38.7962   12.9990 O   0  0  0  0  0  0  0  0  0  0  0  0
    7.0949  -43.5751   12.1506 C   0  0  1  0  0  0  0  0  0  0  0  0
    8.1667  -42.7056   12.5716 O   0  0  0  0  0  0  0  0  0  0  0  0
    7.5863  -47.3012   16.2242 C   0  0  2  0  0  0  0  0  0  0  0  0
    8.4745  -47.0454   15.1012 O   0  0  0  0  0  0  0  0  0  0  0  0
   15.3085  -35.6751   16.2965 C   0  0  0  0  0  0  0  0  0  0  0  0
   15.8286  -36.2951   15.1516 O   0  0  0  0  0  0  0  0  0  0  0  0
   11.2613  -40.0472   20.7050 C   0  0  1  0  0  0  0  0  0  0  0  0
   11.2621  -41.5081   20.5465 O   0  0  0  0  0  0  0  0  0  0  0  0
    7.2520  -43.7335   10.5967 C   0  0  0  0  0  0  0  0  0  0  0  0
    8.6320  -44.0693   10.1696 N   0  0  0  0  0  0  0  0  0  0  0  0
    8.4541  -47.0929   17.4633 C   0  0  0  0  0  0  0  0  0  0  0  0
    7.6440  -47.1980   18.6746 O   0  0  0  0  0  0  0  0  0  0  0  0
  1  2  1  6  0  0  0
  1  8  1  0  0  0  0
  1 36  1  0  0  0  0
  3  4  1  1  0  0  0
  3 10  1  0  0  0  0
  3 47  1  0  0  0  0
  5 11  1  0  0  0  0
  5 30  1  0  0  0  0
  5 38  1  1  0  0  0
  6 21  1  1  0  0  0
  6 42  1  0  0  0  0
  7 15  1  0  0  0  0
  7 44  1  0  0  0  0
  7 32  1  6  0  0  0
  8  9  1  1  0  0  0
  8 17  1  0  0  0  0
 11 12  1  6  0  0  0
 11 20  1  0  0  0  0
 13  6  1  0  0  0  0
 13 14  1  6  0  0  0
 15 16  1  6  0  0  0
 15 24  1  0  0  0  0
 17 26  1  0  0  0  0
 18 10  1  0  0  0  0
 18 19  1  1  0  0  0
 20 21  1  6  0  0  0
 20 29  1  0  0  0  0
 22 13  1  0  0  0  0
 22 23  1  6  0  0  0
 24 25  1  6  0  0  0
 24 33  1  0  0  0  0
 26 27  1  6  0  0  0
 26 35  1  0  0  0  0
 28  2  1  6  0  0  0
 28 18  1  0  0  0  0
 29 30  1  0  0  0  0
 29 39  1  1  0  0  0
 31 22  1  0  0  0  0
 31 32  1  1  0  0  0
 31 41  1  0  0  0  0
 33 34  1  1  0  0  0
 33 43  1  0  0  0  0
 35 36  1  0  0  0  0
 35 45  1  6  0  0  0
 37 28  1  0  0  0  0
 37 38  1  6  0  0  0
 39 40  1  0  0  0  0
 41 42  1  0  0  0  0
 41 49  1  6  0  0  0
 43 44  1  0  0  0  0
 43 51  1  1  0  0  0
 45 46  1  0  0  0  0
 47 37  1  0  0  0  0
 47 48  1  6  0  0  0
 49 50  1  0  0  0  0
 51 52  1  0  0  0  0
M  END
>  <CHROM.1>
-130.41873835,162.12822979,-109.87071423,40.39782583,95.96832876,-52.28473246
-56.10396421,49.68606694,-66.50792249,115.94891522,-91.33556084,-52.82024723
9.74337188,-41.51530594,16.09236716,0.04289199,-1.08109160,-1.17308862

>  <Name>
2fd0_lig

>  <RI>
2.85265e+07

>  <Rbt.Current_Directory>
/home/itssahil/PROJECTS/Mol_Feturizer/New_Systems/rnas/2fd0

>  <Rbt.Executable>
rbdock ($Id: //depot/dev/client3/rdock/2013.1/src/exe/rbdock.cxx#4 $)

>  <Rbt.Library>
libRbt.so (2013.1, Build901 2013/11/27)

>  <Rbt.Parameter_File>
/export/apps/rDock/src/rDock_2013.1_src/data/scripts/dock_solv.prm

>  <Rbt.Receptor>
prm/blind_docking_60.prm

>  <SCORE>
0.635713

>  <SCORE.INTER>
-12.5206

>  <SCORE.INTER.CONST>
1

>  <SCORE.INTER.POLAR>
-0.865687

>  <SCORE.INTER.ROT>
12

>  <SCORE.INTER.SOLV>
26.9598

>  <SCORE.INTER.VDW>
-26.048

>  <SCORE.INTER.norm>
-0.24078

>  <SCORE.INTRA>
13.0216

>  <SCORE.INTRA.DIHEDRAL>
9.1752

>  <SCORE.INTRA.DIHEDRAL.0>
23.9727

>  <SCORE.INTRA.POLAR>
0

>  <SCORE.INTRA.POLAR.0>
0

>  <SCORE.INTRA.REPUL>
0.879739

>  <SCORE.INTRA.REPUL.0>
0

>  <SCORE.INTRA.SOLV>
2.8362

>  <SCORE.INTRA.SOLV.lig_0>
-115.028

>  <SCORE.INTRA.VDW>
2.61717

>  <SCORE.INTRA.VDW.0>
-6.82393

>  <SCORE.INTRA.norm>
0.250415

>  <SCORE.RESTR>
0.134729

>  <SCORE.RESTR.CAVITY>
0.134729

>  <SCORE.RESTR.norm>
0.00259095

>  <SCORE.SYSTEM>
0

>  <SCORE.SYSTEM.CONST>
0

>  <SCORE.SYSTEM.DIHEDRAL>
0

>  <SCORE.SYSTEM.SOLV>
0

>  <SCORE.SYSTEM.norm>
0

>  <SCORE.heavy>
52

>  <SCORE.norm>
0.0122252

>  <RMSD>
13.799

$$$$
2fd0_lig
 OpenBabel11021811433D
libRbt.so/2013.1/901 2013/11/27
 52 56  0  0  0  0  0  0  0  0999 V2000
   11.9819  -35.8594   17.8217 C   0  0  2  0  0  0  0  0  0  0  0  0
   13.2044  -36.3615   17.2646 O   0  0  0  0  0  0  0  0  0  0  0  0
   13.3683  -34.4699   13.3546 C   0  0  2  0  0  0  0  0  0  0  0  0
   13.8079  -34.0982   11.9998 N   0  0  0  0  0  0  0  0  0  0  0  0
   11.0770  -38.3831   15.2487 C   0  0  1  0  0  0  0  0  0  0  0  0
    8.4545  -41.7786   14.0066 C   0  0  1  0  0  0  0  0  0  0  0  0
    6.8857  -46.5246   15.5749 C   0  0  1  0  0  0  0  0  0  0  0  0
   12.3349  -34.8081   18.9360 C   0  0  2  0  0  0  0  0  0  0  0  0
   13.1618  -33.7266   18.4190 N   0  0  0  0  0  0  0  0  0  0  0  0
   14.5179  -34.1636   14.4117 C   0  0  0  0  0  0  0  0  0  0  0  0
   10.8505  -39.5264   14.2765 C   0  0  2  0  0  0  0  0  0  0  0  0
   10.1155  -39.1062   13.0927 O   0  0  0  0  0  0  0  0  0  0  0  0
    7.0694  -42.3505   14.5667 C   0  0  2  0  0  0  0  0  0  0  0  0
    7.1811  -42.6584   16.0186 N   0  0  0  0  0  0  0  0  0  0  0  0
    8.1473  -47.3830   15.8183 C   0  0  1  0  0  0  0  0  0  0  0  0
    8.8556  -46.8648   16.9715 O   0  0  0  0  0  0  0  0  0  0  0  0
   13.0205  -35.5183   20.1616 C   0  0  0  0  0  0  0  0  0  0  0  0
   14.0329  -34.5587   15.8875 C   0  0  2  0  0  0  0  0  0  0  0  0
   15.0792  -34.2876   16.8843 N   0  0  0  0  0  0  0  0  0  0  0  0
   10.1781  -40.5795   15.1410 C   0  0  2  0  0  0  0  0  0  0  0  0
    8.8177  -40.7077   14.8283 O   0  0  0  0  0  0  0  0  0  0  0  0
    6.6436  -43.5910   13.6229 C   0  0  1  0  0  0  0  0  0  0  0  0
    6.5722  -43.1134   12.2672 O   0  0  0  0  0  0  0  0  0  0  0  0
    7.9458  -48.9091   16.0220 C   0  0  1  0  0  0  0  0  0  0  0  0
    7.8358  -49.1559   17.4296 O   0  0  0  0  0  0  0  0  0  0  0  0
   12.0760  -36.6569   20.6679 C   0  0  2  0  0  0  0  0  0  0  0  0
   12.6538  -37.3142   21.7914 O   0  0  0  0  0  0  0  0  0  0  0  0
   13.6491  -36.0647   15.9114 C   0  0  2  0  0  0  0  0  0  0  0  0
   10.2148  -40.1082   16.6144 C   0  0  2  0  0  0  0  0  0  0  0  0
   11.0345  -38.9501   16.5466 O   0  0  0  0  0  0  0  0  0  0  0  0
    7.7526  -44.7675   13.6376 C   0  0  2  0  0  0  0  0  0  0  0  0
    7.7766  -45.2239   15.0032 O   0  0  0  0  0  0  0  0  0  0  0  0
    6.7241  -49.5345   15.3101 C   0  0  2  0  0  0  0  0  0  0  0  0
    7.1822  -50.7997   14.7848 O   0  0  0  0  0  0  0  0  0  0  0  0
   11.8372  -37.6797   19.5205 C   0  0  2  0  0  0  0  0  0  0  0  0
   11.2225  -36.9614   18.3822 O   0  0  0  0  0  0  0  0  0  0  0  0
   12.5649  -36.4282   14.8515 C   0  0  2  0  0  0  0  0  0  0  0  0
   12.3279  -37.8536   14.9421 O   0  0  0  0  0  0  0  0  0  0  0  0
   10.8519  -41.0896   17.5918 C   0  0  0  0  0  0  0  0  0  0  0  0
   10.1067  -42.3137   17.5047 O   0  0  0  0  0  0  0  0  0  0  0  0
    9.0741  -44.0879   13.3321 C   0  0  1  0  0  0  0  0  0  0  0  0
    9.5363  -42.8731   13.9589 O   0  0  0  0  0  0  0  0  0  0  0  0
    6.1712  -48.5944   14.2424 C   0  0  2  0  0  0  0  0  0  0  0  0
    5.9099  -47.2389   14.7004 O   0  0  0  0  0  0  0  0  0  0  0  0
   10.9096  -38.7789   19.9309 C   0  0  0  0  0  0  0  0  0  0  0  0
    9.6405  -38.2205   20.1392 O   0  0  0  0  0  0  0  0  0  0  0  0
   13.0552  -36.0190   13.4146 C   0  0  1  0  0  0  0  0  0  0  0  0
   11.9894  -36.3283   12.4514 O   0  0  0  0  0  0  0  0  0  0  0  0
   10.2954  -45.0740   13.3477 C   0  0  0  0  0  0  0  0  0  0  0  0
   10.0446  -46.3428   12.6221 N   0  0  0  0  0  0  0  0  0  0  0  0
    4.9558  -48.9605   13.3934 C   0  0  0  0  0  0  0  0  0  0  0  0
    4.0804  -49.8725   14.1258 O   0  0  0  0  0  0  0  0  0  0  0  0
  1  2  1  1  0  0  0
  1  8  1  0  0  0  0
  1 36  1  0  0  0  0
  3  4  1  6  0  0  0
  3 10  1  0  0  0  0
  3 47  1  0  0  0  0
  5 11  1  0  0  0  0
  5 30  1  0  0  0  0
  5 38  1  6  0  0  0
  6 21  1  1  0  0  0
  6 42  1  0  0  0  0
  7 15  1  0  0  0  0
  7 44  1  0  0  0  0
  7 32  1  6  0  0  0
  8  9  1  6  0  0  0
  8 17  1  0  0  0  0
 11 12  1  6  0  0  0
 11 20  1  0  0  0  0
 13  6  1  0  0  0  0
 13 14  1  1  0  0  0
 15 16  1  1  0  0  0
 15 24  1  0  0  0  0
 17 26  1  0  0  0  0
 18 10  1  0  0  0  0
 18 19  1  1  0  0  0
 20 21  1  6  0  0  0
 20 29  1  0  0  0  0
 22 13  1  0  0  0  0
 22 23  1  6  0  0  0
 24 25  1  1  0  0  0
 24 33  1  0  0  0  0
 26 27  1  1  0  0  0
 26 35  1  0  0  0  0
 28  2  1  1  0  0  0
 28 18  1  0  0  0  0
 29 30  1  0  0  0  0
 29 39  1  1  0  0  0
 31 22  1  0  0  0  0
 31 32  1  1  0  0  0
 31 41  1  0  0  0  0
 33 34  1  6  0  0  0
 33 43  1  0  0  0  0
 35 36  1  0  0  0  0
 35 45  1  1  0  0  0
 37 28  1  0  0  0  0
 37 38  1  6  0  0  0
 39 40  1  0  0  0  0
 41 42  1  0  0  0  0
 41 49  1  1  0  0  0
 43 44  1  0  0  0  0
 43 51  1  1  0  0  0
 45 46  1  0  0  0  0
 47 37  1  0  0  0  0
 47 48  1  6  0  0  0
 49 50  1  0  0  0  0
 51 52  1  0  0  0  0
M  END
>  <CHROM.1>
-110.64653699,135.29079189,140.97233201,112.05367388,100.10760526,69.43110901
-58.36737852,94.48001546,66.67969804,119.98641125,45.48668094,27.97956065
10.05762833,-41.07456882,15.75847326,0.06731183,1.11390075,1.66809854

>  <Name>
2fd0_lig

>  <RI>
2.85265e+07

>  <Rbt.Current_Directory>
/home/itssahil/PROJECTS/Mol_Feturizer/New_Systems/rnas/2fd0

>  <Rbt.Executable>
rbdock ($Id: //depot/dev/client3/rdock/2013.1/src/exe/rbdock.cxx#4 $)

>  <Rbt.Library>
libRbt.so (2013.1, Build901 2013/11/27)

>  <Rbt.Parameter_File>
/export/apps/rDock/src/rDock_2013.1_src/data/scripts/dock_solv.prm

>  <Rbt.Receptor>
prm/blind_docking_60.prm

>  <SCORE>
3.01092

>  <SCORE.INTER>
-11.4095

>  <SCORE.INTER.CONST>
1

>  <SCORE.INTER.POLAR>
-0.598859

>  <SCORE.INTER.ROT>
12

>  <SCORE.INTER.SOLV>
29.8505

>  <SCORE.INTER.VDW>
-27.1603

>  <SCORE.INTER.norm>
-0.219413

>  <SCORE.INTRA>
13.6258

>  <SCORE.INTRA.DIHEDRAL>
22.948

>  <SCORE.INTRA.DIHEDRAL.0>
23.9727

>  <SCORE.INTRA.POLAR>
0

>  <SCORE.INTRA.POLAR.0>
0

>  <SCORE.INTRA.REPUL>
0

>  <SCORE.INTRA.REPUL.0>
0

>  <SCORE.INTRA.SOLV>
3.70395

>  <SCORE.INTRA.SOLV.lig_0>
-115.028

>  <SCORE.INTRA.VDW>
0.299823

>  <SCORE.INTRA.VDW.0>
-6.82393

>  <SCORE.INTRA.norm>
0.262034

>  <SCORE.RESTR>
0.7946

>  <SCORE.RESTR.CAVITY>
0.7946

>  <SCORE.RESTR.norm>
0.0152808

>  <SCORE.SYSTEM>
0

>  <SCORE.SYSTEM.CONST>
0

>  <SCORE.SYSTEM.DIHEDRAL>
0

>  <SCORE.SYSTEM.SOLV>
0

>  <SCORE.SYSTEM.norm>
0

>  <SCORE.heavy>
52

>  <SCORE.norm>
0.0579022

>  <RMSD>
13.812

$$$$
2fd0_lig
 OpenBabel11021811433D
libRbt.so/2013.1/901 2013/11/27
 52 56  0  0  0  0  0  0  0  0999 V2000
    5.6330  -50.0494   15.5996 C   0  0  2  0  0  0  0  0  0  0  0  0
    6.0546  -49.6112   14.3007 O   0  0  0  0  0  0  0  0  0  0  0  0
    4.0230  -48.2534   10.7061 C   0  0  2  0  0  0  0  0  0  0  0  0
    3.1645  -47.4798    9.7942 N   0  0  0  0  0  0  0  0  0  0  0  0
    6.7150  -46.2369   13.7679 C   0  0  1  0  0  0  0  0  0  0  0  0
    8.7341  -42.9929   15.9120 C   0  0  1  0  0  0  0  0  0  0  0  0
   10.2237  -38.0982   15.4094 C   0  0  1  0  0  0  0  0  0  0  0  0
    5.3979  -48.7839   16.5023 C   0  0  2  0  0  0  0  0  0  0  0  0
    4.4284  -47.8704   15.9139 N   0  0  0  0  0  0  0  0  0  0  0  0
    3.1611  -48.8473   11.9050 C   0  0  0  0  0  0  0  0  0  0  0  0
    8.0077  -45.5179   14.1076 C   0  0  2  0  0  0  0  0  0  0  0  0
    8.6058  -46.0109   15.3394 O   0  0  0  0  0  0  0  0  0  0  0  0
    8.3601  -41.5897   16.5832 C   0  0  2  0  0  0  0  0  0  0  0  0
    7.6191  -40.7312   15.6192 N   0  0  0  0  0  0  0  0  0  0  0  0
   11.2506  -37.8315   14.2859 C   0  0  1  0  0  0  0  0  0  0  0  0
   10.6016  -38.0056   13.0020 O   0  0  0  0  0  0  0  0  0  0  0  0
    6.7636  -48.0593   16.7959 C   0  0  0  0  0  0  0  0  0  0  0  0
    4.0959  -49.6983   12.8905 C   0  0  2  0  0  0  0  0  0  0  0  0
    3.3234  -50.2567   14.0100 N   0  0  0  0  0  0  0  0  0  0  0  0
    7.5943  -44.0558   14.1047 C   0  0  2  0  0  0  0  0  0  0  0  0
    7.5490  -43.5330   15.4045 O   0  0  0  0  0  0  0  0  0  0  0  0
    9.7262  -40.9574   17.1707 C   0  0  1  0  0  0  0  0  0  0  0  0
   10.2976  -41.9088   18.0870 O   0  0  0  0  0  0  0  0  0  0  0  0
   11.9647  -36.4528   14.2822 C   0  0  1  0  0  0  0  0  0  0  0  0
   11.2158  -35.5700   13.4371 O   0  0  0  0  0  0  0  0  0  0  0  0
    7.7481  -49.0939   17.4325 C   0  0  2  0  0  0  0  0  0  0  0  0
    8.9935  -48.4710   17.7309 O   0  0  0  0  0  0  0  0  0  0  0  0
    5.2332  -48.7857   13.4284 C   0  0  2  0  0  0  0  0  0  0  0  0
    6.1449  -43.9518   13.5729 C   0  0  2  0  0  0  0  0  0  0  0  0
    5.8795  -45.2789   13.1417 O   0  0  0  0  0  0  0  0  0  0  0  0
   10.8270  -40.7186   16.0108 C   0  0  2  0  0  0  0  0  0  0  0  0
   10.2213  -39.7521   15.1318 O   0  0  0  0  0  0  0  0  0  0  0  0
   12.1527  -35.7807   15.6619 C   0  0  2  0  0  0  0  0  0  0  0  0
   13.4807  -35.2128   15.6433 O   0  0  0  0  0  0  0  0  0  0  0  0
    7.9692  -50.2740   16.4434 C   0  0  2  0  0  0  0  0  0  0  0  0
    6.6570  -50.9023   16.1734 O   0  0  0  0  0  0  0  0  0  0  0  0
    6.0728  -48.1323   12.2886 C   0  0  2  0  0  0  0  0  0  0  0  0
    7.0624  -47.2783   12.9113 O   0  0  0  0  0  0  0  0  0  0  0  0
    5.9575  -43.0153   12.3845 C   0  0  0  0  0  0  0  0  0  0  0  0
    6.7469  -43.5405   11.3064 O   0  0  0  0  0  0  0  0  0  0  0  0
   10.9376  -42.0397   15.2734 C   0  0  1  0  0  0  0  0  0  0  0  0
    9.8137  -42.8268   14.8268 O   0  0  0  0  0  0  0  0  0  0  0  0
   11.9321  -36.7809   16.7935 C   0  0  2  0  0  0  0  0  0  0  0  0
   10.6894  -37.5319   16.7091 O   0  0  0  0  0  0  0  0  0  0  0  0
    8.8767  -51.3196   17.0093 C   0  0  0  0  0  0  0  0  0  0  0  0
   10.1636  -50.7715   17.1050 O   0  0  0  0  0  0  0  0  0  0  0  0
    5.1347  -47.3153   11.3268 C   0  0  1  0  0  0  0  0  0  0  0  0
    5.9513  -46.7586   10.2392 O   0  0  0  0  0  0  0  0  0  0  0  0
   11.9393  -41.9925   14.0656 C   0  0  0  0  0  0  0  0  0  0  0  0
   12.0495  -43.2777   13.3338 N   0  0  0  0  0  0  0  0  0  0  0  0
   12.0459  -36.3784   18.2621 C   0  0  0  0  0  0  0  0  0  0  0  0
   10.9706  -35.4568   18.6213 O   0  0  0  0  0  0  0  0  0  0  0  0
  1  2  1  6  0  0  0
  1  8  1  0  0  0  0
  1 36  1  0  0  0  0
  3  4  1  6  0  0  0
  3 10  1  0  0  0  0
  3 47  1  0  0  0  0
  5 11  1  0  0  0  0
  5 30  1  0  0  0  0
  5 38  1  6  0  0  0
  6 21  1  6  0  0  0
  6 42  1  0  0  0  0
  7 15  1  0  0  0  0
  7 44  1  0  0  0  0
  7 32  1  1  0  0  0
  8  9  1  6  0  0  0
  8 17  1  0  0  0  0
 11 12  1  1  0  0  0
 11 20  1  0  0  0  0
 13  6  1  0  0  0  0
 13 14  1  6  0  0  0
 15 16  1  6  0  0  0
 15 24  1  0  0  0  0
 17 26  1  0  0  0  0
 18 10  1  0  0  0  0
 18 19  1  1  0  0  0
 20 21  1  1  0  0  0
 20 29  1  0  0  0  0
 22 13  1  0  0  0  0
 22 23  1  1  0  0  0
 24 25  1  6  0  0  0
 24 33  1  0  0  0  0
 26 27  1  6  0  0  0
 26 35  1  0  0  0  0
 28  2  1  1  0  0  0
 28 18  1  0  0  0  0
 29 30  1  0  0  0  0
 29 39  1  6  0  0  0
 31 22  1  0  0  0  0
 31 32  1  6  0  0  0
 31 41  1  0  0  0  0
 33 34  1  6  0  0  0
 33 43  1  0  0  0  0
 35 36  1  0  0  0  0
 35 45  1  1  0  0  0
 37 28  1  0  0  0  0
 37 38  1  1  0  0  0
 39 40  1  0  0  0  0
 41 42  1  0  0  0  0
 41 49  1  6  0  0  0
 43 44  1  0  0  0  0
 43 51  1  1  0  0  0
 45 46  1  0  0  0  0
 47 37  1  0  0  0  0
 47 48  1  6  0  0  0
 49 50  1  0  0  0  0
 51 52  1  0  0  0  0
M  END
>  <CHROM.1>
-61.97770091,-175.21923678,133.90071568,107.71024998,88.23697014,-72.58780381
62.04638240,81.93405172,-68.29918372,-57.60525523,-179.71218181,67.13600546
8.23500435,-44.01922587,14.77367474,-2.33461435,-0.90009111,-0.50254925

>  <Name>
2fd0_lig

>  <RI>
2.60878e+07

>  <Rbt.Current_Directory>
/home/itssahil/PROJECTS/Mol_Feturizer/New_Systems/rnas/2fd0

>  <Rbt.Executable>
rbdock ($Id: //depot/dev/client3/rdock/2013.1/src/exe/rbdock.cxx#4 $)

>  <Rbt.Library>
libRbt.so (2013.1, Build901 2013/11/27)

>  <Rbt.Parameter_File>
/export/apps/rDock/src/rDock_2013.1_src/data/scripts/dock_solv.prm

>  <Rbt.Receptor>
prm/blind_docking_80.prm

>  <SCORE>
-15.8717

>  <SCORE.INTER>
-20.7785

>  <SCORE.INTER.CONST>
1

>  <SCORE.INTER.POLAR>
-1.12724

>  <SCORE.INTER.ROT>
12

>  <SCORE.INTER.SOLV>
17.2042

>  <SCORE.INTER.VDW>
-27.4295

>  <SCORE.INTER.norm>
-0.399586

>  <SCORE.INTRA>
1.13603

>  <SCORE.INTRA.DIHEDRAL>
-2.96123

>  <SCORE.INTRA.DIHEDRAL.0>
23.9727

>  <SCORE.INTRA.POLAR>
0

>  <SCORE.INTRA.POLAR.0>
0

>  <SCORE.INTRA.REPUL>
0

>  <SCORE.INTRA.REPUL.0>
0

>  <SCORE.INTRA.SOLV>
2.47487

>  <SCORE.INTRA.SOLV.lig_0>
-115.028

>  <SCORE.INTRA.VDW>
1.3792

>  <SCORE.INTRA.VDW.0>
-6.82393

>  <SCORE.INTRA.norm>
0.0218467

>  <SCORE.RESTR>
3.77075

>  <SCORE.RESTR.CAVITY>
3.77075

>  <SCORE.RESTR.norm>
0.0725144

>  <SCORE.SYSTEM>
0

>  <SCORE.SYSTEM.CONST>
0

>  <SCORE.SYSTEM.DIHEDRAL>
0

>  <SCORE.SYSTEM.SOLV>
0

>  <SCORE.SYSTEM.norm>
0

>  <SCORE.heavy>
52

>  <SCORE.norm>
-0.305225

>  <RMSD>
13.816

$$$$
2fd0_lig
 OpenBabel11021811433D
libRbt.so/2013.1/901 2013/11/27
 52 56  0  0  0  0  0  0  0  0999 V2000
    6.3307  -48.5095   17.8432 C   0  0  2  0  0  0  0  0  0  0  0  0
    5.8580  -47.6807   16.7724 O   0  0  0  0  0  0  0  0  0  0  0  0
    3.5998  -50.3089   14.1483 C   0  0  2  0  0  0  0  0  0  0  0  0
    2.5804  -50.8071   13.2105 N   0  0  0  0  0  0  0  0  0  0  0  0
    6.3129  -46.2331   14.5634 C   0  0  1  0  0  0  0  0  0  0  0  0
    8.8696  -42.8705   14.4210 C   0  0  1  0  0  0  0  0  0  0  0  0
   11.4731  -38.4357   15.7907 C   0  0  1  0  0  0  0  0  0  0  0  0
    7.8357  -48.1527   18.1246 C   0  0  2  0  0  0  0  0  0  0  0  0
    8.0096  -46.7405   18.4350 N   0  0  0  0  0  0  0  0  0  0  0  0
    2.9098  -49.7574   15.4722 C   0  0  0  0  0  0  0  0  0  0  0  0
    7.4201  -45.4624   13.8679 C   0  0  2  0  0  0  0  0  0  0  0  0
    8.7086  -45.6375   14.5217 O   0  0  0  0  0  0  0  0  0  0  0  0
    9.6441  -42.6585   15.8048 C   0  0  2  0  0  0  0  0  0  0  0  0
    8.9139  -41.6910   16.6685 N   0  0  0  0  0  0  0  0  0  0  0  0
   10.5696  -38.1584   17.0132 C   0  0  1  0  0  0  0  0  0  0  0  0
   10.9395  -39.0580   18.0874 O   0  0  0  0  0  0  0  0  0  0  0  0
    8.7380  -48.5883   16.9111 C   0  0  0  0  0  0  0  0  0  0  0  0
    4.0224  -49.2257   16.4963 C   0  0  2  0  0  0  0  0  0  0  0  0
    3.4101  -48.7075   17.7286 N   0  0  0  0  0  0  0  0  0  0  0  0
    6.8766  -44.0440   13.8327 C   0  0  2  0  0  0  0  0  0  0  0  0
    7.5520  -43.2132   14.7375 O   0  0  0  0  0  0  0  0  0  0  0  0
   11.1686  -42.2596   15.4474 C   0  0  1  0  0  0  0  0  0  0  0  0
   11.7194  -43.3037   14.6243 O   0  0  0  0  0  0  0  0  0  0  0  0
   10.5552  -36.7124   17.5787 C   0  0  1  0  0  0  0  0  0  0  0  0
   11.5327  -36.6375   18.6242 O   0  0  0  0  0  0  0  0  0  0  0  0
    8.5073  -50.1112   16.6422 C   0  0  2  0  0  0  0  0  0  0  0  0
    9.3220  -50.5501   15.5597 O   0  0  0  0  0  0  0  0  0  0  0  0
    4.8594  -48.1127   15.8063 C   0  0  2  0  0  0  0  0  0  0  0  0
    5.4071  -44.0643   14.3170 C   0  0  2  0  0  0  0  0  0  0  0  0
    5.1371  -45.4549   14.4222 O   0  0  0  0  0  0  0  0  0  0  0  0
   11.2470  -40.8991   14.5772 C   0  0  2  0  0  0  0  0  0  0  0  0
   10.7039  -39.8849   15.4432 O   0  0  0  0  0  0  0  0  0  0  0  0
   10.8281  -35.5814   16.5604 C   0  0  2  0  0  0  0  0  0  0  0  0
    9.9028  -34.5232   16.8929 O   0  0  0  0  0  0  0  0  0  0  0  0
    7.0076  -50.3567   16.3103 C   0  0  2  0  0  0  0  0  0  0  0  0
    6.1992  -49.9038   17.4640 O   0  0  0  0  0  0  0  0  0  0  0  0
    5.5108  -48.5870   14.4715 C   0  0  2  0  0  0  0  0  0  0  0  0
    6.2200  -47.4579   13.9075 O   0  0  0  0  0  0  0  0  0  0  0  0
    4.3991  -43.4522   13.3508 C   0  0  0  0  0  0  0  0  0  0  0  0
    4.8755  -42.1384   13.0220 O   0  0  0  0  0  0  0  0  0  0  0  0
   10.2944  -41.1019   13.4141 C   0  0  1  0  0  0  0  0  0  0  0  0
    8.9510  -41.6150   13.5334 O   0  0  0  0  0  0  0  0  0  0  0  0
   10.6868  -36.0880   15.1275 C   0  0  2  0  0  0  0  0  0  0  0  0
   11.4438  -37.2938   14.8304 O   0  0  0  0  0  0  0  0  0  0  0  0
    6.7128  -51.8044   16.0771 C   0  0  0  0  0  0  0  0  0  0  0  0
    6.1932  -51.9381   14.7818 O   0  0  0  0  0  0  0  0  0  0  0  0
    4.4039  -49.1174   13.4886 C   0  0  1  0  0  0  0  0  0  0  0  0
    5.0584  -49.6026   12.2657 O   0  0  0  0  0  0  0  0  0  0  0  0
   10.1974  -39.8527   12.4683 C   0  0  0  0  0  0  0  0  0  0  0  0
    9.4076  -40.0986   11.2374 N   0  0  0  0  0  0  0  0  0  0  0  0
   10.9132  -35.1782   13.9222 C   0  0  0  0  0  0  0  0  0  0  0  0
   12.3247  -34.8162   13.8166 O   0  0  0  0  0  0  0  0  0  0  0  0
  1  2  1  6  0  0  0
  1  8  1  0  0  0  0
  1 36  1  0  0  0  0
  3  4  1  6  0  0  0
  3 10  1  0  0  0  0
  3 47  1  0  0  0  0
  5 11  1  0  0  0  0
  5 30  1  0  0  0  0
  5 38  1  6  0  0  0
  6 21  1  1  0  0  0
  6 42  1  0  0  0  0
  7 15  1  0  0  0  0
  7 44  1  0  0  0  0
  7 32  1  6  0  0  0
  8  9  1  6  0  0  0
  8 17  1  0  0  0  0
 11 12  1  1  0  0  0
 11 20  1  0  0  0  0
 13  6  1  0  0  0  0
 13 14  1  6  0  0  0
 15 16  1  1  0  0  0
 15 24  1  0  0  0  0
 17 26  1  0  0  0  0
 18 10  1  0  0  0  0
 18 19  1  1  0  0  0
 20 21  1  1  0  0  0
 20 29  1  0  0  0  0
 22 13  1  0  0  0  0
 22 23  1  6  0  0  0
 24 25  1  1  0  0  0
 24 33  1  0  0  0  0
 26 27  1  6  0  0  0
 26 35  1  0  0  0  0
 28  2  1  1  0  0  0
 28 18  1  0  0  0  0
 29 30  1  0  0  0  0
 29 39  1  6  0  0  0
 31 22  1  0  0  0  0
 31 32  1  1  0  0  0
 31 41  1  0  0  0  0
 33 34  1  1  0  0  0
 33 43  1  0  0  0  0
 35 36  1  0  0  0  0
 35 45  1  1  0  0  0
 37 28  1  0  0  0  0
 37 38  1  6  0  0  0
 39 40  1  0  0  0  0
 41 42  1  0  0  0  0
 41 49  1  1  0  0  0
 43 44  1  0  0  0  0
 43 51  1  6  0  0  0
 45 46  1  0  0  0  0
 47 37  1  0  0  0  0
 47 48  1  6  0  0  0
 49 50  1  0  0  0  0
 51 52  1  0  0  0  0
M  END
>  <CHROM.1>
147.57740534,164.69947968,-149.88573452,-163.75738033,71.07892441,24.79148873
-52.81711962,128.33568344,-120.94880372,3.58430521,172.58930259,68.76616506
7.95331390,-44.08465034,15.26729385,-2.19132255,-0.80433903,-0.46986773

>  <Name>
2fd0_lig

>  <RI>
2.60878e+07

>  <Rbt.Current_Directory>
/home/itssahil/PROJECTS/Mol_Feturizer/New_Systems/rnas/2fd0

>  <Rbt.Executable>
rbdock ($Id: //depot/dev/client3/rdock/2013.1/src/exe/rbdock.cxx#4 $)

>  <Rbt.Library>
libRbt.so (2013.1, Build901 2013/11/27)

>  <Rbt.Parameter_File>
/export/apps/rDock/src/rDock_2013.1_src/data/scripts/dock_solv.prm

>  <Rbt.Receptor>
prm/blind_docking_80.prm

>  <SCORE>
4.37631

>  <SCORE.INTER>
-9.40218

>  <SCORE.INTER.CONST>
1

>  <SCORE.INTER.POLAR>
-0.648367

>  <SCORE.INTER.ROT>
12

>  <SCORE.INTER.SOLV>
28.2397

>  <SCORE.INTER.VDW>
-25.1201

>  <SCORE.INTER.norm>
-0.180811

>  <SCORE.INTRA>
11.8076

>  <SCORE.INTRA.DIHEDRAL>
12.3106

>  <SCORE.INTRA.DIHEDRAL.0>
23.9727

>  <SCORE.INTRA.POLAR>
0

>  <SCORE.INTRA.POLAR.0>
0

>  <SCORE.INTRA.REPUL>
0

>  <SCORE.INTRA.REPUL.0>
0

>  <SCORE.INTRA.SOLV>
-1.3411

>  <SCORE.INTRA.SOLV.lig_0>
-115.028

>  <SCORE.INTRA.VDW>
6.32288

>  <SCORE.INTRA.VDW.0>
-6.82393

>  <SCORE.INTRA.norm>
0.22707

>  <SCORE.RESTR>
1.97087

>  <SCORE.RESTR.CAVITY>
1.97087

>  <SCORE.RESTR.norm>
0.0379014

>  <SCORE.SYSTEM>
0

>  <SCORE.SYSTEM.CONST>
0

>  <SCORE.SYSTEM.DIHEDRAL>
0

>  <SCORE.SYSTEM.SOLV>
0

>  <SCORE.SYSTEM.norm>
0

>  <SCORE.heavy>
52

>  <SCORE.norm>
0.0841599

>  <RMSD>
13.831

$$$$
2fd0_lig
 OpenBabel11021811433D
libRbt.so/2013.1/901 2013/11/27
 52 56  0  0  0  0  0  0  0  0999 V2000
    6.0363  -48.6767   12.2006 C   0  0  2  0  0  0  0  0  0  0  0  0
    5.8979  -47.5969   11.2669 O   0  0  0  0  0  0  0  0  0  0  0  0
    2.9443  -45.1751    9.1925 C   0  0  2  0  0  0  0  0  0  0  0  0
    1.6700  -44.5353    8.8265 N   0  0  0  0  0  0  0  0  0  0  0  0
    5.6314  -43.7975   12.7364 C   0  0  1  0  0  0  0  0  0  0  0  0
    7.6793  -41.2572   12.9661 C   0  0  1  0  0  0  0  0  0  0  0  0
   11.3939  -38.3255   15.0498 C   0  0  1  0  0  0  0  0  0  0  0  0
    4.6343  -48.9539   12.8558 C   0  0  2  0  0  0  0  0  0  0  0  0
    3.6171  -49.2485   11.8562 N   0  0  0  0  0  0  0  0  0  0  0  0
    2.7882  -46.7590    9.1878 C   0  0  0  0  0  0  0  0  0  0  0  0
    6.2230  -43.2269   11.4605 C   0  0  2  0  0  0  0  0  0  0  0  0
    7.6454  -43.5092   11.3377 O   0  0  0  0  0  0  0  0  0  0  0  0
    7.7269  -39.9305   13.8588 C   0  0  2  0  0  0  0  0  0  0  0  0
    8.2314  -38.7812   13.0588 N   0  0  0  0  0  0  0  0  0  0  0  0
   10.3422  -37.3031   14.5635 C   0  0  1  0  0  0  0  0  0  0  0  0
    9.0884  -37.5551   15.2451 O   0  0  0  0  0  0  0  0  0  0  0  0
    4.2078  -47.7451   13.7687 C   0  0  0  0  0  0  0  0  0  0  0  0
    4.1797  -47.4536    9.5758 C   0  0  2  0  0  0  0  0  0  0  0  0
    4.0619  -48.9192    9.5814 N   0  0  0  0  0  0  0  0  0  0  0  0
    5.8375  -41.7590   11.5339 C   0  0  2  0  0  0  0  0  0  0  0  0
    6.9475  -40.9506   11.8154 O   0  0  0  0  0  0  0  0  0  0  0  0
    8.5736  -40.2762   15.1909 C   0  0  1  0  0  0  0  0  0  0  0  0
    7.9422  -41.3943   15.8406 O   0  0  0  0  0  0  0  0  0  0  0  0
   10.6826  -35.7965   14.7218 C   0  0  1  0  0  0  0  0  0  0  0  0
   10.1424  -35.3508   15.9723 O   0  0  0  0  0  0  0  0  0  0  0  0
    5.3381  -47.4931   14.8193 C   0  0  2  0  0  0  0  0  0  0  0  0
    4.9813  -46.4154   15.6791 O   0  0  0  0  0  0  0  0  0  0  0  0
    4.6287  -46.9481   10.9753 C   0  0  2  0  0  0  0  0  0  0  0  0
    4.8744  -41.5589   12.7284 C   0  0  2  0  0  0  0  0  0  0  0  0
    4.6207  -42.8926   13.1458 O   0  0  0  0  0  0  0  0  0  0  0  0
   10.0827  -40.7400   14.8419 C   0  0  2  0  0  0  0  0  0  0  0  0
   10.6775  -39.5896   14.2123 O   0  0  0  0  0  0  0  0  0  0  0  0
   12.1837  -35.4295   14.6691 C   0  0  2  0  0  0  0  0  0  0  0  0
   12.2631  -34.2163   13.8891 O   0  0  0  0  0  0  0  0  0  0  0  0
    6.6670  -47.1643   14.0807 C   0  0  2  0  0  0  0  0  0  0  0  0
    7.0097  -48.3130   13.2132 O   0  0  0  0  0  0  0  0  0  0  0  0
    4.7409  -45.3947   11.0486 C   0  0  2  0  0  0  0  0  0  0  0  0
    5.1195  -45.0487   12.4025 O   0  0  0  0  0  0  0  0  0  0  0  0
    3.5420  -40.9035   12.3822 C   0  0  0  0  0  0  0  0  0  0  0  0
    3.8177  -39.8703   11.4242 O   0  0  0  0  0  0  0  0  0  0  0  0
    9.9436  -41.8396   13.8061 C   0  0  1  0  0  0  0  0  0  0  0  0
    9.0953  -41.7670   12.6411 O   0  0  0  0  0  0  0  0  0  0  0  0
   13.0092  -36.5785   14.0965 C   0  0  2  0  0  0  0  0  0  0  0  0
   12.7774  -37.8685   14.7272 O   0  0  0  0  0  0  0  0  0  0  0  0
    7.8004  -46.9471   15.0322 C   0  0  0  0  0  0  0  0  0  0  0  0
    8.8831  -46.4305   14.3067 O   0  0  0  0  0  0  0  0  0  0  0  0
    3.3703  -44.7345   10.6504 C   0  0  1  0  0  0  0  0  0  0  0  0
    3.5289  -43.2739   10.6805 O   0  0  0  0  0  0  0  0  0  0  0  0
   11.3233  -42.3935   13.3022 C   0  0  0  0  0  0  0  0  0  0  0  0
   12.2157  -41.3487   12.7442 N   0  0  0  0  0  0  0  0  0  0  0  0
   14.5256  -36.4865   13.9424 C   0  0  0  0  0  0  0  0  0  0  0  0
   15.1631  -36.3656   15.2515 O   0  0  0  0  0  0  0  0  0  0  0  0
  1  2  1  6  0  0  0
  1  8  1  0  0  0  0
  1 36  1  0  0  0  0
  3  4  1  1  0  0  0
  3 10  1  0  0  0  0
  3 47  1  0  0  0  0
  5 11  1  0  0  0  0
  5 30  1  0  0  0  0
  5 38  1  6  0  0  0
  6 21  1  6  0  0  0
  6 42  1  0  0  0  0
  7 15  1  0  0  0  0
  7 44  1  0  0  0  0
  7 32  1  6  0  0  0
  8  9  1  6  0  0  0
  8 17  1  0  0  0  0
 11 12  1  1  0  0  0
 11 20  1  0  0  0  0
 13  6  1  0  0  0  0
 13 14  1  6  0  0  0
 15 16  1  1  0  0  0
 15 24  1  0  0  0  0
 17 26  1  0  0  0  0
 18 10  1  0  0  0  0
 18 19  1  1  0  0  0
 20 21  1  1  0  0  0
 20 29  1  0  0  0  0
 22 13  1  0  0  0  0
 22 23  1  6  0  0  0
 24 25  1  1  0  0  0
 24 33  1  0  0  0  0
 26 27  1  1  0  0  0
 26 35  1  0  0  0  0
 28  2  1  6  0  0  0
 28 18  1  0  0  0  0
 29 30  1  0  0  0  0
 29 39  1  6  0  0  0
 31 22  1  0  0  0  0
 31 32  1  6  0  0  0
 31 41  1  0  0  0  0
 33 34  1  6  0  0  0
 33 43  1  0  0  0  0
 35 36  1  0  0  0  0
 35 45  1  1  0  0  0
 37 28  1  0  0  0  0
 37 38  1  1  0  0  0
 39 40  1  0  0  0  0
 41 42  1  0  0  0  0
 41 49  1  6  0  0  0
 43 44  1  0  0  0  0
 43 51  1  1  0  0  0
 45 46  1  0  0  0  0
 47 37  1  0  0  0  0
 47 48  1  6  0  0  0
 49 50  1  0  0  0  0
 51 52  1  0  0  0  0
M  END
>  <CHROM.1>
-2.52208282,-23.48196427,-124.36526584,-115.53423915,-55.41326527,-105.29257577
-39.72853362,85.29675102,-169.73597897,163.36844994,-56.29952119,64.15999907
7.46644072,-42.49572860,12.99510910,-2.30003386,-0.50833256,-0.11656752

>  <Name>
2fd0_lig

>  <RI>
2.60878e+07

>  <Rbt.Current_Directory>
/home/itssahil/PROJECTS/Mol_Feturizer/New_Systems/rnas/2fd0

>  <Rbt.Executable>
rbdock ($Id: //depot/dev/client3/rdock/2013.1/src/exe/rbdock.cxx#4 $)

>  <Rbt.Library>
libRbt.so (2013.1, Build901 2013/11/27)

>  <Rbt.Parameter_File>
/export/apps/rDock/src/rDock_2013.1_src/data/scripts/dock_solv.prm

>  <Rbt.Receptor>
prm/blind_docking_80.prm

>  <SCORE>
12.1799

>  <SCORE.INTER>
-9.53118

>  <SCORE.INTER.CONST>
1

>  <SCORE.INTER.POLAR>
-1.49204

>  <SCORE.INTER.ROT>
12

>  <SCORE.INTER.SOLV>
21.4688

>  <SCORE.INTER.VDW>
-20.1369

>  <SCORE.INTER.norm>
-0.183292

>  <SCORE.INTRA>
20.2947

>  <SCORE.INTRA.DIHEDRAL>
15.5513

>  <SCORE.INTRA.DIHEDRAL.0>
23.9727

>  <SCORE.INTRA.POLAR>
0

>  <SCORE.INTRA.POLAR.0>
0

>  <SCORE.INTRA.REPUL>
0

>  <SCORE.INTRA.REPUL.0>
0

>  <SCORE.INTRA.SOLV>
7.86937

>  <SCORE.INTRA.SOLV.lig_0>
-115.028

>  <SCORE.INTRA.VDW>
8.58437

>  <SCORE.INTRA.VDW.0>
-6.82393

>  <SCORE.INTRA.norm>
0.390283

>  <SCORE.RESTR>
1.41636

>  <SCORE.RESTR.CAVITY>
1.41636

>  <SCORE.RESTR.norm>
0.0272378

>  <SCORE.SYSTEM>
0

>  <SCORE.SYSTEM.CONST>
0

>  <SCORE.SYSTEM.DIHEDRAL>
0

>  <SCORE.SYSTEM.SOLV>
0

>  <SCORE.SYSTEM.norm>
0

>  <SCORE.heavy>
52

>  <SCORE.norm>
0.234228

>  <RMSD>
13.834

$$$$
2fd0_lig
 OpenBabel11021811433D
libRbt.so/2013.1/901 2013/11/27
 52 56  0  0  0  0  0  0  0  0999 V2000
    5.9179  -47.8189   14.7639 C   0  0  2  0  0  0  0  0  0  0  0  0
    5.4470  -48.4424   13.5611 O   0  0  0  0  0  0  0  0  0  0  0  0
    4.2583  -46.0922   10.1034 C   0  0  2  0  0  0  0  0  0  0  0  0
    3.4315  -45.4393    9.0752 N   0  0  0  0  0  0  0  0  0  0  0  0
    4.9597  -44.6888   14.5912 C   0  0  1  0  0  0  0  0  0  0  0  0
    8.8290  -42.4858   14.5292 C   0  0  1  0  0  0  0  0  0  0  0  0
   11.8115  -38.1476   15.0414 C   0  0  1  0  0  0  0  0  0  0  0  0
    7.4723  -48.0329   14.8624 C   0  0  2  0  0  0  0  0  0  0  0  0
    8.1667  -47.5131   13.6927 N   0  0  0  0  0  0  0  0  0  0  0  0
    4.0142  -47.6649   10.0916 C   0  0  0  0  0  0  0  0  0  0  0  0
    6.3865  -44.6278   14.0773 C   0  0  2  0  0  0  0  0  0  0  0  0
    7.3183  -45.3223   14.9533 O   0  0  0  0  0  0  0  0  0  0  0  0
    9.5838  -41.8740   15.8002 C   0  0  2  0  0  0  0  0  0  0  0  0
    8.8988  -40.6385   16.2690 N   0  0  0  0  0  0  0  0  0  0  0  0
   10.6196  -37.3172   15.5680 C   0  0  1  0  0  0  0  0  0  0  0  0
   10.1566  -37.8936   16.8143 O   0  0  0  0  0  0  0  0  0  0  0  0
    7.8021  -49.5538   15.0960 C   0  0  0  0  0  0  0  0  0  0  0  0
    4.9236  -48.3748   11.2044 C   0  0  2  0  0  0  0  0  0  0  0  0
    4.7147  -49.8301   11.2162 N   0  0  0  0  0  0  0  0  0  0  0  0
    6.6207  -43.1370   13.9009 C   0  0  2  0  0  0  0  0  0  0  0  0
    7.4849  -42.6337   14.8832 O   0  0  0  0  0  0  0  0  0  0  0  0
   11.1389  -41.6977   15.3982 C   0  0  1  0  0  0  0  0  0  0  0  0
   11.6390  -42.9823   14.9849 O   0  0  0  0  0  0  0  0  0  0  0  0
   10.8508  -35.7987   15.7957 C   0  0  1  0  0  0  0  0  0  0  0  0
   11.2369  -35.6111   17.1631 O   0  0  0  0  0  0  0  0  0  0  0  0
    7.0331  -50.0391   16.3680 C   0  0  2  0  0  0  0  0  0  0  0  0
    7.3201  -51.4101   16.6250 O   0  0  0  0  0  0  0  0  0  0  0  0
    4.5851  -47.7747   12.5976 C   0  0  2  0  0  0  0  0  0  0  0  0
    5.2801  -42.3956   14.1190 C   0  0  2  0  0  0  0  0  0  0  0  0
    4.3503  -43.4646   14.2199 O   0  0  0  0  0  0  0  0  0  0  0  0
   11.3259  -40.7043   14.1362 C   0  0  2  0  0  0  0  0  0  0  0  0
   10.8306  -39.4342   14.6000 O   0  0  0  0  0  0  0  0  0  0  0  0
   11.9041  -35.1272   14.8845 C   0  0  2  0  0  0  0  0  0  0  0  0
   11.3453  -33.8469   14.5174 O   0  0  0  0  0  0  0  0  0  0  0  0
    5.5043  -49.8491   16.1522 C   0  0  2  0  0  0  0  0  0  0  0  0
    5.2477  -48.4129   15.9056 O   0  0  0  0  0  0  0  0  0  0  0  0
    4.7533  -46.2254   12.6447 C   0  0  2  0  0  0  0  0  0  0  0  0
    4.3686  -45.7855   13.9693 O   0  0  0  0  0  0  0  0  0  0  0  0
    4.8472  -41.4907   12.9709 C   0  0  0  0  0  0  0  0  0  0  0  0
    3.5961  -40.8979   13.3511 O   0  0  0  0  0  0  0  0  0  0  0  0
   10.3889  -41.2255   13.0629 C   0  0  1  0  0  0  0  0  0  0  0  0
    9.0125  -41.5973   13.2852 O   0  0  0  0  0  0  0  0  0  0  0  0
   12.2382  -36.0134   13.6875 C   0  0  2  0  0  0  0  0  0  0  0  0
   12.5912  -37.3837   14.0238 O   0  0  0  0  0  0  0  0  0  0  0  0
    4.7115  -50.2628   17.3511 C   0  0  0  0  0  0  0  0  0  0  0  0
    5.1386  -51.5423   17.7333 O   0  0  0  0  0  0  0  0  0  0  0  0
    3.8644  -45.5514   11.5364 C   0  0  1  0  0  0  0  0  0  0  0  0
    4.0880  -44.0996   11.5768 O   0  0  0  0  0  0  0  0  0  0  0  0
   10.3954  -40.3523   11.7583 C   0  0  0  0  0  0  0  0  0  0  0  0
    9.1980  -40.5483   10.9056 N   0  0  0  0  0  0  0  0  0  0  0  0
   13.2593  -35.5953   12.6318 C   0  0  0  0  0  0  0  0  0  0  0  0
   13.2066  -34.1510   12.4176 O   0  0  0  0  0  0  0  0  0  0  0  0
  1  2  1  6  0  0  0
  1  8  1  0  0  0  0
  1 36  1  0  0  0  0
  3  4  1  6  0  0  0
  3 10  1  0  0  0  0
  3 47  1  0  0  0  0
  5 11  1  0  0  0  0
  5 30  1  0  0  0  0
  5 38  1  6  0  0  0
  6 21  1  1  0  0  0
  6 42  1  0  0  0  0
  7 15  1  0  0  0  0
  7 44  1  0  0  0  0
  7 32  1  6  0  0  0
  8  9  1  6  0  0  0
  8 17  1  0  0  0  0
 11 12  1  1  0  0  0
 11 20  1  0  0  0  0
 13  6  1  0  0  0  0
 13 14  1  6  0  0  0
 15 16  1  1  0  0  0
 15 24  1  0  0  0  0
 17 26  1  0  0  0  0
 18 10  1  0  0  0  0
 18 19  1  1  0  0  0
 20 21  1  1  0  0  0
 20 29  1  0  0  0  0
 22 13  1  0  0  0  0
 22 23  1  6  0  0  0
 24 25  1  1  0  0  0
 24 33  1  0  0  0  0
 26 27  1  6  0  0  0
 26 35  1  0  0  0  0
 28  2  1  1  0  0  0
 28 18  1  0  0  0  0
 29 30  1  0  0  0  0
 29 39  1  6  0  0  0
 31 22  1  0  0  0  0
 31 32  1  1  0  0  0
 31 41  1  0  0  0  0
 33 34  1  6  0  0  0
 33 43  1  0  0  0  0
 35 36  1  0  0  0  0
 35 45  1  1  0  0  0
 37 28  1  0  0  0  0
 37 38  1  1  0  0  0
 39 40  1  0  0  0  0
 41 42  1  0  0  0  0
 41 49  1  6  0  0  0
 43 44  1  0  0  0  0
 43 51  1  1  0  0  0
 45 46  1  0  0  0  0
 47 37  1  0  0  0  0
 47 48  1  6  0  0  0
 49 50  1  0  0  0  0
 51 52  1  0  0  0  0
M  END
>  <CHROM.1>
-130.55164059,-30.76496497,178.85431612,-172.75701790,98.01036576,149.61205132
179.91628818,103.93920362,-50.11491370,147.69266545,-160.33618830,-35.05108380
7.78057121,-43.20951062,14.07656988,-2.28271851,-0.76300346,-0.50662122

>  <Name>
2fd0_lig

>  <RI>
2.60878e+07

>  <Rbt.Current_Directory>
/home/itssahil/PROJECTS/Mol_Feturizer/New_Systems/rnas/2fd0

>  <Rbt.Executable>
rbdock ($Id: //depot/dev/client3/rdock/2013.1/src/exe/rbdock.cxx#4 $)

>  <Rbt.Library>
libRbt.so (2013.1, Build901 2013/11/27)

>  <Rbt.Parameter_File>
/export/apps/rDock/src/rDock_2013.1_src/data/scripts/dock_solv.prm

>  <Rbt.Receptor>
prm/blind_docking_80.prm

>  <SCORE>
6.53551

>  <SCORE.INTER>
-4.90973

>  <SCORE.INTER.CONST>
1

>  <SCORE.INTER.POLAR>
-1.06733

>  <SCORE.INTER.ROT>
12

>  <SCORE.INTER.SOLV>
26.6224

>  <SCORE.INTER.VDW>
-20.1895

>  <SCORE.INTER.norm>
-0.0944179

>  <SCORE.INTRA>
9.64685

>  <SCORE.INTRA.DIHEDRAL>
9.30758

>  <SCORE.INTRA.DIHEDRAL.0>
23.9727

>  <SCORE.INTRA.POLAR>
0

>  <SCORE.INTRA.POLAR.0>
0

>  <SCORE.INTRA.REPUL>
0

>  <SCORE.INTRA.REPUL.0>
0

>  <SCORE.INTRA.SOLV>
0.557646

>  <SCORE.INTRA.SOLV.lig_0>
-115.028

>  <SCORE.INTRA.VDW>
4.71423

>  <SCORE.INTRA.VDW.0>
-6.82393

>  <SCORE.INTRA.norm>
0.185516

>  <SCORE.RESTR>
1.79839

>  <SCORE.RESTR.CAVITY>
1.79839

>  <SCORE.RESTR.norm>
0.0345845

>  <SCORE.SYSTEM>
0

>  <SCORE.SYSTEM.CONST>
0

>  <SCORE.SYSTEM.DIHEDRAL>
0

>  <SCORE.SYSTEM.SOLV>
0

>  <SCORE.SYSTEM.norm>
0

>  <SCORE.heavy>
52

>  <SCORE.norm>
0.125683

>  <RMSD>
13.839

$$$$
2fd0_lig
 OpenBabel11021811433D
libRbt.so/2013.1/901 2013/11/27
 52 56  0  0  0  0  0  0  0  0999 V2000
   11.7776  -35.7012   17.5484 C   0  0  2  0  0  0  0  0  0  0  0  0
   11.4880  -36.9510   18.1896 O   0  0  0  0  0  0  0  0  0  0  0  0
   13.4578  -38.4319   21.7700 C   0  0  2  0  0  0  0  0  0  0  0  0
   13.7863  -38.6773   23.1838 N   0  0  0  0  0  0  0  0  0  0  0  0
    9.9193  -39.6376   18.3971 C   0  0  1  0  0  0  0  0  0  0  0  0
   10.7142  -42.1295   14.7213 C   0  0  1  0  0  0  0  0  0  0  0  0
    6.6508  -43.4646   12.1205 C   0  0  1  0  0  0  0  0  0  0  0  0
   10.6258  -35.3849   16.5263 C   0  0  2  0  0  0  0  0  0  0  0  0
    9.3206  -35.3561   17.1717 N   0  0  0  0  0  0  0  0  0  0  0  0
   13.4882  -36.8714   21.4589 C   0  0  0  0  0  0  0  0  0  0  0  0
   11.2106  -39.9190   17.6508 C   0  0  2  0  0  0  0  0  0  0  0  0
   11.6243  -38.7966   16.8219 O   0  0  0  0  0  0  0  0  0  0  0  0
   10.7046  -41.6117   13.2077 C   0  0  2  0  0  0  0  0  0  0  0  0
    9.6030  -40.6329   12.9981 N   0  0  0  0  0  0  0  0  0  0  0  0
    6.2105  -42.2506   11.2720 C   0  0  1  0  0  0  0  0  0  0  0  0
    6.7001  -42.4182    9.9184 O   0  0  0  0  0  0  0  0  0  0  0  0
   10.6535  -36.4123   15.3346 C   0  0  0  0  0  0  0  0  0  0  0  0
   13.1411  -36.6074   19.9164 C   0  0  2  0  0  0  0  0  0  0  0  0
   13.1599  -35.1710   19.6028 N   0  0  0  0  0  0  0  0  0  0  0  0
   10.9038  -41.2136   16.9169 C   0  0  2  0  0  0  0  0  0  0  0  0
   10.7433  -40.9978   15.5412 O   0  0  0  0  0  0  0  0  0  0  0  0
   10.6687  -42.9148   12.2530 C   0  0  1  0  0  0  0  0  0  0  0  0
   11.8032  -43.7371   12.5812 O   0  0  0  0  0  0  0  0  0  0  0  0
    4.6905  -41.9416   11.2001 C   0  0  1  0  0  0  0  0  0  0  0  0
    4.1604  -42.6003   10.0428 O   0  0  0  0  0  0  0  0  0  0  0  0
   12.0759  -36.3824   14.6861 C   0  0  2  0  0  0  0  0  0  0  0  0
   12.1370  -37.2880   13.5887 O   0  0  0  0  0  0  0  0  0  0  0  0
   11.7421  -37.2056   19.5995 C   0  0  2  0  0  0  0  0  0  0  0  0
    9.5374  -41.7493   17.4073 C   0  0  2  0  0  0  0  0  0  0  0  0
    9.2320  -40.8738   18.4833 O   0  0  0  0  0  0  0  0  0  0  0  0
    9.3544  -43.8189   12.5169 C   0  0  2  0  0  0  0  0  0  0  0  0
    8.2512  -42.9648   12.1603 O   0  0  0  0  0  0  0  0  0  0  0  0
    3.8541  -42.3528   12.4337 C   0  0  2  0  0  0  0  0  0  0  0  0
    2.9247  -41.2696   12.6555 O   0  0  0  0  0  0  0  0  0  0  0  0
   13.1393  -36.7703   15.7531 C   0  0  2  0  0  0  0  0  0  0  0  0
   13.0539  -35.7977   16.8650 O   0  0  0  0  0  0  0  0  0  0  0  0
   11.6428  -38.7234   19.9420 C   0  0  2  0  0  0  0  0  0  0  0  0
   10.2908  -39.1490   19.6470 O   0  0  0  0  0  0  0  0  0  0  0  0
    9.5564  -43.1770   17.9418 C   0  0  0  0  0  0  0  0  0  0  0  0
    9.8435  -43.0967   19.3462 O   0  0  0  0  0  0  0  0  0  0  0  0
    9.3161  -44.0575   14.0146 C   0  0  1  0  0  0  0  0  0  0  0  0
    9.5026  -43.0334   15.0138 O   0  0  0  0  0  0  0  0  0  0  0  0
    4.7523  -42.6420   13.6334 C   0  0  2  0  0  0  0  0  0  0  0  0
    5.8411  -43.5695   13.3697 O   0  0  0  0  0  0  0  0  0  0  0  0
   14.5297  -36.7257   15.2036 C   0  0  0  0  0  0  0  0  0  0  0  0
   15.4125  -37.1017   16.2258 O   0  0  0  0  0  0  0  0  0  0  0  0
   12.0010  -38.9606   21.4546 C   0  0  1  0  0  0  0  0  0  0  0  0
   11.9475  -40.4037   21.7268 O   0  0  0  0  0  0  0  0  0  0  0  0
    8.0682  -44.8902   14.4770 C   0  0  0  0  0  0  0  0  0  0  0  0
    8.2440  -46.3556   14.3316 N   0  0  0  0  0  0  0  0  0  0  0  0
    4.1846  -43.0799   14.9817 C   0  0  0  0  0  0  0  0  0  0  0  0
    3.5552  -44.3932   14.8658 O   0  0  0  0  0  0  0  0  0  0  0  0
  1  2  1  6  0  0  0
  1  8  1  0  0  0  0
  1 36  1  0  0  0  0
  3  4  1  1  0  0  0
  3 10  1  0  0  0  0
  3 47  1  0  0  0  0
  5 11  1  0  0  0  0
  5 30  1  0  0  0  0
  5 38  1  1  0  0  0
  6 21  1  1  0  0  0
  6 42  1  0  0  0  0
  7 15  1  0  0  0  0
  7 44  1  0  0  0  0
  7 32  1  1  0  0  0
  8  9  1  1  0  0  0
  8 17  1  0  0  0  0
 11 12  1  6  0  0  0
 11 20  1  0  0  0  0
 13  6  1  0  0  0  0
 13 14  1  1  0  0  0
 15 16  1  6  0  0  0
 15 24  1  0  0  0  0
 17 26  1  0  0  0  0
 18 10  1  0  0  0  0
 18 19  1  1  0  0  0
 20 21  1  6  0  0  0
 20 29  1  0  0  0  0
 22 13  1  0  0  0  0
 22 23  1  1  0  0  0
 24 25  1  6  0  0  0
 24 33  1  0  0  0  0
 26 27  1  6  0  0  0
 26 35  1  0  0  0  0
 28  2  1  6  0  0  0
 28 18  1  0  0  0  0
 29 30  1  0  0  0  0
 29 39  1  1  0  0  0
 31 22  1  0  0  0  0
 31 32  1  1  0  0  0
 31 41  1  0  0  0  0
 33 34  1  1  0  0  0
 33 43  1  0  0  0  0
 35 36  1  0  0  0  0
 35 45  1  6  0  0  0
 37 28  1  0  0  0  0
 37 38  1  1  0  0  0
 39 40  1  0  0  0  0
 41 42  1  0  0  0  0
 41 49  1  1  0  0  0
 43 44  1  0  0  0  0
 43 51  1  1  0  0  0
 45 46  1  0  0  0  0
 47 37  1  0  0  0  0
 47 48  1  6  0  0  0
 49 50  1  0  0  0  0
 51 52  1  0  0  0  0
M  END
>  <CHROM.1>
-141.33603670,13.29245525,-173.22947558,-163.15103643,168.02155363,-43.06739664
89.32403698,174.33636716,-179.37040258,90.02493723,83.00995147,65.49910654
9.80540552,-40.32950014,15.91184062,-0.34070001,-0.88910868,-1.15760408

>  <Name>
2fd0_lig

>  <RI>
2.85265e+07

>  <Rbt.Current_Directory>
/home/itssahil/PROJECTS/Mol_Feturizer/New_Systems/rnas/2fd0

>  <Rbt.Executable>
rbdock ($Id: //depot/dev/client3/rdock/2013.1/src/exe/rbdock.cxx#4 $)

>  <Rbt.Library>
libRbt.so (2013.1, Build901 2013/11/27)

>  <Rbt.Parameter_File>
/export/apps/rDock/src/rDock_2013.1_src/data/scripts/dock_solv.prm

>  <Rbt.Receptor>
prm/blind_docking_60.prm

>  <SCORE>
-6.79862

>  <SCORE.INTER>
-16.9684

>  <SCORE.INTER.CONST>
1

>  <SCORE.INTER.POLAR>
-2.05719

>  <SCORE.INTER.ROT>
12

>  <SCORE.INTER.SOLV>
27.5928

>  <SCORE.INTER.VDW>
-25.2526

>  <SCORE.INTER.norm>
-0.326315

>  <SCORE.INTRA>
9.1518

>  <SCORE.INTRA.DIHEDRAL>
0.0201093

>  <SCORE.INTRA.DIHEDRAL.0>
23.9727

>  <SCORE.INTRA.POLAR>
0

>  <SCORE.INTRA.POLAR.0>
0

>  <SCORE.INTRA.REPUL>
0.0138624

>  <SCORE.INTRA.REPUL.0>
0

>  <SCORE.INTRA.SOLV>
-0.296723

>  <SCORE.INTRA.SOLV.lig_0>
-115.028

>  <SCORE.INTRA.VDW>
9.2208

>  <SCORE.INTRA.VDW.0>
-6.82393

>  <SCORE.INTRA.norm>
0.175996

>  <SCORE.RESTR>
1.01795

>  <SCORE.RESTR.CAVITY>
1.01795

>  <SCORE.RESTR.norm>
0.019576

>  <SCORE.SYSTEM>
0

>  <SCORE.SYSTEM.CONST>
0

>  <SCORE.SYSTEM.DIHEDRAL>
0

>  <SCORE.SYSTEM.SOLV>
0

>  <SCORE.SYSTEM.norm>
0

>  <SCORE.heavy>
52

>  <SCORE.norm>
-0.130743

>  <RMSD>
13.849

$$$$
2fd0_lig
 OpenBabel11021811433D
libRbt.so/2013.1/901 2013/11/27
 52 56  0  0  0  0  0  0  0  0999 V2000
    5.6749  -47.1487   15.9968 C   0  0  2  0  0  0  0  0  0  0  0  0
    6.0393  -47.5955   14.6835 O   0  0  0  0  0  0  0  0  0  0  0  0
    4.7254  -47.4931   10.5416 C   0  0  2  0  0  0  0  0  0  0  0  0
    3.8611  -47.4788    9.3500 N   0  0  0  0  0  0  0  0  0  0  0  0
    5.8689  -43.9929   13.6867 C   0  0  1  0  0  0  0  0  0  0  0  0
    8.3670  -41.8097   13.4523 C   0  0  1  0  0  0  0  0  0  0  0  0
   10.6446  -38.0585   15.3955 C   0  0  1  0  0  0  0  0  0  0  0  0
    6.7986  -47.5888   17.0043 C   0  0  2  0  0  0  0  0  0  0  0  0
    8.1055  -47.0763   16.6171 N   0  0  0  0  0  0  0  0  0  0  0  0
    4.4469  -48.7973   11.4102 C   0  0  0  0  0  0  0  0  0  0  0  0
    6.4001  -43.7305   12.2894 C   0  0  2  0  0  0  0  0  0  0  0  0
    7.6890  -44.3667   12.0609 O   0  0  0  0  0  0  0  0  0  0  0  0
    8.1237  -40.4638   14.2822 C   0  0  2  0  0  0  0  0  0  0  0  0
    8.4745  -39.2735   13.4604 N   0  0  0  0  0  0  0  0  0  0  0  0
   11.3760  -37.3741   14.2188 C   0  0  1  0  0  0  0  0  0  0  0  0
   10.5600  -37.4861   13.0266 O   0  0  0  0  0  0  0  0  0  0  0  0
    6.8182  -49.1554   17.1528 C   0  0  0  0  0  0  0  0  0  0  0  0
    5.3968  -48.8161   12.7012 C   0  0  2  0  0  0  0  0  0  0  0  0
    5.1572  -50.0113   13.5233 N   0  0  0  0  0  0  0  0  0  0  0  0
    6.3783  -42.2141   12.1967 C   0  0  2  0  0  0  0  0  0  0  0  0
    7.6727  -41.6784   12.2463 O   0  0  0  0  0  0  0  0  0  0  0  0
    8.9254  -40.6067   15.6778 C   0  0  1  0  0  0  0  0  0  0  0  0
    8.4547  -41.7942   16.3407 O   0  0  0  0  0  0  0  0  0  0  0  0
   11.7727  -35.8831   14.3933 C   0  0  1  0  0  0  0  0  0  0  0  0
   10.7171  -35.0791   13.8515 O   0  0  0  0  0  0  0  0  0  0  0  0
    5.3909  -49.6319   17.5776 C   0  0  2  0  0  0  0  0  0  0  0  0
    5.3712  -51.0465   17.7409 O   0  0  0  0  0  0  0  0  0  0  0  0
    5.1436  -47.5316   13.5387 C   0  0  2  0  0  0  0  0  0  0  0  0
    5.6565  -41.6518   13.4446 C   0  0  2  0  0  0  0  0  0  0  0  0
    5.1592  -42.8272   14.0680 O   0  0  0  0  0  0  0  0  0  0  0  0
   10.5121  -40.8102   15.4428 C   0  0  2  0  0  0  0  0  0  0  0  0
   10.9399  -39.5967   14.7963 O   0  0  0  0  0  0  0  0  0  0  0  0
   12.0580  -35.4203   15.8407 C   0  0  2  0  0  0  0  0  0  0  0  0
   13.2123  -34.5562   15.7553 O   0  0  0  0  0  0  0  0  0  0  0  0
    4.3599  -49.2092   16.4922 C   0  0  2  0  0  0  0  0  0  0  0  0
    4.4003  -47.7354   16.3660 O   0  0  0  0  0  0  0  0  0  0  0  0
    5.3476  -46.2237   12.7148 C   0  0  2  0  0  0  0  0  0  0  0  0
    5.0413  -45.1082   13.5853 O   0  0  0  0  0  0  0  0  0  0  0  0
    4.4780  -40.7305   13.1499 C   0  0  0  0  0  0  0  0  0  0  0  0
    3.4895  -41.5169   12.4675 O   0  0  0  0  0  0  0  0  0  0  0  0
   10.6359  -41.9540   14.4539 C   0  0  1  0  0  0  0  0  0  0  0  0
    9.8686  -42.0739   13.2377 O   0  0  0  0  0  0  0  0  0  0  0  0
   12.2572  -36.6153   16.7691 C   0  0  2  0  0  0  0  0  0  0  0  0
   11.2050  -37.6174   16.7064 O   0  0  0  0  0  0  0  0  0  0  0  0
    2.9646  -49.6055   16.8572 C   0  0  0  0  0  0  0  0  0  0  0  0
    2.1338  -49.3254   15.7632 O   0  0  0  0  0  0  0  0  0  0  0  0
    4.4176  -46.2333   11.4468 C   0  0  1  0  0  0  0  0  0  0  0  0
    4.6745  -45.0128   10.6696 O   0  0  0  0  0  0  0  0  0  0  0  0
   12.1215  -42.2745   14.0609 C   0  0  0  0  0  0  0  0  0  0  0  0
   12.2481  -43.3180   13.0148 N   0  0  0  0  0  0  0  0  0  0  0  0
   12.5436  -36.4428   18.2591 C   0  0  0  0  0  0  0  0  0  0  0  0
   11.3623  -35.9277   18.9474 O   0  0  0  0  0  0  0  0  0  0  0  0
  1  2  1  6  0  0  0
  1  8  1  0  0  0  0
  1 36  1  0  0  0  0
  3  4  1  6  0  0  0
  3 10  1  0  0  0  0
  3 47  1  0  0  0  0
  5 11  1  0  0  0  0
  5 30  1  0  0  0  0
  5 38  1  6  0  0  0
  6 21  1  6  0  0  0
  6 42  1  0  0  0  0
  7 15  1  0  0  0  0
  7 44  1  0  0  0  0
  7 32  1  6  0  0  0
  8  9  1  6  0  0  0
  8 17  1  0  0  0  0
 11 12  1  1  0  0  0
 11 20  1  0  0  0  0
 13  6  1  0  0  0  0
 13 14  1  6  0  0  0
 15 16  1  6  0  0  0
 15 24  1  0  0  0  0
 17 26  1  0  0  0  0
 18 10  1  0  0  0  0
 18 19  1  1  0  0  0
 20 21  1  1  0  0  0
 20 29  1  0  0  0  0
 22 13  1  0  0  0  0
 22 23  1  6  0  0  0
 24 25  1  1  0  0  0
 24 33  1  0  0  0  0
 26 27  1  6  0  0  0
 26 35  1  0  0  0  0
 28  2  1  1  0  0  0
 28 18  1  0  0  0  0
 29 30  1  0  0  0  0
 29 39  1  6  0  0  0
 31 22  1  0  0  0  0
 31 32  1  6  0  0  0
 31 41  1  0  0  0  0
 33 34  1  6  0  0  0
 33 43  1  0  0  0  0
 35 36  1  0  0  0  0
 35 45  1  1  0  0  0
 37 28  1  0  0  0  0
 37 38  1  1  0  0  0
 39 40  1  0  0  0  0
 41 42  1  0  0  0  0
 41 49  1  6  0  0  0
 43 44  1  0  0  0  0
 43 51  1  1  0  0  0
 45 46  1  0  0  0  0
 47 37  1  0  0  0  0
 47 48  1  6  0  0  0
 49 50  1  0  0  0  0
 51 52  1  0  0  0  0
M  END
>  <CHROM.1>
170.86927383,37.44265163,-94.48125879,179.65503752,-67.35123108,-142.45473822
63.55979505,53.17892428,-173.33720342,133.06717880,-175.42936782,69.44438722
7.60578664,-43.13100135,14.40928767,-2.55664156,-0.91282238,-0.78232658

>  <Name>
2fd0_lig

>  <RI>
2.60878e+07

>  <Rbt.Current_Directory>
/home/itssahil/PROJECTS/Mol_Feturizer/New_Systems/rnas/2fd0

>  <Rbt.Executable>
rbdock ($Id: //depot/dev/client3/rdock/2013.1/src/exe/rbdock.cxx#4 $)

>  <Rbt.Library>
libRbt.so (2013.1, Build901 2013/11/27)

>  <Rbt.Parameter_File>
/export/apps/rDock/src/rDock_2013.1_src/data/scripts/dock_solv.prm

>  <Rbt.Receptor>
prm/blind_docking_80.prm

>  <SCORE>
-10.1415

>  <SCORE.INTER>
-13.8646

>  <SCORE.INTER.CONST>
1

>  <SCORE.INTER.POLAR>
-0.462245

>  <SCORE.INTER.ROT>
12

>  <SCORE.INTER.SOLV>
19.3144

>  <SCORE.INTER.VDW>
-25.7404

>  <SCORE.INTER.norm>
-0.266627

>  <SCORE.INTRA>
3.64976

>  <SCORE.INTRA.DIHEDRAL>
-2.91963

>  <SCORE.INTRA.DIHEDRAL.0>
23.9727

>  <SCORE.INTRA.POLAR>
0

>  <SCORE.INTRA.POLAR.0>
0

>  <SCORE.INTRA.REPUL>
0

>  <SCORE.INTRA.REPUL.0>
0

>  <SCORE.INTRA.SOLV>
1.01734

>  <SCORE.INTRA.SOLV.lig_0>
-115.028

>  <SCORE.INTRA.VDW>
4.60091

>  <SCORE.INTRA.VDW.0>
-6.82393

>  <SCORE.INTRA.norm>
0.0701877

>  <SCORE.RESTR>
0.0732951

>  <SCORE.RESTR.CAVITY>
0.0732951

>  <SCORE.RESTR.norm>
0.00140952

>  <SCORE.SYSTEM>
0

>  <SCORE.SYSTEM.CONST>
0

>  <SCORE.SYSTEM.DIHEDRAL>
0

>  <SCORE.SYSTEM.SOLV>
0

>  <SCORE.SYSTEM.norm>
0

>  <SCORE.heavy>
52

>  <SCORE.norm>
-0.19503

>  <RMSD>
13.850

$$$$
2fd0_lig
 OpenBabel11021811433D
libRbt.so/2013.1/901 2013/11/27
 52 56  0  0  0  0  0  0  0  0999 V2000
   12.4546  -35.4875   17.2344 C   0  0  2  0  0  0  0  0  0  0  0  0
   11.2019  -36.1050   16.9086 O   0  0  0  0  0  0  0  0  0  0  0  0
   11.1646  -39.8968   19.0330 C   0  0  2  0  0  0  0  0  0  0  0  0
   10.6948  -41.0755   19.7794 N   0  0  0  0  0  0  0  0  0  0  0  0
    9.8322  -39.5951   14.8272 C   0  0  1  0  0  0  0  0  0  0  0  0
    8.2232  -42.1068   12.1301 C   0  0  1  0  0  0  0  0  0  0  0  0
    8.2644  -46.8700   14.2401 C   0  0  1  0  0  0  0  0  0  0  0  0
   12.2905  -33.9288   17.1118 C   0  0  2  0  0  0  0  0  0  0  0  0
   11.2192  -33.4276   17.9613 N   0  0  0  0  0  0  0  0  0  0  0  0
   10.8039  -38.5632   19.8231 C   0  0  0  0  0  0  0  0  0  0  0  0
    8.5103  -39.1991   14.1952 C   0  0  2  0  0  0  0  0  0  0  0  0
    7.3711  -39.5683   15.0222 O   0  0  0  0  0  0  0  0  0  0  0  0
    6.9806  -43.0775   11.8601 C   0  0  2  0  0  0  0  0  0  0  0  0
    6.2049  -43.2925   13.1121 N   0  0  0  0  0  0  0  0  0  0  0  0
    6.8414  -47.4632   14.1354 C   0  0  1  0  0  0  0  0  0  0  0  0
    6.6544  -48.0099   12.8065 O   0  0  0  0  0  0  0  0  0  0  0  0
   12.0702  -33.5178   15.6088 C   0  0  0  0  0  0  0  0  0  0  0  0
   11.3261  -37.2818   19.0139 C   0  0  2  0  0  0  0  0  0  0  0  0
   11.0028  -36.0345   19.7221 N   0  0  0  0  0  0  0  0  0  0  0  0
    8.5798  -39.8517   12.8248 C   0  0  2  0  0  0  0  0  0  0  0  0
    7.7178  -40.9535   12.7369 O   0  0  0  0  0  0  0  0  0  0  0  0
    7.5572  -44.4149   11.1603 C   0  0  1  0  0  0  0  0  0  0  0  0
    8.2619  -44.0236    9.9681 O   0  0  0  0  0  0  0  0  0  0  0  0
    6.4438  -48.5545   15.1660 C   0  0  1  0  0  0  0  0  0  0  0  0
    6.7277  -49.8339   14.5858 O   0  0  0  0  0  0  0  0  0  0  0  0
   13.2580  -34.0792   14.7611 C   0  0  2  0  0  0  0  0  0  0  0  0
   13.1051  -33.7122   13.3936 O   0  0  0  0  0  0  0  0  0  0  0  0
   10.6825  -37.2756   17.5992 C   0  0  2  0  0  0  0  0  0  0  0  0
   10.0011  -40.4292   12.6226 C   0  0  2  0  0  0  0  0  0  0  0  0
   10.6975  -39.9371   13.7586 O   0  0  0  0  0  0  0  0  0  0  0  0
    8.6320  -45.1718   12.1016 C   0  0  2  0  0  0  0  0  0  0  0  0
    7.8814  -45.5580   13.2683 O   0  0  0  0  0  0  0  0  0  0  0  0
    7.1345  -48.4697   16.5466 C   0  0  2  0  0  0  0  0  0  0  0  0
    6.1067  -48.7648   17.5177 O   0  0  0  0  0  0  0  0  0  0  0  0
   13.3005  -35.6286   14.8924 C   0  0  2  0  0  0  0  0  0  0  0  0
   13.4765  -35.9662   16.3223 O   0  0  0  0  0  0  0  0  0  0  0  0
   10.9589  -38.5882   16.8045 C   0  0  2  0  0  0  0  0  0  0  0  0
   10.2759  -38.4795   15.5326 O   0  0  0  0  0  0  0  0  0  0  0  0
   10.7239  -39.9451   11.3706 C   0  0  0  0  0  0  0  0  0  0  0  0
   10.8236  -38.5162   11.4683 O   0  0  0  0  0  0  0  0  0  0  0  0
    9.6404  -44.1125   12.5048 C   0  0  1  0  0  0  0  0  0  0  0  0
    9.2991  -42.7966   12.9887 O   0  0  0  0  0  0  0  0  0  0  0  0
    7.7916  -47.1068   16.7481 C   0  0  2  0  0  0  0  0  0  0  0  0
    8.6670  -46.6866   15.6653 O   0  0  0  0  0  0  0  0  0  0  0  0
   14.4405  -36.2265   14.1308 C   0  0  0  0  0  0  0  0  0  0  0  0
   14.4719  -37.6012   14.4050 O   0  0  0  0  0  0  0  0  0  0  0  0
   10.4523  -39.8320   17.6224 C   0  0  1  0  0  0  0  0  0  0  0  0
   10.7758  -41.0508   16.8679 O   0  0  0  0  0  0  0  0  0  0  0  0
   10.7533  -44.6531   13.4710 C   0  0  0  0  0  0  0  0  0  0  0  0
   11.8702  -43.7009   13.6835 N   0  0  0  0  0  0  0  0  0  0  0  0
    8.5540  -46.7574   18.0242 C   0  0  0  0  0  0  0  0  0  0  0  0
    8.9193  -45.3429   18.0269 O   0  0  0  0  0  0  0  0  0  0  0  0
  1  2  1  6  0  0  0
  1  8  1  0  0  0  0
  1 36  1  0  0  0  0
  3  4  1  1  0  0  0
  3 10  1  0  0  0  0
  3 47  1  0  0  0  0
  5 11  1  0  0  0  0
  5 30  1  0  0  0  0
  5 38  1  6  0  0  0
  6 21  1  1  0  0  0
  6 42  1  0  0  0  0
  7 15  1  0  0  0  0
  7 44  1  0  0  0  0
  7 32  1  6  0  0  0
  8  9  1  1  0  0  0
  8 17  1  0  0  0  0
 11 12  1  1  0  0  0
 11 20  1  0  0  0  0
 13  6  1  0  0  0  0
 13 14  1  1  0  0  0
 15 16  1  6  0  0  0
 15 24  1  0  0  0  0
 17 26  1  0  0  0  0
 18 10  1  0  0  0  0
 18 19  1  1  0  0  0
 20 21  1  1  0  0  0
 20 29  1  0  0  0  0
 22 13  1  0  0  0  0
 22 23  1  6  0  0  0
 24 25  1  6  0  0  0
 24 33  1  0  0  0  0
 26 27  1  6  0  0  0
 26 35  1  0  0  0  0
 28  2  1  6  0  0  0
 28 18  1  0  0  0  0
 29 30  1  0  0  0  0
 29 39  1  6  0  0  0
 31 22  1  0  0  0  0
 31 32  1  1  0  0  0
 31 41  1  0  0  0  0
 33 34  1  1  0  0  0
 33 43  1  0  0  0  0
 35 36  1  0  0  0  0
 35 45  1  6  0  0  0
 37 28  1  0  0  0  0
 37 38  1  6  0  0  0
 39 40  1  0  0  0  0
 41 42  1  0  0  0  0
 41 49  1  1  0  0  0
 43 44  1  0  0  0  0
 43 51  1  1  0  0  0
 45 46  1  0  0  0  0
 47 37  1  0  0  0  0
 47 48  1  6  0  0  0
 49 50  1  0  0  0  0
 51 52  1  0  0  0  0
M  END
>  <CHROM.1>
-141.83908736,142.88426162,-167.61888657,-127.15148948,-135.98474761,24.95907151
59.38401997,153.07525807,174.67883436,-152.59065124,169.93338400,-172.33271243
9.82452409,-41.15583985,15.03425435,-0.00309636,1.17732992,1.73371486

>  <Name>
2fd0_lig

>  <RI>
0

>  <Rbt.Current_Directory>
/home/itssahil/PROJECTS/Mol_Feturizer/New_Systems/rnas/2fd0

>  <Rbt.Executable>
rbdock ($Id: //depot/dev/client3/rdock/2013.1/src/exe/rbdock.cxx#4 $)

>  <Rbt.Library>
libRbt.so (2013.1, Build901 2013/11/27)

>  <Rbt.Parameter_File>
/export/apps/rDock/src/rDock_2013.1_src/data/scripts/dock_solv.prm

>  <Rbt.Receptor>
prm/blind_docking_100.prm

>  <SCORE>
-7.44525

>  <SCORE.INTER>
-28.6542

>  <SCORE.INTER.CONST>
1

>  <SCORE.INTER.POLAR>
-2.13377

>  <SCORE.INTER.ROT>
12

>  <SCORE.INTER.SOLV>
23.3695

>  <SCORE.INTER.VDW>
-31.3801

>  <SCORE.INTER.norm>
-0.551043

>  <SCORE.INTRA>
17.1209

>  <SCORE.INTRA.DIHEDRAL>
12.3388

>  <SCORE.INTRA.DIHEDRAL.0>
23.9727

>  <SCORE.INTRA.POLAR>
0

>  <SCORE.INTRA.POLAR.0>
0

>  <SCORE.INTRA.REPUL>
0

>  <SCORE.INTRA.REPUL.0>
0

>  <SCORE.INTRA.SOLV>
-1.15607

>  <SCORE.INTRA.SOLV.lig_0>
-115.028

>  <SCORE.INTRA.VDW>
11.5295

>  <SCORE.INTRA.VDW.0>
-6.82393

>  <SCORE.INTRA.norm>
0.329248

>  <SCORE.RESTR>
4.08807

>  <SCORE.RESTR.CAVITY>
4.08807

>  <SCORE.RESTR.norm>
0.0786167

>  <SCORE.SYSTEM>
0

>  <SCORE.SYSTEM.CONST>
0

>  <SCORE.SYSTEM.DIHEDRAL>
0

>  <SCORE.SYSTEM.SOLV>
0

>  <SCORE.SYSTEM.norm>
0

>  <SCORE.heavy>
52

>  <SCORE.norm>
-0.143178

>  <RMSD>
13.869

$$$$
2fd0_lig
 OpenBabel11021811433D
libRbt.so/2013.1/901 2013/11/27
 52 56  0  0  0  0  0  0  0  0999 V2000
   12.3693  -34.5758   17.7297 C   0  0  2  0  0  0  0  0  0  0  0  0
   11.1669  -35.3214   17.4950 O   0  0  0  0  0  0  0  0  0  0  0  0
   11.0825  -38.1114   20.8269 C   0  0  2  0  0  0  0  0  0  0  0  0
   10.6245  -39.1344   21.7812 N   0  0  0  0  0  0  0  0  0  0  0  0
   10.4284  -38.7059   16.4215 C   0  0  1  0  0  0  0  0  0  0  0  0
    8.6639  -40.4317   12.5591 C   0  0  1  0  0  0  0  0  0  0  0  0
    7.7703  -45.5926   11.6325 C   0  0  1  0  0  0  0  0  0  0  0  0
   12.1302  -33.0877   17.2823 C   0  0  2  0  0  0  0  0  0  0  0  0
   10.9959  -32.4894   17.9723 N   0  0  0  0  0  0  0  0  0  0  0  0
   10.0916  -36.8659   20.8347 C   0  0  0  0  0  0  0  0  0  0  0  0
   10.6174  -38.6502   14.9166 C   0  0  2  0  0  0  0  0  0  0  0  0
   10.0240  -37.4577   14.3300 O   0  0  0  0  0  0  0  0  0  0  0  0
    7.2147  -41.1092   12.5487 C   0  0  2  0  0  0  0  0  0  0  0  0
    7.0397  -41.9854   13.7390 N   0  0  0  0  0  0  0  0  0  0  0  0
    6.2622  -45.4843   11.3135 C   0  0  1  0  0  0  0  0  0  0  0  0
    6.0978  -44.8615   10.0154 O   0  0  0  0  0  0  0  0  0  0  0  0
   11.9589  -33.0063   15.7201 C   0  0  0  0  0  0  0  0  0  0  0  0
   10.5984  -35.7487   19.8030 C   0  0  2  0  0  0  0  0  0  0  0  0
    9.6976  -34.5867   19.7889 N   0  0  0  0  0  0  0  0  0  0  0  0
   10.0440  -39.9785   14.4526 C   0  0  2  0  0  0  0  0  0  0  0  0
    8.8152  -39.8071   13.8004 O   0  0  0  0  0  0  0  0  0  0  0  0
    7.0328  -41.8357   11.1169 C   0  0  1  0  0  0  0  0  0  0  0  0
    7.2217  -40.8459   10.0895 O   0  0  0  0  0  0  0  0  0  0  0  0
    5.4321  -46.7964   11.3274 C   0  0  1  0  0  0  0  0  0  0  0  0
    5.4019  -47.3138    9.9912 O   0  0  0  0  0  0  0  0  0  0  0  0
   13.2124  -33.6560   15.0485 C   0  0  2  0  0  0  0  0  0  0  0  0
   13.1044  -33.5858   13.6302 O   0  0  0  0  0  0  0  0  0  0  0  0
   10.6898  -36.3715   18.3820 C   0  0  2  0  0  0  0  0  0  0  0  0
    9.7281  -40.8433   15.6963 C   0  0  2  0  0  0  0  0  0  0  0  0
   10.2848  -40.0759   16.7540 O   0  0  0  0  0  0  0  0  0  0  0  0
    8.1560  -42.9726   10.8714 C   0  0  2  0  0  0  0  0  0  0  0  0
    7.9180  -43.9447   11.9068 O   0  0  0  0  0  0  0  0  0  0  0  0
    5.9319  -47.9070   12.2800 C   0  0  2  0  0  0  0  0  0  0  0  0
    4.7456  -48.4697   12.8821 O   0  0  0  0  0  0  0  0  0  0  0  0
   13.3293  -35.1406   15.4982 C   0  0  2  0  0  0  0  0  0  0  0  0
   13.4560  -35.1679   16.9722 O   0  0  0  0  0  0  0  0  0  0  0  0
   11.6055  -37.6325   18.3333 C   0  0  2  0  0  0  0  0  0  0  0  0
   11.5733  -38.1422   16.9786 O   0  0  0  0  0  0  0  0  0  0  0  0
   10.3808  -42.2211   15.7090 C   0  0  0  0  0  0  0  0  0  0  0  0
   11.7854  -42.0233   15.4872 O   0  0  0  0  0  0  0  0  0  0  0  0
    9.4875  -42.2971   11.1400 C   0  0  1  0  0  0  0  0  0  0  0  0
    9.7702  -41.4672   12.2860 O   0  0  0  0  0  0  0  0  0  0  0  0
    6.9271  -47.3516   13.2952 C   0  0  2  0  0  0  0  0  0  0  0  0
    8.0202  -46.5840   12.7195 O   0  0  0  0  0  0  0  0  0  0  0  0
   14.5330  -35.8113   14.9166 C   0  0  0  0  0  0  0  0  0  0  0  0
   14.3606  -35.8831   13.5270 O   0  0  0  0  0  0  0  0  0  0  0  0
   11.0991  -38.7082   19.3624 C   0  0  1  0  0  0  0  0  0  0  0  0
   12.0141  -39.8574   19.3256 O   0  0  0  0  0  0  0  0  0  0  0  0
   10.7138  -43.2664   10.9953 C   0  0  0  0  0  0  0  0  0  0  0  0
   11.8614  -42.9074   11.8633 N   0  0  0  0  0  0  0  0  0  0  0  0
    7.5858  -48.2379   14.3500 C   0  0  0  0  0  0  0  0  0  0  0  0
    6.5709  -48.9661   15.1077 O   0  0  0  0  0  0  0  0  0  0  0  0
  1  2  1  6  0  0  0
  1  8  1  0  0  0  0
  1 36  1  0  0  0  0
  3  4  1  1  0  0  0
  3 10  1  0  0  0  0
  3 47  1  0  0  0  0
  5 11  1  0  0  0  0
  5 30  1  0  0  0  0
  5 38  1  1  0  0  0
  6 21  1  1  0  0  0
  6 42  1  0  0  0  0
  7 15  1  0  0  0  0
  7 44  1  0  0  0  0
  7 32  1  1  0  0  0
  8  9  1  1  0  0  0
  8 17  1  0  0  0  0
 11 12  1  6  0  0  0
 11 20  1  0  0  0  0
 13  6  1  0  0  0  0
 13 14  1  1  0  0  0
 15 16  1  6  0  0  0
 15 24  1  0  0  0  0
 17 26  1  0  0  0  0
 18 10  1  0  0  0  0
 18 19  1  6  0  0  0
 20 21  1  1  0  0  0
 20 29  1  0  0  0  0
 22 13  1  0  0  0  0
 22 23  1  6  0  0  0
 24 25  1  6  0  0  0
 24 33  1  0  0  0  0
 26 27  1  6  0  0  0
 26 35  1  0  0  0  0
 28  2  1  6  0  0  0
 28 18  1  0  0  0  0
 29 30  1  0  0  0  0
 29 39  1  6  0  0  0
 31 22  1  0  0  0  0
 31 32  1  1  0  0  0
 31 41  1  0  0  0  0
 33 34  1  1  0  0  0
 33 43  1  0  0  0  0
 35 36  1  0  0  0  0
 35 45  1  6  0  0  0
 37 28  1  0  0  0  0
 37 38  1  6  0  0  0
 39 40  1  0  0  0  0
 41 42  1  0  0  0  0
 41 49  1  1  0  0  0
 43 44  1  0  0  0  0
 43 51  1  6  0  0  0
 45 46  1  0  0  0  0
 47 37  1  0  0  0  0
 47 48  1  1  0  0  0
 49 50  1  0  0  0  0
 51 52  1  0  0  0  0
M  END
>  <CHROM.1>
-142.94048779,160.07614815,135.95945408,-85.63959046,130.32215017,54.28233037
52.65145272,129.87953408,-65.65363018,-67.82778401,-150.46985031,-53.45441805
9.75941158,-40.29987519,14.82354440,-0.37889433,-1.13508697,-1.51089154

>  <Name>
2fd0_lig

>  <RI>
2.85265e+07

>  <Rbt.Current_Directory>
/home/itssahil/PROJECTS/Mol_Feturizer/New_Systems/rnas/2fd0

>  <Rbt.Executable>
rbdock ($Id: //depot/dev/client3/rdock/2013.1/src/exe/rbdock.cxx#4 $)

>  <Rbt.Library>
libRbt.so (2013.1, Build901 2013/11/27)

>  <Rbt.Parameter_File>
/export/apps/rDock/src/rDock_2013.1_src/data/scripts/dock_solv.prm

>  <Rbt.Receptor>
prm/blind_docking_60.prm

>  <SCORE>
-10.2581

>  <SCORE.INTER>
-19.2716

>  <SCORE.INTER.CONST>
1

>  <SCORE.INTER.POLAR>
-1.67264

>  <SCORE.INTER.ROT>
12

>  <SCORE.INTER.SOLV>
19.528

>  <SCORE.INTER.VDW>
-25.3816

>  <SCORE.INTER.norm>
-0.370608

>  <SCORE.INTRA>
6.49907

>  <SCORE.INTRA.DIHEDRAL>
8.70409

>  <SCORE.INTRA.DIHEDRAL.0>
23.9727

>  <SCORE.INTRA.POLAR>
0

>  <SCORE.INTRA.POLAR.0>
0

>  <SCORE.INTRA.REPUL>
0

>  <SCORE.INTRA.REPUL.0>
0

>  <SCORE.INTRA.SOLV>
1.26663

>  <SCORE.INTRA.SOLV.lig_0>
-115.028

>  <SCORE.INTRA.VDW>
1.51371

>  <SCORE.INTRA.VDW.0>
-6.82393

>  <SCORE.INTRA.norm>
0.124982

>  <SCORE.RESTR>
2.51446

>  <SCORE.RESTR.CAVITY>
2.51446

>  <SCORE.RESTR.norm>
0.048355

>  <SCORE.SYSTEM>
0

>  <SCORE.SYSTEM.CONST>
0

>  <SCORE.SYSTEM.DIHEDRAL>
0

>  <SCORE.SYSTEM.SOLV>
0

>  <SCORE.SYSTEM.norm>
0

>  <SCORE.heavy>
52

>  <SCORE.norm>
-0.19727

>  <RMSD>
13.891

$$$$
2fd0_lig
 OpenBabel11021811433D
libRbt.so/2013.1/901 2013/11/27
 52 56  0  0  0  0  0  0  0  0999 V2000
   12.3640  -34.7850   16.9920 C   0  0  2  0  0  0  0  0  0  0  0  0
   12.1443  -36.1537   17.3600 O   0  0  0  0  0  0  0  0  0  0  0  0
   12.1900  -38.0608   21.2656 C   0  0  2  0  0  0  0  0  0  0  0  0
   11.8040  -38.4657   22.6272 N   0  0  0  0  0  0  0  0  0  0  0  0
   10.7465  -38.7408   16.4806 C   0  0  1  0  0  0  0  0  0  0  0  0
   10.2491  -42.0586   13.5102 C   0  0  1  0  0  0  0  0  0  0  0  0
    5.6120  -43.4442   11.9477 C   0  0  1  0  0  0  0  0  0  0  0  0
   11.2126  -34.3378   16.0195 C   0  0  2  0  0  0  0  0  0  0  0  0
    9.8970  -34.5180   16.6172 N   0  0  0  0  0  0  0  0  0  0  0  0
   12.3181  -36.4770   21.1759 C   0  0  0  0  0  0  0  0  0  0  0  0
   10.3618  -40.1914   16.2541 C   0  0  2  0  0  0  0  0  0  0  0  0
   11.4892  -41.0949   16.4298 O   0  0  0  0  0  0  0  0  0  0  0  0
   10.0069  -42.0073   11.9297 C   0  0  2  0  0  0  0  0  0  0  0  0
    9.0125  -40.9537   11.5882 N   0  0  0  0  0  0  0  0  0  0  0  0
    5.2161  -42.0536   11.4025 C   0  0  1  0  0  0  0  0  0  0  0  0
    5.4248  -42.0318    9.9686 O   0  0  0  0  0  0  0  0  0  0  0  0
   11.3280  -35.0993   14.6472 C   0  0  0  0  0  0  0  0  0  0  0  0
   12.7492  -36.0393   19.6954 C   0  0  2  0  0  0  0  0  0  0  0  0
   12.8721  -34.5783   19.5847 N   0  0  0  0  0  0  0  0  0  0  0  0
    9.7369  -40.1650   14.8694 C   0  0  2  0  0  0  0  0  0  0  0  0
   10.5748  -40.7615   13.9170 O   0  0  0  0  0  0  0  0  0  0  0  0
    9.6275  -43.5034   11.4517 C   0  0  1  0  0  0  0  0  0  0  0  0
   10.6961  -44.3812   11.8501 O   0  0  0  0  0  0  0  0  0  0  0  0
    3.7723  -41.5583   11.6871 C   0  0  1  0  0  0  0  0  0  0  0  0
    2.9504  -41.9300   10.5733 O   0  0  0  0  0  0  0  0  0  0  0  0
   12.7569  -34.8541   14.0617 C   0  0  2  0  0  0  0  0  0  0  0  0
   12.8960  -35.5136   12.8072 O   0  0  0  0  0  0  0  0  0  0  0  0
   11.6953  -36.5655   18.6814 C   0  0  2  0  0  0  0  0  0  0  0  0
    9.5924  -38.6917   14.4191 C   0  0  2  0  0  0  0  0  0  0  0  0
    9.9524  -37.9750   15.5914 O   0  0  0  0  0  0  0  0  0  0  0  0
    8.2904  -44.0476   12.1799 C   0  0  2  0  0  0  0  0  0  0  0  0
    7.2506  -43.1537   11.7403 O   0  0  0  0  0  0  0  0  0  0  0  0
    3.1173  -42.0825   12.9859 C   0  0  2  0  0  0  0  0  0  0  0  0
    2.4173  -40.9541   13.5546 O   0  0  0  0  0  0  0  0  0  0  0  0
   13.8239  -35.3856   15.0611 C   0  0  2  0  0  0  0  0  0  0  0  0
   13.6559  -34.6649   16.3425 O   0  0  0  0  0  0  0  0  0  0  0  0
   11.4905  -38.1086   18.7697 C   0  0  2  0  0  0  0  0  0  0  0  0
   10.4618  -38.4668   17.8159 O   0  0  0  0  0  0  0  0  0  0  0  0
    8.1827  -38.2738   14.0160 C   0  0  0  0  0  0  0  0  0  0  0  0
    7.5788  -39.4026   13.3661 O   0  0  0  0  0  0  0  0  0  0  0  0
    8.5167  -43.8325   13.6645 C   0  0  1  0  0  0  0  0  0  0  0  0
    9.0175  -42.6124   14.2498 O   0  0  0  0  0  0  0  0  0  0  0  0
    4.1611  -42.6876   13.9207 C   0  0  2  0  0  0  0  0  0  0  0  0
    5.0321  -43.6753   13.3032 O   0  0  0  0  0  0  0  0  0  0  0  0
   15.2181  -35.1480   14.5744 C   0  0  0  0  0  0  0  0  0  0  0  0
   16.1046  -35.6822   15.5201 O   0  0  0  0  0  0  0  0  0  0  0  0
   11.0827  -38.5167   20.2325 C   0  0  1  0  0  0  0  0  0  0  0  0
   10.9495  -39.9790   20.2897 O   0  0  0  0  0  0  0  0  0  0  0  0
    7.2916  -44.2638   14.5462 C   0  0  0  0  0  0  0  0  0  0  0  0
    7.2423  -45.7196   14.8244 N   0  0  0  0  0  0  0  0  0  0  0  0
    3.7839  -43.2905   15.2720 C   0  0  0  0  0  0  0  0  0  0  0  0
    3.1539  -42.2817   16.1205 O   0  0  0  0  0  0  0  0  0  0  0  0
  1  2  1  6  0  0  0
  1  8  1  0  0  0  0
  1 36  1  0  0  0  0
  3  4  1  1  0  0  0
  3 10  1  0  0  0  0
  3 47  1  0  0  0  0
  5 11  1  0  0  0  0
  5 30  1  0  0  0  0
  5 38  1  1  0  0  0
  6 21  1  1  0  0  0
  6 42  1  0  0  0  0
  7 15  1  0  0  0  0
  7 44  1  0  0  0  0
  7 32  1  1  0  0  0
  8  9  1  1  0  0  0
  8 17  1  0  0  0  0
 11 12  1  6  0  0  0
 11 20  1  0  0  0  0
 13  6  1  0  0  0  0
 13 14  1  1  0  0  0
 15 16  1  6  0  0  0
 15 24  1  0  0  0  0
 17 26  1  0  0  0  0
 18 10  1  0  0  0  0
 18 19  1  1  0  0  0
 20 21  1  6  0  0  0
 20 29  1  0  0  0  0
 22 13  1  0  0  0  0
 22 23  1  1  0  0  0
 24 25  1  6  0  0  0
 24 33  1  0  0  0  0
 26 27  1  6  0  0  0
 26 35  1  0  0  0  0
 28  2  1  6  0  0  0
 28 18  1  0  0  0  0
 29 30  1  0  0  0  0
 29 39  1  1  0  0  0
 31 22  1  0  0  0  0
 31 32  1  6  0  0  0
 31 41  1  0  0  0  0
 33 34  1  1  0  0  0
 33 43  1  0  0  0  0
 35 36  1  0  0  0  0
 35 45  1  6  0  0  0
 37 28  1  0  0  0  0
 37 38  1  6  0  0  0
 39 40  1  0  0  0  0
 41 42  1  0  0  0  0
 41 49  1  1  0  0  0
 43 44  1  0  0  0  0
 43 51  1  1  0  0  0
 45 46  1  0  0  0  0
 47 37  1  0  0  0  0
 47 48  1  6  0  0  0
 49 50  1  0  0  0  0
 51 52  1  0  0  0  0
M  END
>  <CHROM.1>
-107.74728766,116.77051509,120.63469546,174.13609480,102.45967812,-58.50706028
-35.82430657,167.08052553,-178.75510829,86.62789785,81.88908388,-60.03990326
9.38228258,-39.62029110,15.11855707,-0.50612960,-0.74723655,-1.61495877

>  <Name>
2fd0_lig

>  <RI>
2.85265e+07

>  <Rbt.Current_Directory>
/home/itssahil/PROJECTS/Mol_Feturizer/New_Systems/rnas/2fd0

>  <Rbt.Executable>
rbdock ($Id: //depot/dev/client3/rdock/2013.1/src/exe/rbdock.cxx#4 $)

>  <Rbt.Library>
libRbt.so (2013.1, Build901 2013/11/27)

>  <Rbt.Parameter_File>
/export/apps/rDock/src/rDock_2013.1_src/data/scripts/dock_solv.prm

>  <Rbt.Receptor>
prm/blind_docking_60.prm

>  <SCORE>
-10.4336

>  <SCORE.INTER>
-19.97

>  <SCORE.INTER.CONST>
1

>  <SCORE.INTER.POLAR>
-1.52343

>  <SCORE.INTER.ROT>
12

>  <SCORE.INTER.SOLV>
19.7413

>  <SCORE.INTER.VDW>
-26.4157

>  <SCORE.INTER.norm>
-0.384039

>  <SCORE.INTRA>
9.20568

>  <SCORE.INTRA.DIHEDRAL>
10.7639

>  <SCORE.INTRA.DIHEDRAL.0>
23.9727

>  <SCORE.INTRA.POLAR>
0

>  <SCORE.INTRA.POLAR.0>
0

>  <SCORE.INTRA.REPUL>
0.0813313

>  <SCORE.INTRA.REPUL.0>
0

>  <SCORE.INTRA.SOLV>
2.15006

>  <SCORE.INTRA.SOLV.lig_0>
-115.028

>  <SCORE.INTRA.VDW>
2.34205

>  <SCORE.INTRA.VDW.0>
-6.82393

>  <SCORE.INTRA.norm>
0.177032

>  <SCORE.RESTR>
0.330765

>  <SCORE.RESTR.CAVITY>
0.330765

>  <SCORE.RESTR.norm>
0.00636087

>  <SCORE.SYSTEM>
0

>  <SCORE.SYSTEM.CONST>
0

>  <SCORE.SYSTEM.DIHEDRAL>
0

>  <SCORE.SYSTEM.SOLV>
0

>  <SCORE.SYSTEM.norm>
0

>  <SCORE.heavy>
52

>  <SCORE.norm>
-0.200646

>  <RMSD>
13.913

$$$$
2fd0_lig
 OpenBabel11021811433D
libRbt.so/2013.1/901 2013/11/27
 52 56  0  0  0  0  0  0  0  0999 V2000
    5.5761  -46.9991   15.3765 C   0  0  2  0  0  0  0  0  0  0  0  0
    5.6980  -47.5683   14.0658 O   0  0  0  0  0  0  0  0  0  0  0  0
    4.4056  -46.7700    9.9933 C   0  0  2  0  0  0  0  0  0  0  0  0
    3.5525  -46.4703    8.8317 N   0  0  0  0  0  0  0  0  0  0  0  0
    5.9446  -43.6943   13.2377 C   0  0  1  0  0  0  0  0  0  0  0  0
    8.5685  -41.7592   12.9619 C   0  0  1  0  0  0  0  0  0  0  0  0
   11.2791  -37.8943   15.0809 C   0  0  1  0  0  0  0  0  0  0  0  0
    6.8440  -47.3994   16.2154 C   0  0  2  0  0  0  0  0  0  0  0  0
    8.0781  -46.9749   15.5692 N   0  0  0  0  0  0  0  0  0  0  0  0
    3.9051  -48.0953   10.7187 C   0  0  0  0  0  0  0  0  0  0  0  0
    6.8025  -43.8137   11.9914 C   0  0  2  0  0  0  0  0  0  0  0  0
    8.0986  -44.4145   12.2696 O   0  0  0  0  0  0  0  0  0  0  0  0
    8.2269  -40.3132   13.5550 C   0  0  2  0  0  0  0  0  0  0  0  0
    8.7314  -39.2453   12.6492 N   0  0  0  0  0  0  0  0  0  0  0  0
   10.9426  -37.1334   13.7788 C   0  0  1  0  0  0  0  0  0  0  0  0
    9.5075  -37.1522   13.5783 O   0  0  0  0  0  0  0  0  0  0  0  0
    6.8478  -48.9475   16.4975 C   0  0  0  0  0  0  0  0  0  0  0  0
    4.8422  -48.4257   11.9765 C   0  0  2  0  0  0  0  0  0  0  0  0
    4.3991  -49.6459   12.6669 N   0  0  0  0  0  0  0  0  0  0  0  0
    6.8268  -42.3913   11.4579 C   0  0  2  0  0  0  0  0  0  0  0  0
    8.0784  -41.7913   11.6532 O   0  0  0  0  0  0  0  0  0  0  0  0
    8.7924  -40.2671   15.0679 C   0  0  1  0  0  0  0  0  0  0  0  0
    8.1950  -41.3536   15.7985 O   0  0  0  0  0  0  0  0  0  0  0  0
   11.4261  -35.6623   13.6646 C   0  0  1  0  0  0  0  0  0  0  0  0
   10.3642  -34.8123   14.1165 O   0  0  0  0  0  0  0  0  0  0  0  0
    5.5025  -49.3281   17.1976 C   0  0  2  0  0  0  0  0  0  0  0  0
    5.4741  -50.7222   17.4872 O   0  0  0  0  0  0  0  0  0  0  0  0
    4.8228  -47.2198   12.9568 C   0  0  2  0  0  0  0  0  0  0  0  0
    5.8326  -41.5368   12.2800 C   0  0  2  0  0  0  0  0  0  0  0  0
    5.1813  -42.5104   13.0834 O   0  0  0  0  0  0  0  0  0  0  0  0
   10.3912  -40.5024   15.1208 C   0  0  2  0  0  0  0  0  0  0  0  0
   10.9443  -39.3879   14.3957 O   0  0  0  0  0  0  0  0  0  0  0  0
   12.7135  -35.3073   14.4439 C   0  0  2  0  0  0  0  0  0  0  0  0
   13.4774  -34.4494   13.5682 O   0  0  0  0  0  0  0  0  0  0  0  0
    4.3121  -48.9554   16.2683 C   0  0  2  0  0  0  0  0  0  0  0  0
    4.3687  -47.5002   16.0062 O   0  0  0  0  0  0  0  0  0  0  0  0
    5.2508  -45.8830   12.2780 C   0  0  2  0  0  0  0  0  0  0  0  0
    5.1495  -44.8369   13.2737 O   0  0  0  0  0  0  0  0  0  0  0  0
    4.7747  -40.8070   11.4598 C   0  0  0  0  0  0  0  0  0  0  0  0
    3.9127  -41.8084   10.8984 O   0  0  0  0  0  0  0  0  0  0  0  0
   10.6448  -41.7694   14.3259 C   0  0  1  0  0  0  0  0  0  0  0  0
   10.0786  -42.0517   13.0291 O   0  0  0  0  0  0  0  0  0  0  0  0
   13.4620  -36.5678   14.8690 C   0  0  2  0  0  0  0  0  0  0  0  0
   12.6493  -37.5536   15.5640 O   0  0  0  0  0  0  0  0  0  0  0  0
    2.9902  -49.2624   16.8971 C   0  0  0  0  0  0  0  0  0  0  0  0
    1.9908  -49.0301   15.9417 O   0  0  0  0  0  0  0  0  0  0  0  0
    4.3285  -45.5865   11.0395 C   0  0  1  0  0  0  0  0  0  0  0  0
    4.7933  -44.3497   10.3962 O   0  0  0  0  0  0  0  0  0  0  0  0
   12.1664  -42.1419   14.2236 C   0  0  0  0  0  0  0  0  0  0  0  0
   12.4215  -43.4037   13.4873 N   0  0  0  0  0  0  0  0  0  0  0  0
   14.7644  -36.5055   15.6639 C   0  0  0  0  0  0  0  0  0  0  0  0
   14.6525  -35.5320   16.7475 O   0  0  0  0  0  0  0  0  0  0  0  0
  1  2  1  6  0  0  0
  1  8  1  0  0  0  0
  1 36  1  0  0  0  0
  3  4  1  6  0  0  0
  3 10  1  0  0  0  0
  3 47  1  0  0  0  0
  5 11  1  0  0  0  0
  5 30  1  0  0  0  0
  5 38  1  6  0  0  0
  6 21  1  6  0  0  0
  6 42  1  0  0  0  0
  7 15  1  0  0  0  0
  7 44  1  0  0  0  0
  7 32  1  6  0  0  0
  8  9  1  6  0  0  0
  8 17  1  0  0  0  0
 11 12  1  1  0  0  0
 11 20  1  0  0  0  0
 13  6  1  0  0  0  0
 13 14  1  6  0  0  0
 15 16  1  1  0  0  0
 15 24  1  0  0  0  0
 17 26  1  0  0  0  0
 18 10  1  0  0  0  0
 18 19  1  1  0  0  0
 20 21  1  1  0  0  0
 20 29  1  0  0  0  0
 22 13  1  0  0  0  0
 22 23  1  1  0  0  0
 24 25  1  1  0  0  0
 24 33  1  0  0  0  0
 26 27  1  6  0  0  0
 26 35  1  0  0  0  0
 28  2  1  1  0  0  0
 28 18  1  0  0  0  0
 29 30  1  0  0  0  0
 29 39  1  6  0  0  0
 31 22  1  0  0  0  0
 31 32  1  6  0  0  0
 31 41  1  0  0  0  0
 33 34  1  6  0  0  0
 33 43  1  0  0  0  0
 35 36  1  0  0  0  0
 35 45  1  1  0  0  0
 37 28  1  0  0  0  0
 37 38  1  1  0  0  0
 39 40  1  0  0  0  0
 41 42  1  0  0  0  0
 41 49  1  6  0  0  0
 43 44  1  0  0  0  0
 43 51  1  1  0  0  0
 45 46  1  0  0  0  0
 47 37  1  0  0  0  0
 47 48  1  6  0  0  0
 49 50  1  0  0  0  0
 51 52  1  0  0  0  0
M  END
>  <CHROM.1>
-169.25829280,1.80800042,-97.75611837,-146.93794479,-55.68892959,-155.42670040
67.48385415,85.75923424,-173.81858888,151.87856398,178.05445033,44.68359864
7.75871080,-42.91200182,13.77607234,-2.46199481,-0.75935302,-0.66150315

>  <Name>
2fd0_lig

>  <RI>
2.60878e+07

>  <Rbt.Current_Directory>
/home/itssahil/PROJECTS/Mol_Feturizer/New_Systems/rnas/2fd0

>  <Rbt.Executable>
rbdock ($Id: //depot/dev/client3/rdock/2013.1/src/exe/rbdock.cxx#4 $)

>  <Rbt.Library>
libRbt.so (2013.1, Build901 2013/11/27)

>  <Rbt.Parameter_File>
/export/apps/rDock/src/rDock_2013.1_src/data/scripts/dock_solv.prm

>  <Rbt.Receptor>
prm/blind_docking_80.prm

>  <SCORE>
-5.97269

>  <SCORE.INTER>
-15.2182

>  <SCORE.INTER.CONST>
1

>  <SCORE.INTER.POLAR>
-0.872999

>  <SCORE.INTER.ROT>
12

>  <SCORE.INTER.SOLV>
21.5854

>  <SCORE.INTER.VDW>
-26.0306

>  <SCORE.INTER.norm>
-0.292658

>  <SCORE.INTRA>
9.21361

>  <SCORE.INTRA.DIHEDRAL>
4.04069

>  <SCORE.INTRA.DIHEDRAL.0>
23.9727

>  <SCORE.INTRA.POLAR>
0

>  <SCORE.INTRA.POLAR.0>
0

>  <SCORE.INTRA.REPUL>
0.0134196

>  <SCORE.INTRA.REPUL.0>
0

>  <SCORE.INTRA.SOLV>
0.532732

>  <SCORE.INTRA.SOLV.lig_0>
-115.028

>  <SCORE.INTRA.VDW>
6.85981

>  <SCORE.INTRA.VDW.0>
-6.82393

>  <SCORE.INTRA.norm>
0.177185

>  <SCORE.RESTR>
0.0319198

>  <SCORE.RESTR.CAVITY>
0.0319198

>  <SCORE.RESTR.norm>
0.000613843

>  <SCORE.SYSTEM>
0

>  <SCORE.SYSTEM.CONST>
0

>  <SCORE.SYSTEM.DIHEDRAL>
0

>  <SCORE.SYSTEM.SOLV>
0

>  <SCORE.SYSTEM.norm>
0

>  <SCORE.heavy>
52

>  <SCORE.norm>
-0.114859

>  <RMSD>
13.914

$$$$
2fd0_lig
 OpenBabel11021811433D
libRbt.so/2013.1/901 2013/11/27
 52 56  0  0  0  0  0  0  0  0999 V2000
    5.1870  -48.9846   14.0184 C   0  0  2  0  0  0  0  0  0  0  0  0
    5.6129  -47.9593   13.1105 O   0  0  0  0  0  0  0  0  0  0  0  0
    4.0840  -46.2291    9.4279 C   0  0  2  0  0  0  0  0  0  0  0  0
    3.1888  -45.5829    8.4541 N   0  0  0  0  0  0  0  0  0  0  0  0
    6.6989  -44.3645   13.0440 C   0  0  1  0  0  0  0  0  0  0  0  0
    8.9749  -42.2162   14.1154 C   0  0  1  0  0  0  0  0  0  0  0  0
   10.4442  -37.3161   14.9451 C   0  0  1  0  0  0  0  0  0  0  0  0
    4.4323  -48.3069   15.2195 C   0  0  2  0  0  0  0  0  0  0  0  0
    3.3060  -47.5020   14.7676 N   0  0  0  0  0  0  0  0  0  0  0  0
    3.4164  -47.5581    9.9944 C   0  0  0  0  0  0  0  0  0  0  0  0
    6.8727  -44.2472   14.5472 C   0  0  2  0  0  0  0  0  0  0  0  0
    6.3181  -43.0080   15.0715 O   0  0  0  0  0  0  0  0  0  0  0  0
   10.4944  -41.8267   13.8007 C   0  0  2  0  0  0  0  0  0  0  0  0
   11.2245  -41.5148   15.0596 N   0  0  0  0  0  0  0  0  0  0  0  0
   11.6069  -36.8837   14.0237 C   0  0  1  0  0  0  0  0  0  0  0  0
   11.1215  -36.7947   12.6612 O   0  0  0  0  0  0  0  0  0  0  0  0
    5.4337  -47.4565   16.0858 C   0  0  0  0  0  0  0  0  0  0  0  0
    4.3975  -48.2658   11.0461 C   0  0  2  0  0  0  0  0  0  0  0  0
    3.8024  -49.4965   11.5874 N   0  0  0  0  0  0  0  0  0  0  0  0
    8.3684  -44.4403   14.7324 C   0  0  2  0  0  0  0  0  0  0  0  0
    9.0031  -43.2370   15.0699 O   0  0  0  0  0  0  0  0  0  0  0  0
   10.4704  -40.6449   12.6989 C   0  0  1  0  0  0  0  0  0  0  0  0
    9.7406  -41.1206   11.5534 O   0  0  0  0  0  0  0  0  0  0  0  0
   12.3332  -35.5543   14.3645 C   0  0  1  0  0  0  0  0  0  0  0  0
   11.7071  -34.5046   13.6159 O   0  0  0  0  0  0  0  0  0  0  0  0
    6.6071  -48.3837   16.5419 C   0  0  2  0  0  0  0  0  0  0  0  0
    7.5286  -47.6541   17.3461 O   0  0  0  0  0  0  0  0  0  0  0  0
    4.7110  -47.2716   12.1989 C   0  0  2  0  0  0  0  0  0  0  0  0
    8.9853  -44.8601   13.3768 C   0  0  2  0  0  0  0  0  0  0  0  0
    7.8371  -45.0591   12.5647 O   0  0  0  0  0  0  0  0  0  0  0  0
    9.6836  -39.3379   13.2346 C   0  0  2  0  0  0  0  0  0  0  0  0
   10.4558  -38.8893   14.3642 O   0  0  0  0  0  0  0  0  0  0  0  0
   12.3555  -35.1553   15.8582 C   0  0  2  0  0  0  0  0  0  0  0  0
   13.6824  -34.6415   16.1066 O   0  0  0  0  0  0  0  0  0  0  0  0
    7.3325  -48.9542   15.2897 C   0  0  2  0  0  0  0  0  0  0  0  0
    6.3466  -49.7169   14.4923 O   0  0  0  0  0  0  0  0  0  0  0  0
    5.3149  -45.9275   11.6895 C   0  0  2  0  0  0  0  0  0  0  0  0
    5.5194  -45.0768   12.8431 O   0  0  0  0  0  0  0  0  0  0  0  0
    9.7839  -46.1586   13.4040 C   0  0  0  0  0  0  0  0  0  0  0  0
   11.1634  -45.8006   13.5773 O   0  0  0  0  0  0  0  0  0  0  0  0
    8.3439  -39.8436   13.7355 C   0  0  1  0  0  0  0  0  0  0  0  0
    8.1679  -40.9936   14.5892 O   0  0  0  0  0  0  0  0  0  0  0  0
   11.9825  -36.3385   16.7473 C   0  0  2  0  0  0  0  0  0  0  0  0
   10.7508  -37.0162   16.3744 O   0  0  0  0  0  0  0  0  0  0  0  0
    8.4470  -49.8809   15.6588 C   0  0  0  0  0  0  0  0  0  0  0  0
    7.8888  -51.0000   16.2926 O   0  0  0  0  0  0  0  0  0  0  0  0
    4.3436  -45.2586   10.6493 C   0  0  1  0  0  0  0  0  0  0  0  0
    4.9679  -44.0240   10.1538 O   0  0  0  0  0  0  0  0  0  0  0  0
    7.4433  -38.7113   14.3447 C   0  0  0  0  0  0  0  0  0  0  0  0
    6.1543  -39.2042   14.8878 N   0  0  0  0  0  0  0  0  0  0  0  0
   11.9167  -36.2181   18.2681 C   0  0  0  0  0  0  0  0  0  0  0  0
   10.8922  -35.2520   18.6576 O   0  0  0  0  0  0  0  0  0  0  0  0
  1  2  1  6  0  0  0
  1  8  1  0  0  0  0
  1 36  1  0  0  0  0
  3  4  1  6  0  0  0
  3 10  1  0  0  0  0
  3 47  1  0  0  0  0
  5 11  1  0  0  0  0
  5 30  1  0  0  0  0
  5 38  1  1  0  0  0
  6 21  1  1  0  0  0
  6 42  1  0  0  0  0
  7 15  1  0  0  0  0
  7 44  1  0  0  0  0
  7 32  1  1  0  0  0
  8  9  1  6  0  0  0
  8 17  1  0  0  0  0
 11 12  1  6  0  0  0
 11 20  1  0  0  0  0
 13  6  1  0  0  0  0
 13 14  1  1  0  0  0
 15 16  1  6  0  0  0
 15 24  1  0  0  0  0
 17 26  1  0  0  0  0
 18 10  1  0  0  0  0
 18 19  1  1  0  0  0
 20 21  1  6  0  0  0
 20 29  1  0  0  0  0
 22 13  1  0  0  0  0
 22 23  1  6  0  0  0
 24 25  1  6  0  0  0
 24 33  1  0  0  0  0
 26 27  1  1  0  0  0
 26 35  1  0  0  0  0
 28  2  1  1  0  0  0
 28 18  1  0  0  0  0
 29 30  1  0  0  0  0
 29 39  1  1  0  0  0
 31 22  1  0  0  0  0
 31 32  1  1  0  0  0
 31 41  1  0  0  0  0
 33 34  1  1  0  0  0
 33 43  1  0  0  0  0
 35 36  1  0  0  0  0
 35 45  1  1  0  0  0
 37 28  1  0  0  0  0
 37 38  1  1  0  0  0
 39 40  1  0  0  0  0
 41 42  1  0  0  0  0
 41 49  1  1  0  0  0
 43 44  1  0  0  0  0
 43 51  1  1  0  0  0
 45 46  1  0  0  0  0
 47 37  1  0  0  0  0
 47 48  1  6  0  0  0
 49 50  1  0  0  0  0
 51 52  1  0  0  0  0
M  END
>  <CHROM.1>
-75.53813981,-149.81983871,-122.57763236,-89.61818250,-64.14060106,-75.08526580
-95.66026796,156.60316938,64.94180317,134.12897702,-177.63515228,62.25465872
8.05541702,-43.07173488,13.99350985,-2.37484826,-0.89020467,-0.49785551

>  <Name>
2fd0_lig

>  <RI>
2.60878e+07

>  <Rbt.Current_Directory>
/home/itssahil/PROJECTS/Mol_Feturizer/New_Systems/rnas/2fd0

>  <Rbt.Executable>
rbdock ($Id: //depot/dev/client3/rdock/2013.1/src/exe/rbdock.cxx#4 $)

>  <Rbt.Library>
libRbt.so (2013.1, Build901 2013/11/27)

>  <Rbt.Parameter_File>
/export/apps/rDock/src/rDock_2013.1_src/data/scripts/dock_solv.prm

>  <Rbt.Receptor>
prm/blind_docking_80.prm

>  <SCORE>
-12.1827

>  <SCORE.INTER>
-18.8341

>  <SCORE.INTER.CONST>
1

>  <SCORE.INTER.POLAR>
-2.53538

>  <SCORE.INTER.ROT>
12

>  <SCORE.INTER.SOLV>
22.4256

>  <SCORE.INTER.VDW>
-23.18

>  <SCORE.INTER.norm>
-0.362195

>  <SCORE.INTRA>
4.67472

>  <SCORE.INTRA.DIHEDRAL>
6.17515

>  <SCORE.INTRA.DIHEDRAL.0>
23.9727

>  <SCORE.INTRA.POLAR>
0

>  <SCORE.INTRA.POLAR.0>
0

>  <SCORE.INTRA.REPUL>
0

>  <SCORE.INTRA.REPUL.0>
0

>  <SCORE.INTRA.SOLV>
-0.520724

>  <SCORE.INTRA.SOLV.lig_0>
-115.028

>  <SCORE.INTRA.VDW>
1.84751

>  <SCORE.INTRA.VDW.0>
-6.82393

>  <SCORE.INTRA.norm>
0.0898985

>  <SCORE.RESTR>
1.97676

>  <SCORE.RESTR.CAVITY>
1.97676

>  <SCORE.RESTR.norm>
0.0380146

>  <SCORE.SYSTEM>
0

>  <SCORE.SYSTEM.CONST>
0

>  <SCORE.SYSTEM.DIHEDRAL>
0

>  <SCORE.SYSTEM.SOLV>
0

>  <SCORE.SYSTEM.norm>
0

>  <SCORE.heavy>
52

>  <SCORE.norm>
-0.234282

>  <RMSD>
13.960

$$$$
2fd0_lig
 OpenBabel11021811433D
libRbt.so/2013.1/901 2013/11/27
 52 56  0  0  0  0  0  0  0  0999 V2000
   11.5741  -36.0356   16.3218 C   0  0  2  0  0  0  0  0  0  0  0  0
   11.8746  -37.0174   17.3232 O   0  0  0  0  0  0  0  0  0  0  0  0
   10.7931  -37.3385   21.5208 C   0  0  2  0  0  0  0  0  0  0  0  0
   10.0004  -37.4961   22.7512 N   0  0  0  0  0  0  0  0  0  0  0  0
   10.1072  -40.0569   17.9869 C   0  0  1  0  0  0  0  0  0  0  0  0
    8.4034  -42.2691   14.5340 C   0  0  1  0  0  0  0  0  0  0  0  0
    7.3311  -46.8131   14.0124 C   0  0  1  0  0  0  0  0  0  0  0  0
   12.1819  -36.5150   14.9535 C   0  0  2  0  0  0  0  0  0  0  0  0
   11.6846  -37.8287   14.5695 N   0  0  0  0  0  0  0  0  0  0  0  0
   10.2628  -36.0973   20.6775 C   0  0  0  0  0  0  0  0  0  0  0  0
   10.3506  -40.7143   16.6407 C   0  0  2  0  0  0  0  0  0  0  0  0
   10.1760  -39.7856   15.5338 O   0  0  0  0  0  0  0  0  0  0  0  0
    6.9086  -42.4356   13.9888 C   0  0  2  0  0  0  0  0  0  0  0  0
    6.0781  -43.1914   14.9657 N   0  0  0  0  0  0  0  0  0  0  0  0
    5.8731  -47.3091   14.1378 C   0  0  1  0  0  0  0  0  0  0  0  0
    5.3725  -47.6420   12.8193 O   0  0  0  0  0  0  0  0  0  0  0  0
   13.7542  -36.4927   15.0148 C   0  0  0  0  0  0  0  0  0  0  0  0
   11.1344  -35.9210   19.3439 C   0  0  2  0  0  0  0  0  0  0  0  0
   10.6626  -34.7810   18.5441 N   0  0  0  0  0  0  0  0  0  0  0  0
    9.4070  -41.9049   16.6684 C   0  0  2  0  0  0  0  0  0  0  0  0
    8.3132  -41.7126   15.8131 O   0  0  0  0  0  0  0  0  0  0  0  0
    7.0042  -43.0808   12.5104 C   0  0  1  0  0  0  0  0  0  0  0  0
    7.8275  -42.2201   11.7027 O   0  0  0  0  0  0  0  0  0  0  0  0
    5.6071  -48.5189   15.0741 C   0  0  1  0  0  0  0  0  0  0  0  0
    5.6593  -49.7112   14.2804 O   0  0  0  0  0  0  0  0  0  0  0  0
   14.2151  -35.0552   15.4219 C   0  0  2  0  0  0  0  0  0  0  0  0
   15.6368  -34.9881   15.4709 O   0  0  0  0  0  0  0  0  0  0  0  0
   11.0569  -37.2290   18.5080 C   0  0  2  0  0  0  0  0  0  0  0  0
    8.7994  -42.0227   18.0866 C   0  0  2  0  0  0  0  0  0  0  0  0
    9.5343  -41.0516   18.8177 O   0  0  0  0  0  0  0  0  0  0  0  0
    7.7302  -44.5254   12.5294 C   0  0  2  0  0  0  0  0  0  0  0  0
    6.8661  -45.3531   13.3306 O   0  0  0  0  0  0  0  0  0  0  0  0
    6.5715  -48.6762   16.2724 C   0  0  2  0  0  0  0  0  0  0  0  0
    5.7443  -49.0581   17.3933 O   0  0  0  0  0  0  0  0  0  0  0  0
   13.6193  -34.6954   16.8131 C   0  0  2  0  0  0  0  0  0  0  0  0
   12.1443  -34.7605   16.7145 O   0  0  0  0  0  0  0  0  0  0  0  0
   11.5123  -38.4860   19.3102 C   0  0  2  0  0  0  0  0  0  0  0  0
   11.3530  -39.6361   18.4452 O   0  0  0  0  0  0  0  0  0  0  0  0
    8.9903  -43.3763   18.7617 C   0  0  0  0  0  0  0  0  0  0  0  0
    8.2400  -43.3457   19.9854 O   0  0  0  0  0  0  0  0  0  0  0  0
    9.0327  -44.3188   13.2794 C   0  0  1  0  0  0  0  0  0  0  0  0
    9.1554  -43.6126   14.5317 O   0  0  0  0  0  0  0  0  0  0  0  0
    7.3659  -47.3945   16.5086 C   0  0  2  0  0  0  0  0  0  0  0  0
    8.0317  -46.8645   15.3291 O   0  0  0  0  0  0  0  0  0  0  0  0
   13.9948  -33.3137   17.2454 C   0  0  0  0  0  0  0  0  0  0  0  0
   13.4640  -33.1002   18.5254 O   0  0  0  0  0  0  0  0  0  0  0  0
   10.6545  -38.6311   20.6201 C   0  0  1  0  0  0  0  0  0  0  0  0
   11.1454  -39.7931   21.3739 O   0  0  0  0  0  0  0  0  0  0  0  0
    9.8685  -45.6376   13.4432 C   0  0  0  0  0  0  0  0  0  0  0  0
    9.6499  -46.6194   12.3534 N   0  0  0  0  0  0  0  0  0  0  0  0
    8.4005  -47.2787   17.6258 C   0  0  0  0  0  0  0  0  0  0  0  0
    7.7948  -47.6035   18.9150 O   0  0  0  0  0  0  0  0  0  0  0  0
  1  2  1  1  0  0  0
  1  8  1  0  0  0  0
  1 36  1  0  0  0  0
  3  4  1  1  0  0  0
  3 10  1  0  0  0  0
  3 47  1  0  0  0  0
  5 11  1  0  0  0  0
  5 30  1  0  0  0  0
  5 38  1  1  0  0  0
  6 21  1  1  0  0  0
  6 42  1  0  0  0  0
  7 15  1  0  0  0  0
  7 44  1  0  0  0  0
  7 32  1  1  0  0  0
  8  9  1  1  0  0  0
  8 17  1  0  0  0  0
 11 12  1  6  0  0  0
 11 20  1  0  0  0  0
 13  6  1  0  0  0  0
 13 14  1  1  0  0  0
 15 16  1  6  0  0  0
 15 24  1  0  0  0  0
 17 26  1  0  0  0  0
 18 10  1  0  0  0  0
 18 19  1  6  0  0  0
 20 21  1  6  0  0  0
 20 29  1  0  0  0  0
 22 13  1  0  0  0  0
 22 23  1  6  0  0  0
 24 25  1  6  0  0  0
 24 33  1  0  0  0  0
 26 27  1  1  0  0  0
 26 35  1  0  0  0  0
 28  2  1  6  0  0  0
 28 18  1  0  0  0  0
 29 30  1  0  0  0  0
 29 39  1  1  0  0  0
 31 22  1  0  0  0  0
 31 32  1  1  0  0  0
 31 41  1  0  0  0  0
 33 34  1  1  0  0  0
 33 43  1  0  0  0  0
 35 36  1  0  0  0  0
 35 45  1  6  0  0  0
 37 28  1  0  0  0  0
 37 38  1  6  0  0  0
 39 40  1  0  0  0  0
 41 42  1  0  0  0  0
 41 49  1  1  0  0  0
 43 44  1  0  0  0  0
 43 51  1  1  0  0  0
 45 46  1  0  0  0  0
 47 37  1  0  0  0  0
 47 48  1  1  0  0  0
 49 50  1  0  0  0  0
 51 52  1  0  0  0  0
M  END
>  <CHROM.1>
-153.20651932,150.61698228,157.95794650,-158.06906816,96.17761371,-64.17929989
-173.61116959,-162.94142191,-177.55801305,-64.40365642,28.75746646,-55.52788795
9.58754902,-41.36943501,16.49096334,-0.36310370,-1.09874052,-1.70564365

>  <Name>
2fd0_lig

>  <RI>
2.85265e+07

>  <Rbt.Current_Directory>
/home/itssahil/PROJECTS/Mol_Feturizer/New_Systems/rnas/2fd0

>  <Rbt.Executable>
rbdock ($Id: //depot/dev/client3/rdock/2013.1/src/exe/rbdock.cxx#4 $)

>  <Rbt.Library>
libRbt.so (2013.1, Build901 2013/11/27)

>  <Rbt.Parameter_File>
/export/apps/rDock/src/rDock_2013.1_src/data/scripts/dock_solv.prm

>  <Rbt.Receptor>
prm/blind_docking_60.prm

>  <SCORE>
-14.1158

>  <SCORE.INTER>
-21.5471

>  <SCORE.INTER.CONST>
1

>  <SCORE.INTER.POLAR>
-1.43716

>  <SCORE.INTER.ROT>
12

>  <SCORE.INTER.SOLV>
23.5726

>  <SCORE.INTER.VDW>
-29.0317

>  <SCORE.INTER.norm>
-0.414367

>  <SCORE.INTRA>
5.9803

>  <SCORE.INTRA.DIHEDRAL>
-3.22498

>  <SCORE.INTRA.DIHEDRAL.0>
23.9727

>  <SCORE.INTRA.POLAR>
0

>  <SCORE.INTRA.POLAR.0>
0

>  <SCORE.INTRA.REPUL>
0.281245

>  <SCORE.INTRA.REPUL.0>
0

>  <SCORE.INTRA.SOLV>
3.90529

>  <SCORE.INTRA.SOLV.lig_0>
-115.028

>  <SCORE.INTRA.VDW>
4.23392

>  <SCORE.INTRA.VDW.0>
-6.82393

>  <SCORE.INTRA.norm>
0.115006

>  <SCORE.RESTR>
1.45098

>  <SCORE.RESTR.CAVITY>
1.45098

>  <SCORE.RESTR.norm>
0.0279035

>  <SCORE.SYSTEM>
0

>  <SCORE.SYSTEM.CONST>
0

>  <SCORE.SYSTEM.DIHEDRAL>
0

>  <SCORE.SYSTEM.SOLV>
0

>  <SCORE.SYSTEM.norm>
0

>  <SCORE.heavy>
52

>  <SCORE.norm>
-0.271457

>  <RMSD>
13.983

$$$$
2fd0_lig
 OpenBabel11021811433D
libRbt.so/2013.1/901 2013/11/27
 52 56  0  0  0  0  0  0  0  0999 V2000
    2.2900  -45.8836   10.5368 C   0  0  2  0  0  0  0  0  0  0  0  0
    3.5057  -46.3576    9.9417 O   0  0  0  0  0  0  0  0  0  0  0  0
    5.2734  -48.7689   13.0966 C   0  0  2  0  0  0  0  0  0  0  0  0
    6.1414  -49.7233   13.8056 N   0  0  0  0  0  0  0  0  0  0  0  0
    6.7173  -44.5714   11.8656 C   0  0  1  0  0  0  0  0  0  0  0  0
    8.8561  -42.6522   13.7828 C   0  0  1  0  0  0  0  0  0  0  0  0
   11.0996  -39.8511   16.7234 C   0  0  1  0  0  0  0  0  0  0  0  0
    1.4041  -45.2324    9.4131 C   0  0  2  0  0  0  0  0  0  0  0  0
    1.1312  -46.1652    8.3286 N   0  0  0  0  0  0  0  0  0  0  0  0
    4.5173  -49.4947   11.8989 C   0  0  0  0  0  0  0  0  0  0  0  0
    8.1889  -44.8754   11.6521 C   0  0  2  0  0  0  0  0  0  0  0  0
    8.7285  -45.7438   12.6879 O   0  0  0  0  0  0  0  0  0  0  0  0
    9.3895  -41.1604   14.0052 C   0  0  2  0  0  0  0  0  0  0  0  0
   10.8731  -41.1491   14.1241 N   0  0  0  0  0  0  0  0  0  0  0  0
   10.4605  -39.2433   17.9922 C   0  0  1  0  0  0  0  0  0  0  0  0
   11.0083  -39.9041   19.1597 O   0  0  0  0  0  0  0  0  0  0  0  0
    2.0779  -43.9142    8.8794 C   0  0  0  0  0  0  0  0  0  0  0  0
    3.5644  -48.4563   11.1353 C   0  0  2  0  0  0  0  0  0  0  0  0
    2.8552  -49.1020   10.0209 N   0  0  0  0  0  0  0  0  0  0  0  0
    8.8102  -43.4927   11.5497 C   0  0  2  0  0  0  0  0  0  0  0  0
    9.5565  -43.1795   12.6941 O   0  0  0  0  0  0  0  0  0  0  0  0
    8.5857  -40.5441   15.2643 C   0  0  1  0  0  0  0  0  0  0  0  0
    7.1784  -40.6235   14.9745 O   0  0  0  0  0  0  0  0  0  0  0  0
   10.5967  -37.7103   18.1976 C   0  0  1  0  0  0  0  0  0  0  0  0
   11.7614  -37.4740   18.9988 O   0  0  0  0  0  0  0  0  0  0  0  0
    2.3318  -42.9602   10.0919 C   0  0  2  0  0  0  0  0  0  0  0  0
    2.9258  -41.7446    9.6474 O   0  0  0  0  0  0  0  0  0  0  0  0
    4.4209  -47.2710   10.6090 C   0  0  2  0  0  0  0  0  0  0  0  0
    7.6753  -42.4418   11.5032 C   0  0  2  0  0  0  0  0  0  0  0  0
    6.5120  -43.2499   11.3974 O   0  0  0  0  0  0  0  0  0  0  0  0
    8.8264  -41.4043   16.6120 C   0  0  2  0  0  0  0  0  0  0  0  0
   10.2377  -41.2822   16.8710 O   0  0  0  0  0  0  0  0  0  0  0  0
   10.6963  -36.8582   16.9113 C   0  0  2  0  0  0  0  0  0  0  0  0
    9.8834  -35.6888   17.1522 O   0  0  0  0  0  0  0  0  0  0  0  0
    3.2673  -43.6635   11.1166 C   0  0  2  0  0  0  0  0  0  0  0  0
    2.6074  -44.9099   11.5646 O   0  0  0  0  0  0  0  0  0  0  0  0
    5.2282  -46.5612   11.7383 C   0  0  2  0  0  0  0  0  0  0  0  0
    6.0132  -45.5135   11.1201 O   0  0  0  0  0  0  0  0  0  0  0  0
    7.7149  -41.4997   10.3051 C   0  0  0  0  0  0  0  0  0  0  0  0
    6.5124  -40.7164   10.3460 O   0  0  0  0  0  0  0  0  0  0  0  0
    8.5268  -42.8436   16.2377 C   0  0  1  0  0  0  0  0  0  0  0  0
    9.0227  -43.5040   15.0544 O   0  0  0  0  0  0  0  0  0  0  0  0
   10.2638  -37.6608   15.6872 C   0  0  2  0  0  0  0  0  0  0  0  0
   10.9146  -38.9538   15.5455 O   0  0  0  0  0  0  0  0  0  0  0  0
    3.5213  -42.8142   12.3214 C   0  0  0  0  0  0  0  0  0  0  0  0
    4.3224  -43.5475   13.2080 O   0  0  0  0  0  0  0  0  0  0  0  0
    6.1442  -47.6003   12.4826 C   0  0  1  0  0  0  0  0  0  0  0  0
    6.8485  -46.9074   13.5704 O   0  0  0  0  0  0  0  0  0  0  0  0
    8.7515  -43.8506   17.4209 C   0  0  0  0  0  0  0  0  0  0  0  0
    9.9883  -43.5901   18.1967 N   0  0  0  0  0  0  0  0  0  0  0  0
   10.2751  -37.0622   14.2824 C   0  0  0  0  0  0  0  0  0  0  0  0
    9.8033  -38.0433   13.3080 O   0  0  0  0  0  0  0  0  0  0  0  0
  1  2  1  6  0  0  0
  1  8  1  0  0  0  0
  1 36  1  0  0  0  0
  3  4  1  6  0  0  0
  3 10  1  0  0  0  0
  3 47  1  0  0  0  0
  5 11  1  0  0  0  0
  5 30  1  0  0  0  0
  5 38  1  6  0  0  0
  6 21  1  6  0  0  0
  6 42  1  0  0  0  0
  7 15  1  0  0  0  0
  7 44  1  0  0  0  0
  7 32  1  6  0  0  0
  8  9  1  6  0  0  0
  8 17  1  0  0  0  0
 11 12  1  1  0  0  0
 11 20  1  0  0  0  0
 13  6  1  0  0  0  0
 13 14  1  1  0  0  0
 15 16  1  1  0  0  0
 15 24  1  0  0  0  0
 17 26  1  0  0  0  0
 18 10  1  0  0  0  0
 18 19  1  6  0  0  0
 20 21  1  1  0  0  0
 20 29  1  0  0  0  0
 22 13  1  0  0  0  0
 22 23  1  6  0  0  0
 24 25  1  1  0  0  0
 24 33  1  0  0  0  0
 26 27  1  6  0  0  0
 26 35  1  0  0  0  0
 28  2  1  1  0  0  0
 28 18  1  0  0  0  0
 29 30  1  0  0  0  0
 29 39  1  6  0  0  0
 31 22  1  0  0  0  0
 31 32  1  6  0  0  0
 31 41  1  0  0  0  0
 33 34  1  1  0  0  0
 33 43  1  0  0  0  0
 35 36  1  0  0  0  0
 35 45  1  1  0  0  0
 37 28  1  0  0  0  0
 37 38  1  6  0  0  0
 39 40  1  0  0  0  0
 41 42  1  0  0  0  0
 41 49  1  1  0  0  0
 43 44  1  0  0  0  0
 43 51  1  6  0  0  0
 45 46  1  0  0  0  0
 47 37  1  0  0  0  0
 47 48  1  1  0  0  0
 49 50  1  0  0  0  0
 51 52  1  0  0  0  0
M  END
>  <CHROM.1>
-165.75223922,111.04713716,-115.47430798,72.21083446,-84.46448070,50.02089174
173.15500349,42.49418582,177.55824570,171.40421029,-42.71350301,-179.48015002
7.10009387,-42.97840331,13.38266287,2.57141075,0.81201230,2.97705191

>  <Name>
2fd0_lig

>  <RI>
2.60878e+07

>  <Rbt.Current_Directory>
/home/itssahil/PROJECTS/Mol_Feturizer/New_Systems/rnas/2fd0

>  <Rbt.Executable>
rbdock ($Id: //depot/dev/client3/rdock/2013.1/src/exe/rbdock.cxx#4 $)

>  <Rbt.Library>
libRbt.so (2013.1, Build901 2013/11/27)

>  <Rbt.Parameter_File>
/export/apps/rDock/src/rDock_2013.1_src/data/scripts/dock_solv.prm

>  <Rbt.Receptor>
prm/blind_docking_80.prm

>  <SCORE>
-5.94931

>  <SCORE.INTER>
-15.2715

>  <SCORE.INTER.CONST>
1

>  <SCORE.INTER.POLAR>
-1.3608

>  <SCORE.INTER.ROT>
12

>  <SCORE.INTER.SOLV>
25.425

>  <SCORE.INTER.VDW>
-25.72

>  <SCORE.INTER.norm>
-0.293683

>  <SCORE.INTRA>
5.67767

>  <SCORE.INTRA.DIHEDRAL>
-1.31157

>  <SCORE.INTRA.DIHEDRAL.0>
23.9727

>  <SCORE.INTRA.POLAR>
0

>  <SCORE.INTRA.POLAR.0>
0

>  <SCORE.INTRA.REPUL>
0.035807

>  <SCORE.INTRA.REPUL.0>
0

>  <SCORE.INTRA.SOLV>
3.83889

>  <SCORE.INTRA.SOLV.lig_0>
-115.028

>  <SCORE.INTRA.VDW>
4.23497

>  <SCORE.INTRA.VDW.0>
-6.82393

>  <SCORE.INTRA.norm>
0.109186

>  <SCORE.RESTR>
3.64456

>  <SCORE.RESTR.CAVITY>
3.64456

>  <SCORE.RESTR.norm>
0.0700876

>  <SCORE.SYSTEM>
0

>  <SCORE.SYSTEM.CONST>
0

>  <SCORE.SYSTEM.DIHEDRAL>
0

>  <SCORE.SYSTEM.SOLV>
0

>  <SCORE.SYSTEM.norm>
0

>  <SCORE.heavy>
52

>  <SCORE.norm>
-0.11441

>  <RMSD>
14.013

$$$$
2fd0_lig
 OpenBabel11021811433D
libRbt.so/2013.1/901 2013/11/27
 52 56  0  0  0  0  0  0  0  0999 V2000
    7.6553  -48.4901   14.6931 C   0  0  2  0  0  0  0  0  0  0  0  0
    6.2247  -48.3885   14.6997 O   0  0  0  0  0  0  0  0  0  0  0  0
    3.7223  -47.2021   11.3497 C   0  0  2  0  0  0  0  0  0  0  0  0
    2.9144  -46.3843   10.4300 N   0  0  0  0  0  0  0  0  0  0  0  0
    7.7064  -45.7070   12.8400 C   0  0  1  0  0  0  0  0  0  0  0  0
    9.4693  -41.8502   12.8914 C   0  0  1  0  0  0  0  0  0  0  0  0
   11.2197  -38.2996   15.8741 C   0  0  1  0  0  0  0  0  0  0  0  0
    8.0716  -49.7418   15.5485 C   0  0  2  0  0  0  0  0  0  0  0  0
    7.4541  -50.9652   15.0558 N   0  0  0  0  0  0  0  0  0  0  0  0
    3.1301  -47.1222   12.8248 C   0  0  0  0  0  0  0  0  0  0  0  0
    9.1981  -45.5060   12.6448 C   0  0  2  0  0  0  0  0  0  0  0  0
    9.9533  -45.7644   13.8618 O   0  0  0  0  0  0  0  0  0  0  0  0
   10.8055  -41.0122   13.1592 C   0  0  2  0  0  0  0  0  0  0  0  0
   11.4020  -41.3864   14.4705 N   0  0  0  0  0  0  0  0  0  0  0  0
   10.4878  -37.8363   17.1537 C   0  0  1  0  0  0  0  0  0  0  0  0
   10.3563  -38.9623   18.0564 O   0  0  0  0  0  0  0  0  0  0  0  0
    7.7377  -49.5027   17.0676 C   0  0  0  0  0  0  0  0  0  0  0  0
    4.0047  -48.0221   13.8220 C   0  0  2  0  0  0  0  0  0  0  0  0
    3.4796  -47.9636   15.1941 N   0  0  0  0  0  0  0  0  0  0  0  0
    9.2814  -44.0920   12.0950 C   0  0  2  0  0  0  0  0  0  0  0  0
    9.7946  -43.2006   13.0473 O   0  0  0  0  0  0  0  0  0  0  0  0
   10.4371  -39.4488   12.9830 C   0  0  1  0  0  0  0  0  0  0  0  0
    9.8890  -39.2677   11.6647 O   0  0  0  0  0  0  0  0  0  0  0  0
   11.1097  -36.6540   17.9452 C   0  0  1  0  0  0  0  0  0  0  0  0
   11.9645  -37.2013   18.9571 O   0  0  0  0  0  0  0  0  0  0  0  0
    8.4382  -48.1830   17.5284 C   0  0  2  0  0  0  0  0  0  0  0  0
    8.1749  -47.9397   18.9066 O   0  0  0  0  0  0  0  0  0  0  0  0
    5.4787  -47.5300   13.7923 C   0  0  2  0  0  0  0  0  0  0  0  0
    7.8479  -43.5905   11.7983 C   0  0  2  0  0  0  0  0  0  0  0  0
    7.0646  -44.7568   12.0075 O   0  0  0  0  0  0  0  0  0  0  0  0
    9.2934  -38.9783   14.0246 C   0  0  2  0  0  0  0  0  0  0  0  0
    9.8902  -39.1602   15.3224 O   0  0  0  0  0  0  0  0  0  0  0  0
   11.9153  -35.6287   17.1143 C   0  0  2  0  0  0  0  0  0  0  0  0
   11.5614  -34.3318   17.6428 O   0  0  0  0  0  0  0  0  0  0  0  0
    7.9170  -46.9940   16.6713 C   0  0  2  0  0  0  0  0  0  0  0  0
    8.2244  -47.2781   15.2521 O   0  0  0  0  0  0  0  0  0  0  0  0
    6.0878  -47.5345   12.3570 C   0  0  2  0  0  0  0  0  0  0  0  0
    7.4367  -47.0176   12.4546 O   0  0  0  0  0  0  0  0  0  0  0  0
    7.6144  -43.1059   10.3718 C   0  0  0  0  0  0  0  0  0  0  0  0
    6.2660  -42.6168   10.3090 O   0  0  0  0  0  0  0  0  0  0  0  0
    8.1623  -39.9772   13.8688 C   0  0  1  0  0  0  0  0  0  0  0  0
    8.3318  -41.4096   13.8310 O   0  0  0  0  0  0  0  0  0  0  0  0
   11.6239  -35.7809   15.6238 C   0  0  2  0  0  0  0  0  0  0  0  0
   11.7592  -37.1355   15.1119 O   0  0  0  0  0  0  0  0  0  0  0  0
    8.5770  -45.7034   17.0397 C   0  0  0  0  0  0  0  0  0  0  0  0
    8.3868  -45.4952   18.4130 O   0  0  0  0  0  0  0  0  0  0  0  0
    5.2067  -46.6583   11.3933 C   0  0  1  0  0  0  0  0  0  0  0  0
    5.7807  -46.7283   10.0424 O   0  0  0  0  0  0  0  0  0  0  0  0
    6.9616  -39.7097   14.8441 C   0  0  0  0  0  0  0  0  0  0  0  0
    6.3552  -38.3656   14.6862 N   0  0  0  0  0  0  0  0  0  0  0  0
   12.2957  -34.8982   14.5743 C   0  0  0  0  0  0  0  0  0  0  0  0
   11.7595  -35.1893   13.2468 O   0  0  0  0  0  0  0  0  0  0  0  0
  1  2  1  1  0  0  0
  1  8  1  0  0  0  0
  1 36  1  0  0  0  0
  3  4  1  6  0  0  0
  3 10  1  0  0  0  0
  3 47  1  0  0  0  0
  5 11  1  0  0  0  0
  5 30  1  0  0  0  0
  5 38  1  6  0  0  0
  6 21  1  1  0  0  0
  6 42  1  0  0  0  0
  7 15  1  0  0  0  0
  7 44  1  0  0  0  0
  7 32  1  6  0  0  0
  8  9  1  6  0  0  0
  8 17  1  0  0  0  0
 11 12  1  1  0  0  0
 11 20  1  0  0  0  0
 13  6  1  0  0  0  0
 13 14  1  1  0  0  0
 15 16  1  1  0  0  0
 15 24  1  0  0  0  0
 17 26  1  0  0  0  0
 18 10  1  0  0  0  0
 18 19  1  1  0  0  0
 20 21  1  1  0  0  0
 20 29  1  0  0  0  0
 22 13  1  0  0  0  0
 22 23  1  6  0  0  0
 24 25  1  1  0  0  0
 24 33  1  0  0  0  0
 26 27  1  1  0  0  0
 26 35  1  0  0  0  0
 28  2  1  1  0  0  0
 28 18  1  0  0  0  0
 29 30  1  0  0  0  0
 29 39  1  6  0  0  0
 31 22  1  0  0  0  0
 31 32  1  1  0  0  0
 31 41  1  0  0  0  0
 33 34  1  1  0  0  0
 33 43  1  0  0  0  0
 35 36  1  0  0  0  0
 35 45  1  1  0  0  0
 37 28  1  0  0  0  0
 37 38  1  1  0  0  0
 39 40  1  0  0  0  0
 41 42  1  0  0  0  0
 41 49  1  1  0  0  0
 43 44  1  0  0  0  0
 43 51  1  6  0  0  0
 45 46  1  0  0  0  0
 47 37  1  0  0  0  0
 47 48  1  6  0  0  0
 49 50  1  0  0  0  0
 51 52  1  0  0  0  0
M  END
>  <CHROM.1>
-166.53948384,-172.80974794,-136.65562785,125.78391634,-156.51347331,163.16462704
-176.88576387,64.91797001,-55.65746897,-64.81270263,58.56499272,-175.66205667
8.41115474,-43.06682830,14.37277586,-2.48683891,-1.03887684,-0.67412787

>  <Name>
2fd0_lig

>  <RI>
2.60878e+07

>  <Rbt.Current_Directory>
/home/itssahil/PROJECTS/Mol_Feturizer/New_Systems/rnas/2fd0

>  <Rbt.Executable>
rbdock ($Id: //depot/dev/client3/rdock/2013.1/src/exe/rbdock.cxx#4 $)

>  <Rbt.Library>
libRbt.so (2013.1, Build901 2013/11/27)

>  <Rbt.Parameter_File>
/export/apps/rDock/src/rDock_2013.1_src/data/scripts/dock_solv.prm

>  <Rbt.Receptor>
prm/blind_docking_80.prm

>  <SCORE>
-6.64131

>  <SCORE.INTER>
-10.115

>  <SCORE.INTER.CONST>
1

>  <SCORE.INTER.POLAR>
-1.08235

>  <SCORE.INTER.ROT>
12

>  <SCORE.INTER.SOLV>
26.8719

>  <SCORE.INTER.VDW>
-23.6928

>  <SCORE.INTER.norm>
-0.19452

>  <SCORE.INTRA>
0.872792

>  <SCORE.INTRA.DIHEDRAL>
-4.19603

>  <SCORE.INTRA.DIHEDRAL.0>
23.9727

>  <SCORE.INTRA.POLAR>
0

>  <SCORE.INTRA.POLAR.0>
0

>  <SCORE.INTRA.REPUL>
0

>  <SCORE.INTRA.REPUL.0>
0

>  <SCORE.INTRA.SOLV>
-4.1617

>  <SCORE.INTRA.SOLV.lig_0>
-115.028

>  <SCORE.INTRA.VDW>
5.05166

>  <SCORE.INTRA.VDW.0>
-6.82393

>  <SCORE.INTRA.norm>
0.0167845

>  <SCORE.RESTR>
2.60093

>  <SCORE.RESTR.CAVITY>
2.60093

>  <SCORE.RESTR.norm>
0.0500179

>  <SCORE.SYSTEM>
0

>  <SCORE.SYSTEM.CONST>
0

>  <SCORE.SYSTEM.DIHEDRAL>
0

>  <SCORE.SYSTEM.SOLV>
0

>  <SCORE.SYSTEM.norm>
0

>  <SCORE.heavy>
52

>  <SCORE.norm>
-0.127717

>  <RMSD>
14.017

$$$$
2fd0_lig
 OpenBabel11021811433D
libRbt.so/2013.1/901 2013/11/27
 52 56  0  0  0  0  0  0  0  0999 V2000
    4.9581  -48.2768   15.1316 C   0  0  2  0  0  0  0  0  0  0  0  0
    4.7898  -46.8710   14.9024 O   0  0  0  0  0  0  0  0  0  0  0  0
    4.8825  -46.3407   10.5893 C   0  0  2  0  0  0  0  0  0  0  0  0
    5.0431  -45.7288    9.2601 N   0  0  0  0  0  0  0  0  0  0  0  0
    7.9354  -45.6920   13.8811 C   0  0  1  0  0  0  0  0  0  0  0  0
    9.1900  -41.4710   12.8649 C   0  0  1  0  0  0  0  0  0  0  0  0
   11.2140  -38.2580   16.1268 C   0  0  1  0  0  0  0  0  0  0  0  0
    4.1186  -48.6809   16.3979 C   0  0  2  0  0  0  0  0  0  0  0  0
    2.7116  -48.3360   16.2486 N   0  0  0  0  0  0  0  0  0  0  0  0
    3.8167  -45.5270   11.4466 C   0  0  0  0  0  0  0  0  0  0  0  0
    8.4460  -45.0852   12.5870 C   0  0  2  0  0  0  0  0  0  0  0  0
    9.8398  -45.4186   12.3336 O   0  0  0  0  0  0  0  0  0  0  0  0
   10.6182  -40.8572   13.2426 C   0  0  2  0  0  0  0  0  0  0  0  0
   11.0690  -41.3621   14.5683 N   0  0  0  0  0  0  0  0  0  0  0  0
   10.5172  -38.0908   17.4958 C   0  0  1  0  0  0  0  0  0  0  0  0
   10.3906  -39.3909   18.1231 O   0  0  0  0  0  0  0  0  0  0  0  0
    4.7337  -48.0319   17.6928 C   0  0  0  0  0  0  0  0  0  0  0  0
    3.6355  -46.2016   12.8894 C   0  0  2  0  0  0  0  0  0  0  0  0
    2.6565  -45.4664   13.7037 N   0  0  0  0  0  0  0  0  0  0  0  0
    8.1333  -43.6081   12.7576 C   0  0  2  0  0  0  0  0  0  0  0  0
    9.2973  -42.8598   12.9813 O   0  0  0  0  0  0  0  0  0  0  0  0
   10.5019  -39.2508   13.1126 C   0  0  1  0  0  0  0  0  0  0  0  0
   10.0702  -38.9438   11.7745 O   0  0  0  0  0  0  0  0  0  0  0  0
   11.1728  -37.1238   18.5187 C   0  0  1  0  0  0  0  0  0  0  0  0
   12.0423  -37.8933   19.3590 O   0  0  0  0  0  0  0  0  0  0  0  0
    6.2367  -48.4511   17.7925 C   0  0  2  0  0  0  0  0  0  0  0  0
    6.8267  -47.8974   18.9645 O   0  0  0  0  0  0  0  0  0  0  0  0
    5.0115  -46.2380   13.6112 C   0  0  2  0  0  0  0  0  0  0  0  0
    7.2803  -43.4267   14.0359 C   0  0  2  0  0  0  0  0  0  0  0  0
    7.0025  -44.7676   14.4131 O   0  0  0  0  0  0  0  0  0  0  0  0
    9.3801  -38.6457   14.1073 C   0  0  2  0  0  0  0  0  0  0  0  0
    9.8610  -38.9601   15.4277 O   0  0  0  0  0  0  0  0  0  0  0  0
   11.9736  -35.9436   17.9219 C   0  0  2  0  0  0  0  0  0  0  0  0
   11.6493  -34.7973   18.7388 O   0  0  0  0  0  0  0  0  0  0  0  0
    6.9975  -47.9534   16.5303 C   0  0  2  0  0  0  0  0  0  0  0  0
    6.3652  -48.5633   15.3396 O   0  0  0  0  0  0  0  0  0  0  0  0
    6.1078  -46.9760   12.7839 C   0  0  2  0  0  0  0  0  0  0  0  0
    7.3431  -46.9039   13.5355 O   0  0  0  0  0  0  0  0  0  0  0  0
    5.9546  -42.7020   13.8315 C   0  0  0  0  0  0  0  0  0  0  0  0
    5.4066  -42.4519   15.1347 O   0  0  0  0  0  0  0  0  0  0  0  0
    8.1229  -39.4535   13.8460 C   0  0  1  0  0  0  0  0  0  0  0  0
    8.0761  -40.8930   13.7569 O   0  0  0  0  0  0  0  0  0  0  0  0
   11.6470  -35.7515   16.4433 C   0  0  2  0  0  0  0  0  0  0  0  0
   11.7523  -36.9560   15.6348 O   0  0  0  0  0  0  0  0  0  0  0  0
    8.4382  -48.3549   16.5474 C   0  0  0  0  0  0  0  0  0  0  0  0
    9.0367  -47.7754   17.6751 O   0  0  0  0  0  0  0  0  0  0  0  0
    6.2583  -46.3074   11.3686 C   0  0  1  0  0  0  0  0  0  0  0  0
    7.2603  -47.0596   10.6006 O   0  0  0  0  0  0  0  0  0  0  0  0
    6.9183  -39.0379   14.7629 C   0  0  0  0  0  0  0  0  0  0  0  0
    6.4408  -37.6539   14.5264 N   0  0  0  0  0  0  0  0  0  0  0  0
   12.3072  -34.6596   15.6045 C   0  0  0  0  0  0  0  0  0  0  0  0
   11.5440  -34.4275   14.3806 O   0  0  0  0  0  0  0  0  0  0  0  0
  1  2  1  1  0  0  0
  1  8  1  0  0  0  0
  1 36  1  0  0  0  0
  3  4  1  6  0  0  0
  3 10  1  0  0  0  0
  3 47  1  0  0  0  0
  5 11  1  0  0  0  0
  5 30  1  0  0  0  0
  5 38  1  6  0  0  0
  6 21  1  1  0  0  0
  6 42  1  0  0  0  0
  7 15  1  0  0  0  0
  7 44  1  0  0  0  0
  7 32  1  6  0  0  0
  8  9  1  6  0  0  0
  8 17  1  0  0  0  0
 11 12  1  1  0  0  0
 11 20  1  0  0  0  0
 13  6  1  0  0  0  0
 13 14  1  1  0  0  0
 15 16  1  1  0  0  0
 15 24  1  0  0  0  0
 17 26  1  0  0  0  0
 18 10  1  0  0  0  0
 18 19  1  1  0  0  0
 20 21  1  1  0  0  0
 20 29  1  0  0  0  0
 22 13  1  0  0  0  0
 22 23  1  6  0  0  0
 24 25  1  1  0  0  0
 24 33  1  0  0  0  0
 26 27  1  1  0  0  0
 26 35  1  0  0  0  0
 28  2  1  1  0  0  0
 28 18  1  0  0  0  0
 29 30  1  0  0  0  0
 29 39  1  6  0  0  0
 31 22  1  0  0  0  0
 31 32  1  1  0  0  0
 31 41  1  0  0  0  0
 33 34  1  1  0  0  0
 33 43  1  0  0  0  0
 35 36  1  0  0  0  0
 35 45  1  1  0  0  0
 37 28  1  0  0  0  0
 37 38  1  1  0  0  0
 39 40  1  0  0  0  0
 41 42  1  0  0  0  0
 41 49  1  1  0  0  0
 43 44  1  0  0  0  0
 43 51  1  6  0  0  0
 45 46  1  0  0  0  0
 47 37  1  0  0  0  0
 47 48  1  6  0  0  0
 49 50  1  0  0  0  0
 51 52  1  0  0  0  0
M  END
>  <CHROM.1>
-157.80895705,-69.40581465,176.96864650,137.47732913,166.44784977,93.07646289
-171.53622133,69.02375948,-60.93713401,-59.77521866,64.62266328,-162.64451687
7.98151356,-42.81586489,14.74532186,-2.83748540,-1.06541438,-1.05641681

>  <Name>
2fd0_lig

>  <RI>
2.85265e+07

>  <Rbt.Current_Directory>
/home/itssahil/PROJECTS/Mol_Feturizer/New_Systems/rnas/2fd0

>  <Rbt.Executable>
rbdock ($Id: //depot/dev/client3/rdock/2013.1/src/exe/rbdock.cxx#4 $)

>  <Rbt.Library>
libRbt.so (2013.1, Build901 2013/11/27)

>  <Rbt.Parameter_File>
/export/apps/rDock/src/rDock_2013.1_src/data/scripts/dock_solv.prm

>  <Rbt.Receptor>
prm/blind_docking_60.prm

>  <SCORE>
-7.82441

>  <SCORE.INTER>
-9.17102

>  <SCORE.INTER.CONST>
1

>  <SCORE.INTER.POLAR>
-1.82249

>  <SCORE.INTER.ROT>
12

>  <SCORE.INTER.SOLV>
30.1885

>  <SCORE.INTER.VDW>
-21.7019

>  <SCORE.INTER.norm>
-0.176366

>  <SCORE.INTRA>
-0.94846

>  <SCORE.INTRA.DIHEDRAL>
-7.30957

>  <SCORE.INTRA.DIHEDRAL.0>
23.9727

>  <SCORE.INTRA.POLAR>
0

>  <SCORE.INTRA.POLAR.0>
0

>  <SCORE.INTRA.REPUL>
0

>  <SCORE.INTRA.REPUL.0>
0

>  <SCORE.INTRA.SOLV>
-1.87405

>  <SCORE.INTRA.SOLV.lig_0>
-115.028

>  <SCORE.INTRA.VDW>
3.64335

>  <SCORE.INTRA.VDW.0>
-6.82393

>  <SCORE.INTRA.norm>
-0.0182396

>  <SCORE.RESTR>
2.29507

>  <SCORE.RESTR.CAVITY>
2.29507

>  <SCORE.RESTR.norm>
0.044136

>  <SCORE.SYSTEM>
0

>  <SCORE.SYSTEM.CONST>
0

>  <SCORE.SYSTEM.DIHEDRAL>
0

>  <SCORE.SYSTEM.SOLV>
0

>  <SCORE.SYSTEM.norm>
0

>  <SCORE.heavy>
52

>  <SCORE.norm>
-0.150469

>  <RMSD>
14.047

$$$$
2fd0_lig
 OpenBabel11021811433D
libRbt.so/2013.1/901 2013/11/27
 52 56  0  0  0  0  0  0  0  0999 V2000
    7.6621  -47.9411   15.6937 C   0  0  2  0  0  0  0  0  0  0  0  0
    6.3467  -47.5008   15.3294 O   0  0  0  0  0  0  0  0  0  0  0  0
    5.1342  -46.7444   11.2245 C   0  0  2  0  0  0  0  0  0  0  0  0
    4.7824  -46.0448    9.9780 N   0  0  0  0  0  0  0  0  0  0  0  0
    8.7367  -45.5284   13.7082 C   0  0  1  0  0  0  0  0  0  0  0  0
    9.2585  -41.1617   12.6188 C   0  0  1  0  0  0  0  0  0  0  0  0
   10.9069  -37.4181   15.5800 C   0  0  1  0  0  0  0  0  0  0  0  0
    7.7382  -49.4998   15.5034 C   0  0  2  0  0  0  0  0  0  0  0  0
    7.4077  -49.8969   14.1418 N   0  0  0  0  0  0  0  0  0  0  0  0
    4.1881  -46.2666   12.4118 C   0  0  0  0  0  0  0  0  0  0  0  0
    9.1443  -44.8493   12.4135 C   0  0  2  0  0  0  0  0  0  0  0  0
   10.5770  -44.9361   12.1725 O   0  0  0  0  0  0  0  0  0  0  0  0
   10.5946  -40.3133   12.8521 C   0  0  2  0  0  0  0  0  0  0  0  0
   11.2095  -40.6582   14.1629 N   0  0  0  0  0  0  0  0  0  0  0  0
   10.4525  -37.6037   17.0452 C   0  0  1  0  0  0  0  0  0  0  0  0
   10.8099  -38.9374   17.4850 O   0  0  0  0  0  0  0  0  0  0  0  0
    6.8159  -50.2253   16.5519 C   0  0  0  0  0  0  0  0  0  0  0  0
    4.5657  -47.0378   13.7653 C   0  0  2  0  0  0  0  0  0  0  0  0
    3.7068  -46.6121   14.8802 N   0  0  0  0  0  0  0  0  0  0  0  0
    8.5775  -43.4485   12.5714 C   0  0  2  0  0  0  0  0  0  0  0  0
    9.5914  -42.5074   12.7981 O   0  0  0  0  0  0  0  0  0  0  0  0
   10.2175  -38.7552   12.6488 C   0  0  1  0  0  0  0  0  0  0  0  0
    9.6517  -38.6033   11.3343 O   0  0  0  0  0  0  0  0  0  0  0  0
   10.9871  -36.5909   18.0936 C   0  0  1  0  0  0  0  0  0  0  0  0
   12.1746  -37.1434   18.6757 O   0  0  0  0  0  0  0  0  0  0  0  0
    7.2323  -49.7601   17.9854 C   0  0  2  0  0  0  0  0  0  0  0  0
    6.4310  -50.4098   18.9673 O   0  0  0  0  0  0  0  0  0  0  0  0
    6.0577  -46.7674   14.1064 C   0  0  2  0  0  0  0  0  0  0  0  0
    7.6955  -43.4112   13.8422 C   0  0  2  0  0  0  0  0  0  0  0  0
    7.6525  -44.7778   14.2270 O   0  0  0  0  0  0  0  0  0  0  0  0
    9.0854  -38.2679   13.6953 C   0  0  2  0  0  0  0  0  0  0  0  0
    9.6996  -38.4209   14.9887 O   0  0  0  0  0  0  0  0  0  0  0  0
   11.3043  -35.1718   17.5679 C   0  0  2  0  0  0  0  0  0  0  0  0
   10.8276  -34.2622   18.5837 O   0  0  0  0  0  0  0  0  0  0  0  0
    7.0627  -48.2180   18.0987 C   0  0  2  0  0  0  0  0  0  0  0  0
    7.9221  -47.5825   17.0754 O   0  0  0  0  0  0  0  0  0  0  0  0
    7.0235  -47.1659   12.9491 C   0  0  2  0  0  0  0  0  0  0  0  0
    8.3675  -46.8270   13.3670 O   0  0  0  0  0  0  0  0  0  0  0  0
    6.2655  -42.9299   13.6232 C   0  0  0  0  0  0  0  0  0  0  0  0
    5.5872  -43.0386   14.8839 O   0  0  0  0  0  0  0  0  0  0  0  0
    7.9565  -39.2741   13.5746 C   0  0  1  0  0  0  0  0  0  0  0  0
    8.1315  -40.7064   13.5639 O   0  0  0  0  0  0  0  0  0  0  0  0
   10.6736  -34.9413   16.1973 C   0  0  2  0  0  0  0  0  0  0  0  0
   10.9617  -35.9727   15.2130 O   0  0  0  0  0  0  0  0  0  0  0  0
    7.4800  -47.7033   19.4396 C   0  0  0  0  0  0  0  0  0  0  0  0
    8.8796  -47.6221   19.4568 O   0  0  0  0  0  0  0  0  0  0  0  0
    6.6260  -46.4095   11.6290 C   0  0  1  0  0  0  0  0  0  0  0  0
    7.5229  -46.8483   10.5509 O   0  0  0  0  0  0  0  0  0  0  0  0
    6.7674  -38.9914   14.5598 C   0  0  0  0  0  0  0  0  0  0  0  0
    6.5641  -40.0593   15.5686 N   0  0  0  0  0  0  0  0  0  0  0  0
   10.8389  -33.6243   15.4423 C   0  0  0  0  0  0  0  0  0  0  0  0
   11.6386  -33.8266   14.2364 O   0  0  0  0  0  0  0  0  0  0  0  0
  1  2  1  1  0  0  0
  1  8  1  0  0  0  0
  1 36  1  0  0  0  0
  3  4  1  6  0  0  0
  3 10  1  0  0  0  0
  3 47  1  0  0  0  0
  5 11  1  0  0  0  0
  5 30  1  0  0  0  0
  5 38  1  6  0  0  0
  6 21  1  1  0  0  0
  6 42  1  0  0  0  0
  7 15  1  0  0  0  0
  7 44  1  0  0  0  0
  7 32  1  6  0  0  0
  8  9  1  6  0  0  0
  8 17  1  0  0  0  0
 11 12  1  1  0  0  0
 11 20  1  0  0  0  0
 13  6  1  0  0  0  0
 13 14  1  1  0  0  0
 15 16  1  1  0  0  0
 15 24  1  0  0  0  0
 17 26  1  0  0  0  0
 18 10  1  0  0  0  0
 18 19  1  1  0  0  0
 20 21  1  1  0  0  0
 20 29  1  0  0  0  0
 22 13  1  0  0  0  0
 22 23  1  6  0  0  0
 24 25  1  6  0  0  0
 24 33  1  0  0  0  0
 26 27  1  1  0  0  0
 26 35  1  0  0  0  0
 28  2  1  1  0  0  0
 28 18  1  0  0  0  0
 29 30  1  0  0  0  0
 29 39  1  6  0  0  0
 31 22  1  0  0  0  0
 31 32  1  1  0  0  0
 31 41  1  0  0  0  0
 33 34  1  1  0  0  0
 33 43  1  0  0  0  0
 35 36  1  0  0  0  0
 35 45  1  1  0  0  0
 37 28  1  0  0  0  0
 37 38  1  1  0  0  0
 39 40  1  0  0  0  0
 41 42  1  0  0  0  0
 41 49  1  1  0  0  0
 43 44  1  0  0  0  0
 43 51  1  6  0  0  0
 45 46  1  0  0  0  0
 47 37  1  0  0  0  0
 47 48  1  6  0  0  0
 49 50  1  0  0  0  0
 51 52  1  0  0  0  0
M  END
>  <CHROM.1>
-107.08751369,-87.04935512,-176.74941388,149.19517028,163.96220592,154.97273266
176.66388285,72.87850676,79.08075034,-58.82157078,-115.87400149,112.93109542
8.36643652,-42.83769648,14.77847891,-2.59112343,-1.18500259,-0.92346695

>  <Name>
2fd0_lig

>  <RI>
2.60878e+07

>  <Rbt.Current_Directory>
/home/itssahil/PROJECTS/Mol_Feturizer/New_Systems/rnas/2fd0

>  <Rbt.Executable>
rbdock ($Id: //depot/dev/client3/rdock/2013.1/src/exe/rbdock.cxx#4 $)

>  <Rbt.Library>
libRbt.so (2013.1, Build901 2013/11/27)

>  <Rbt.Parameter_File>
/export/apps/rDock/src/rDock_2013.1_src/data/scripts/dock_solv.prm

>  <Rbt.Receptor>
prm/blind_docking_80.prm

>  <SCORE>
-2.95817

>  <SCORE.INTER>
-14.3785

>  <SCORE.INTER.CONST>
1

>  <SCORE.INTER.POLAR>
-2.27988

>  <SCORE.INTER.ROT>
12

>  <SCORE.INTER.SOLV>
26.3086

>  <SCORE.INTER.VDW>
-22.3556

>  <SCORE.INTER.norm>
-0.27651

>  <SCORE.INTRA>
7.00025

>  <SCORE.INTRA.DIHEDRAL>
4.62974

>  <SCORE.INTRA.DIHEDRAL.0>
23.9727

>  <SCORE.INTRA.POLAR>
0

>  <SCORE.INTRA.POLAR.0>
0

>  <SCORE.INTRA.REPUL>
0

>  <SCORE.INTRA.REPUL.0>
0

>  <SCORE.INTRA.SOLV>
1.86621

>  <SCORE.INTRA.SOLV.lig_0>
-115.028

>  <SCORE.INTRA.VDW>
3.75227

>  <SCORE.INTRA.VDW.0>
-6.82393

>  <SCORE.INTRA.norm>
0.13462

>  <SCORE.RESTR>
4.42009

>  <SCORE.RESTR.CAVITY>
4.42009

>  <SCORE.RESTR.norm>
0.0850018

>  <SCORE.SYSTEM>
0

>  <SCORE.SYSTEM.CONST>
0

>  <SCORE.SYSTEM.DIHEDRAL>
0

>  <SCORE.SYSTEM.SOLV>
0

>  <SCORE.SYSTEM.norm>
0

>  <SCORE.heavy>
52

>  <SCORE.norm>
-0.0568878

>  <RMSD>
14.060

$$$$
2fd0_lig
 OpenBabel11021811433D
libRbt.so/2013.1/901 2013/11/27
 52 56  0  0  0  0  0  0  0  0999 V2000
   -9.2458  -53.3733    5.8477 C   0  0  2  0  0  0  0  0  0  0  0  0
  -10.2681  -52.7367    5.0688 O   0  0  0  0  0  0  0  0  0  0  0  0
  -10.4487  -50.8243    1.1697 C   0  0  2  0  0  0  0  0  0  0  0  0
  -10.2366  -49.8663    0.0724 N   0  0  0  0  0  0  0  0  0  0  0  0
   -7.0599  -52.1885    3.8913 C   0  0  1  0  0  0  0  0  0  0  0  0
   -2.7885  -51.4667    5.2364 C   0  0  1  0  0  0  0  0  0  0  0  0
    0.6351  -54.0084    7.4478 C   0  0  1  0  0  0  0  0  0  0  0  0
   -9.9256  -54.4157    6.8084 C   0  0  2  0  0  0  0  0  0  0  0  0
  -10.7157  -55.3947    6.0749 N   0  0  0  0  0  0  0  0  0  0  0  0
  -11.1053  -50.0934    2.4217 C   0  0  0  0  0  0  0  0  0  0  0  0
   -5.9786  -53.1255    4.3978 C   0  0  2  0  0  0  0  0  0  0  0  0
   -6.1957  -53.5213    5.7814 O   0  0  0  0  0  0  0  0  0  0  0  0
   -1.9111  -52.7985    5.1096 C   0  0  2  0  0  0  0  0  0  0  0  0
   -2.2529  -53.7540    6.1984 N   0  0  0  0  0  0  0  0  0  0  0  0
    0.6582  -54.0729    8.9915 C   0  0  1  0  0  0  0  0  0  0  0  0
   -0.6944  -54.2609    9.4764 O   0  0  0  0  0  0  0  0  0  0  0  0
  -10.7927  -53.6762    7.8936 C   0  0  0  0  0  0  0  0  0  0  0  0
  -11.3455  -51.1407    3.6112 C   0  0  2  0  0  0  0  0  0  0  0  0
  -11.9497  -50.4893    4.7827 N   0  0  0  0  0  0  0  0  0  0  0  0
   -4.7007  -52.3530    4.1171 C   0  0  2  0  0  0  0  0  0  0  0  0
   -4.1275  -51.8628    5.2985 O   0  0  0  0  0  0  0  0  0  0  0  0
   -0.3606  -52.3490    5.0394 C   0  0  1  0  0  0  0  0  0  0  0  0
   -0.2105  -51.4436    3.9309 O   0  0  0  0  0  0  0  0  0  0  0  0
    1.5605  -55.1521    9.6489 C   0  0  1  0  0  0  0  0  0  0  0  0
    0.7579  -56.3165    9.8816 O   0  0  0  0  0  0  0  0  0  0  0  0
   -9.8807  -52.6519    8.6445 C   0  0  2  0  0  0  0  0  0  0  0  0
  -10.6258  -51.9728    9.6505 O   0  0  0  0  0  0  0  0  0  0  0  0
   -9.9878  -51.7890    4.0010 C   0  0  2  0  0  0  0  0  0  0  0  0
   -5.0535  -51.0977    3.2839 C   0  0  2  0  0  0  0  0  0  0  0  0
   -6.4265  -51.3035    2.9839 O   0  0  0  0  0  0  0  0  0  0  0  0
    0.0911  -51.5353    6.3615 C   0  0  2  0  0  0  0  0  0  0  0  0
   -0.0586  -52.4816    7.4366 O   0  0  0  0  0  0  0  0  0  0  0  0
    2.8178  -55.5658    8.8498 C   0  0  2  0  0  0  0  0  0  0  0  0
    3.8771  -55.6913    9.8238 O   0  0  0  0  0  0  0  0  0  0  0  0
   -9.3075  -51.6256    7.6258 C   0  0  2  0  0  0  0  0  0  0  0  0
   -8.5289  -52.3685    6.6103 O   0  0  0  0  0  0  0  0  0  0  0  0
   -9.2751  -52.4702    2.7930 C   0  0  2  0  0  0  0  0  0  0  0  0
   -8.0122  -52.9927    3.2705 O   0  0  0  0  0  0  0  0  0  0  0  0
   -4.2918  -50.9580    1.9706 C   0  0  0  0  0  0  0  0  0  0  0  0
   -4.6089  -52.1106    1.1756 O   0  0  0  0  0  0  0  0  0  0  0  0
   -0.9401  -50.4367    6.5380 C   0  0  1  0  0  0  0  0  0  0  0  0
   -2.3677  -50.6308    6.4590 O   0  0  0  0  0  0  0  0  0  0  0  0
    3.1210  -54.5580    7.7444 C   0  0  2  0  0  0  0  0  0  0  0  0
    1.9944  -54.2455    6.8793 O   0  0  0  0  0  0  0  0  0  0  0  0
   -8.3948  -50.6360    8.2777 C   0  0  0  0  0  0  0  0  0  0  0  0
   -7.2806  -51.3312    8.7684 O   0  0  0  0  0  0  0  0  0  0  0  0
   -9.0630  -51.4292    1.6337 C   0  0  1  0  0  0  0  0  0  0  0  0
   -8.4378  -52.1177    0.4959 O   0  0  0  0  0  0  0  0  0  0  0  0
   -0.6937  -49.5555    7.8136 C   0  0  0  0  0  0  0  0  0  0  0  0
   -0.8540  -50.2964    9.0883 N   0  0  0  0  0  0  0  0  0  0  0  0
    4.3054  -54.7301    6.7959 C   0  0  0  0  0  0  0  0  0  0  0  0
    4.0714  -55.8513    5.8889 O   0  0  0  0  0  0  0  0  0  0  0  0
  1  2  1  1  0  0  0
  1  8  1  0  0  0  0
  1 36  1  0  0  0  0
  3  4  1  6  0  0  0
  3 10  1  0  0  0  0
  3 47  1  0  0  0  0
  5 11  1  0  0  0  0
  5 30  1  0  0  0  0
  5 38  1  6  0  0  0
  6 21  1  1  0  0  0
  6 42  1  0  0  0  0
  7 15  1  0  0  0  0
  7 44  1  0  0  0  0
  7 32  1  1  0  0  0
  8  9  1  6  0  0  0
  8 17  1  0  0  0  0
 11 12  1  1  0  0  0
 11 20  1  0  0  0  0
 13  6  1  0  0  0  0
 13 14  1  1  0  0  0
 15 16  1  6  0  0  0
 15 24  1  0  0  0  0
 17 26  1  0  0  0  0
 18 10  1  0  0  0  0
 18 19  1  1  0  0  0
 20 21  1  1  0  0  0
 20 29  1  0  0  0  0
 22 13  1  0  0  0  0
 22 23  1  6  0  0  0
 24 25  1  6  0  0  0
 24 33  1  0  0  0  0
 26 27  1  1  0  0  0
 26 35  1  0  0  0  0
 28  2  1  1  0  0  0
 28 18  1  0  0  0  0
 29 30  1  0  0  0  0
 29 39  1  6  0  0  0
 31 22  1  0  0  0  0
 31 32  1  1  0  0  0
 31 41  1  0  0  0  0
 33 34  1  1  0  0  0
 33 43  1  0  0  0  0
 35 36  1  0  0  0  0
 35 45  1  1  0  0  0
 37 28  1  0  0  0  0
 37 38  1  1  0  0  0
 39 40  1  0  0  0  0
 41 42  1  0  0  0  0
 41 49  1  1  0  0  0
 43 44  1  0  0  0  0
 43 51  1  6  0  0  0
 45 46  1  0  0  0  0
 47 37  1  0  0  0  0
 47 48  1  6  0  0  0
 49 50  1  0  0  0  0
 51 52  1  0  0  0  0
M  END
>  <CHROM.1>
-175.06319032,172.84257502,-71.77310582,153.95074670,162.72693718,-169.30366169
60.44040030,53.44135547,64.46208908,-56.36564303,-65.69579332,69.91326435
-4.61713539,-52.57697696,5.77026677,2.80877042,0.09037573,-1.27334566

>  <Name>
2fd0_lig

>  <RI>
3.4301e+07

>  <Rbt.Current_Directory>
/home/itssahil/PROJECTS/Mol_Feturizer/New_Systems/rnas/2fd0

>  <Rbt.Executable>
rbdock ($Id: //depot/dev/client3/rdock/2013.1/src/exe/rbdock.cxx#4 $)

>  <Rbt.Library>
libRbt.so (2013.1, Build901 2013/11/27)

>  <Rbt.Parameter_File>
/export/apps/rDock/src/rDock_2013.1_src/data/scripts/dock_solv.prm

>  <Rbt.Receptor>
prm/pocket_docking_7.prm

>  <SCORE>
-7.88385

>  <SCORE.INTER>
-0.376949

>  <SCORE.INTER.CONST>
1

>  <SCORE.INTER.POLAR>
-1.55034

>  <SCORE.INTER.ROT>
12

>  <SCORE.INTER.SOLV>
4.23954

>  <SCORE.INTER.VDW>
-8.09669

>  <SCORE.INTER.norm>
-0.00724902

>  <SCORE.INTRA>
-7.52872

>  <SCORE.INTRA.DIHEDRAL>
-15.6945

>  <SCORE.INTRA.DIHEDRAL.0>
23.9727

>  <SCORE.INTRA.POLAR>
0

>  <SCORE.INTRA.POLAR.0>
0

>  <SCORE.INTRA.REPUL>
0

>  <SCORE.INTRA.REPUL.0>
0

>  <SCORE.INTRA.SOLV>
-0.202916

>  <SCORE.INTRA.SOLV.lig_0>
-115.028

>  <SCORE.INTRA.VDW>
0.420006

>  <SCORE.INTRA.VDW.0>
-6.82393

>  <SCORE.INTRA.norm>
-0.144783

>  <SCORE.RESTR>
0.0218203

>  <SCORE.RESTR.CAVITY>
0.0218203

>  <SCORE.RESTR.norm>
0.000419622

>  <SCORE.SYSTEM>
0

>  <SCORE.SYSTEM.CONST>
0

>  <SCORE.SYSTEM.DIHEDRAL>
0

>  <SCORE.SYSTEM.SOLV>
0

>  <SCORE.SYSTEM.norm>
0

>  <SCORE.heavy>
52

>  <SCORE.norm>
-0.151612

>  <RMSD>
14.074

$$$$
2fd0_lig
 OpenBabel11021811433D
libRbt.so/2013.1/901 2013/11/27
 52 56  0  0  0  0  0  0  0  0999 V2000
    6.9030  -47.6903   14.8275 C   0  0  2  0  0  0  0  0  0  0  0  0
    6.2912  -47.6255   13.5319 O   0  0  0  0  0  0  0  0  0  0  0  0
    4.6026  -44.9132   10.5850 C   0  0  2  0  0  0  0  0  0  0  0  0
    4.1577  -43.6813    9.9132 N   0  0  0  0  0  0  0  0  0  0  0  0
    8.7186  -44.9482   12.1860 C   0  0  1  0  0  0  0  0  0  0  0  0
   10.4745  -42.5292   13.7040 C   0  0  1  0  0  0  0  0  0  0  0  0
   11.5985  -38.3131   16.2704 C   0  0  1  0  0  0  0  0  0  0  0  0
    7.2740  -49.1876   15.1309 C   0  0  2  0  0  0  0  0  0  0  0  0
    8.1455  -49.7486   14.1079 N   0  0  0  0  0  0  0  0  0  0  0  0
    3.8917  -45.0573   12.0016 C   0  0  0  0  0  0  0  0  0  0  0  0
   10.0907  -45.3543   12.6920 C   0  0  2  0  0  0  0  0  0  0  0  0
   10.1136  -45.5397   14.1353 O   0  0  0  0  0  0  0  0  0  0  0  0
   10.9717  -41.0393   13.4000 C   0  0  2  0  0  0  0  0  0  0  0  0
   12.3686  -40.8479   13.8768 N   0  0  0  0  0  0  0  0  0  0  0  0
   10.6355  -37.9541   17.4243 C   0  0  1  0  0  0  0  0  0  0  0  0
   11.0794  -38.6179   18.6336 O   0  0  0  0  0  0  0  0  0  0  0  0
    5.9696  -50.0499   15.3086 C   0  0  0  0  0  0  0  0  0  0  0  0
    4.3693  -46.4049   12.7263 C   0  0  2  0  0  0  0  0  0  0  0  0
    3.7282  -46.5609   14.0403 N   0  0  0  0  0  0  0  0  0  0  0  0
   10.9921  -44.2603   12.1450 C   0  0  2  0  0  0  0  0  0  0  0  0
   11.4258  -43.3973   13.1609 O   0  0  0  0  0  0  0  0  0  0  0  0
    9.8776  -40.0289   14.0271 C   0  0  1  0  0  0  0  0  0  0  0  0
    8.5980  -40.3463   13.4501 O   0  0  0  0  0  0  0  0  0  0  0  0
   10.4352  -36.4484   17.7466 C   0  0  1  0  0  0  0  0  0  0  0  0
   11.3680  -36.0889   18.7736 O   0  0  0  0  0  0  0  0  0  0  0  0
    5.0904  -49.3964   16.4242 C   0  0  2  0  0  0  0  0  0  0  0  0
    3.9054  -50.1594   16.6288 O   0  0  0  0  0  0  0  0  0  0  0  0
    5.9151  -46.3774   12.8855 C   0  0  2  0  0  0  0  0  0  0  0  0
   10.1668  -43.3737   11.1820 C   0  0  2  0  0  0  0  0  0  0  0  0
    8.9402  -44.0833   11.0857 O   0  0  0  0  0  0  0  0  0  0  0  0
    9.7225  -40.2251   15.6245 C   0  0  2  0  0  0  0  0  0  0  0  0
   11.0153  -39.8814   16.1576 O   0  0  0  0  0  0  0  0  0  0  0  0
   10.6005  -35.4712   16.5598 C   0  0  2  0  0  0  0  0  0  0  0  0
    9.5481  -34.4931   16.7084 O   0  0  0  0  0  0  0  0  0  0  0  0
    4.7203  -47.9442   16.0071 C   0  0  2  0  0  0  0  0  0  0  0  0
    5.9756  -47.1830   15.8214 O   0  0  0  0  0  0  0  0  0  0  0  0
    6.6582  -46.1797   11.5292 C   0  0  2  0  0  0  0  0  0  0  0  0
    8.0768  -46.1265   11.8134 O   0  0  0  0  0  0  0  0  0  0  0  0
   10.7472  -43.2275    9.7798 C   0  0  0  0  0  0  0  0  0  0  0  0
   10.4009  -41.9136    9.3160 O   0  0  0  0  0  0  0  0  0  0  0  0
    9.4928  -41.7099   15.8340 C   0  0  1  0  0  0  0  0  0  0  0  0
   10.2687  -42.7560   15.2130 O   0  0  0  0  0  0  0  0  0  0  0  0
   10.5592  -36.2149   15.2276 C   0  0  2  0  0  0  0  0  0  0  0  0
   11.4610  -37.3524   15.1367 O   0  0  0  0  0  0  0  0  0  0  0  0
    3.9066  -47.2491   17.0520 C   0  0  0  0  0  0  0  0  0  0  0  0
    2.6798  -47.9187   17.1630 O   0  0  0  0  0  0  0  0  0  0  0  0
    6.1642  -44.8609   10.8296 C   0  0  1  0  0  0  0  0  0  0  0  0
    6.8464  -44.7353    9.5341 O   0  0  0  0  0  0  0  0  0  0  0  0
    9.3622  -42.1087   17.3467 C   0  0  0  0  0  0  0  0  0  0  0  0
    9.1359  -43.5585   17.5622 N   0  0  0  0  0  0  0  0  0  0  0  0
   10.7096  -35.4901   13.8919 C   0  0  0  0  0  0  0  0  0  0  0  0
   11.6397  -34.3711   14.0228 O   0  0  0  0  0  0  0  0  0  0  0  0
  1  2  1  6  0  0  0
  1  8  1  0  0  0  0
  1 36  1  0  0  0  0
  3  4  1  1  0  0  0
  3 10  1  0  0  0  0
  3 47  1  0  0  0  0
  5 11  1  0  0  0  0
  5 30  1  0  0  0  0
  5 38  1  6  0  0  0
  6 21  1  1  0  0  0
  6 42  1  0  0  0  0
  7 15  1  0  0  0  0
  7 44  1  0  0  0  0
  7 32  1  6  0  0  0
  8  9  1  6  0  0  0
  8 17  1  0  0  0  0
 11 12  1  1  0  0  0
 11 20  1  0  0  0  0
 13  6  1  0  0  0  0
 13 14  1  1  0  0  0
 15 16  1  1  0  0  0
 15 24  1  0  0  0  0
 17 26  1  0  0  0  0
 18 10  1  0  0  0  0
 18 19  1  1  0  0  0
 20 21  1  1  0  0  0
 20 29  1  0  0  0  0
 22 13  1  0  0  0  0
 22 23  1  6  0  0  0
 24 25  1  1  0  0  0
 24 33  1  0  0  0  0
 26 27  1  6  0  0  0
 26 35  1  0  0  0  0
 28  2  1  6  0  0  0
 28 18  1  0  0  0  0
 29 30  1  0  0  0  0
 29 39  1  6  0  0  0
 31 22  1  0  0  0  0
 31 32  1  1  0  0  0
 31 41  1  0  0  0  0
 33 34  1  6  0  0  0
 33 43  1  0  0  0  0
 35 36  1  0  0  0  0
 35 45  1  1  0  0  0
 37 28  1  0  0  0  0
 37 38  1  1  0  0  0
 39 40  1  0  0  0  0
 41 42  1  0  0  0  0
 41 49  1  1  0  0  0
 43 44  1  0  0  0  0
 43 51  1  6  0  0  0
 45 46  1  0  0  0  0
 47 37  1  0  0  0  0
 47 48  1  6  0  0  0
 49 50  1  0  0  0  0
 51 52  1  0  0  0  0
M  END
>  <CHROM.1>
-175.08341459,167.51112613,-117.91211650,71.96794482,-71.55715400,-116.57719287
-147.43805814,74.01964175,-64.79096806,-85.24372905,179.94035960,34.83393958
8.43742867,-43.06137130,14.24755539,2.68124014,-1.03812285,-1.92882559

>  <Name>
2fd0_lig

>  <RI>
2.60878e+07

>  <Rbt.Current_Directory>
/home/itssahil/PROJECTS/Mol_Feturizer/New_Systems/rnas/2fd0

>  <Rbt.Executable>
rbdock ($Id: //depot/dev/client3/rdock/2013.1/src/exe/rbdock.cxx#4 $)

>  <Rbt.Library>
libRbt.so (2013.1, Build901 2013/11/27)

>  <Rbt.Parameter_File>
/export/apps/rDock/src/rDock_2013.1_src/data/scripts/dock_solv.prm

>  <Rbt.Receptor>
prm/blind_docking_80.prm

>  <SCORE>
5.53447

>  <SCORE.INTER>
-2.79572

>  <SCORE.INTER.CONST>
1

>  <SCORE.INTER.POLAR>
-1.65412

>  <SCORE.INTER.ROT>
12

>  <SCORE.INTER.SOLV>
33.1098

>  <SCORE.INTER.VDW>
-18.9867

>  <SCORE.INTER.norm>
-0.0537639

>  <SCORE.INTRA>
5.49523

>  <SCORE.INTRA.DIHEDRAL>
2.26708

>  <SCORE.INTRA.DIHEDRAL.0>
23.9727

>  <SCORE.INTRA.POLAR>
0

>  <SCORE.INTRA.POLAR.0>
0

>  <SCORE.INTRA.REPUL>
0

>  <SCORE.INTRA.REPUL.0>
0

>  <SCORE.INTRA.SOLV>
0.563948

>  <SCORE.INTRA.SOLV.lig_0>
-115.028

>  <SCORE.INTRA.VDW>
4.07972

>  <SCORE.INTRA.VDW.0>
-6.82393

>  <SCORE.INTRA.norm>
0.105678

>  <SCORE.RESTR>
2.83496

>  <SCORE.RESTR.CAVITY>
2.83496

>  <SCORE.RESTR.norm>
0.0545184

>  <SCORE.SYSTEM>
0

>  <SCORE.SYSTEM.CONST>
0

>  <SCORE.SYSTEM.DIHEDRAL>
0

>  <SCORE.SYSTEM.SOLV>
0

>  <SCORE.SYSTEM.norm>
0

>  <SCORE.heavy>
52

>  <SCORE.norm>
0.106432

>  <RMSD>
14.080

$$$$
2fd0_lig
 OpenBabel11021811433D
libRbt.so/2013.1/901 2013/11/27
 52 56  0  0  0  0  0  0  0  0999 V2000
    8.4049  -47.8762   15.9818 C   0  0  2  0  0  0  0  0  0  0  0  0
    7.0011  -47.7457   15.7189 O   0  0  0  0  0  0  0  0  0  0  0  0
    5.0511  -46.9412   11.9185 C   0  0  2  0  0  0  0  0  0  0  0  0
    4.4494  -46.2270   10.7805 N   0  0  0  0  0  0  0  0  0  0  0  0
    9.2114  -45.9089   12.6847 C   0  0  1  0  0  0  0  0  0  0  0  0
    9.3727  -41.4778   12.4465 C   0  0  1  0  0  0  0  0  0  0  0  0
   10.9337  -39.1499   16.4480 C   0  0  1  0  0  0  0  0  0  0  0  0
    8.6118  -49.0262   17.0336 C   0  0  2  0  0  0  0  0  0  0  0  0
    8.0414  -50.2865   16.5787 N   0  0  0  0  0  0  0  0  0  0  0  0
    4.3020  -46.5580   13.2694 C   0  0  0  0  0  0  0  0  0  0  0  0
    8.6988  -44.5786   13.2055 C   0  0  2  0  0  0  0  0  0  0  0  0
    7.5344  -44.1097   12.4689 O   0  0  0  0  0  0  0  0  0  0  0  0
   10.6269  -40.6612   13.0118 C   0  0  2  0  0  0  0  0  0  0  0  0
   11.2946  -41.4206   14.1039 N   0  0  0  0  0  0  0  0  0  0  0  0
   10.3214  -39.3230   17.8561 C   0  0  1  0  0  0  0  0  0  0  0  0
   10.3413  -40.7281   18.2100 O   0  0  0  0  0  0  0  0  0  0  0  0
    8.0248  -48.6025   18.4309 C   0  0  0  0  0  0  0  0  0  0  0  0
    4.9517  -47.3452   14.5053 C   0  0  2  0  0  0  0  0  0  0  0  0
    4.2786  -47.0064   15.7679 N   0  0  0  0  0  0  0  0  0  0  0  0
    9.9306  -43.6914   13.1421 C   0  0  2  0  0  0  0  0  0  0  0  0
    9.8339  -42.7525   12.1057 O   0  0  0  0  0  0  0  0  0  0  0  0
   10.1013  -39.1861   13.4103 C   0  0  1  0  0  0  0  0  0  0  0  0
    9.5007  -38.5981   12.2421 O   0  0  0  0  0  0  0  0  0  0  0  0
   10.9670  -38.5235   19.0201 C   0  0  1  0  0  0  0  0  0  0  0  0
   11.9503  -39.3622   19.6398 O   0  0  0  0  0  0  0  0  0  0  0  0
    8.6865  -47.2520   18.8588 C   0  0  2  0  0  0  0  0  0  0  0  0
    8.1940  -46.8424   20.1307 O   0  0  0  0  0  0  0  0  0  0  0  0
    6.4633  -46.9947   14.5946 C   0  0  2  0  0  0  0  0  0  0  0  0
   11.1547  -44.5680   12.7848 C   0  0  2  0  0  0  0  0  0  0  0  0
   10.6193  -45.8823   12.8429 O   0  0  0  0  0  0  0  0  0  0  0  0
    8.9470  -39.2430   14.5410 C   0  0  2  0  0  0  0  0  0  0  0  0
    9.5956  -39.8192   15.6903 O   0  0  0  0  0  0  0  0  0  0  0  0
   11.6292  -37.1799   18.6369 C   0  0  2  0  0  0  0  0  0  0  0  0
   11.2721  -36.2538   19.6863 O   0  0  0  0  0  0  0  0  0  0  0  0
    8.3741  -46.1624   17.7935 C   0  0  2  0  0  0  0  0  0  0  0  0
    8.9155  -46.6183   16.4940 O   0  0  0  0  0  0  0  0  0  0  0  0
    7.2326  -47.2986   13.2729 C   0  0  2  0  0  0  0  0  0  0  0  0
    8.6084  -46.8911   13.4661 O   0  0  0  0  0  0  0  0  0  0  0  0
   12.3201  -44.4816   13.7641 C   0  0  0  0  0  0  0  0  0  0  0  0
   12.9924  -43.2389   13.5095 O   0  0  0  0  0  0  0  0  0  0  0  0
    7.9159  -40.2282   14.0238 C   0  0  1  0  0  0  0  0  0  0  0  0
    8.2247  -41.5250   13.4713 O   0  0  0  0  0  0  0  0  0  0  0  0
   11.1878  -36.7279   17.2475 C   0  0  2  0  0  0  0  0  0  0  0  0
   11.3323  -37.7323   16.2056 O   0  0  0  0  0  0  0  0  0  0  0  0
    9.0111  -44.8509   18.1270 C   0  0  0  0  0  0  0  0  0  0  0  0
    8.7268  -43.9538   17.0877 O   0  0  0  0  0  0  0  0  0  0  0  0
    6.5700  -46.5283   12.0728 C   0  0  1  0  0  0  0  0  0  0  0  0
    7.2877  -46.8789   10.8393 O   0  0  0  0  0  0  0  0  0  0  0  0
    6.7230  -40.4553   15.0187 C   0  0  0  0  0  0  0  0  0  0  0  0
    5.6668  -41.3500   14.4865 N   0  0  0  0  0  0  0  0  0  0  0  0
   11.7006  -35.4351   16.6169 C   0  0  0  0  0  0  0  0  0  0  0  0
   11.2377  -34.2787   17.3804 O   0  0  0  0  0  0  0  0  0  0  0  0
  1  2  1  1  0  0  0
  1  8  1  0  0  0  0
  1 36  1  0  0  0  0
  3  4  1  6  0  0  0
  3 10  1  0  0  0  0
  3 47  1  0  0  0  0
  5 11  1  0  0  0  0
  5 30  1  0  0  0  0
  5 38  1  1  0  0  0
  6 21  1  1  0  0  0
  6 42  1  0  0  0  0
  7 15  1  0  0  0  0
  7 44  1  0  0  0  0
  7 32  1  6  0  0  0
  8  9  1  6  0  0  0
  8 17  1  0  0  0  0
 11 12  1  6  0  0  0
 11 20  1  0  0  0  0
 13  6  1  0  0  0  0
 13 14  1  1  0  0  0
 15 16  1  1  0  0  0
 15 24  1  0  0  0  0
 17 26  1  0  0  0  0
 18 10  1  0  0  0  0
 18 19  1  1  0  0  0
 20 21  1  6  0  0  0
 20 29  1  0  0  0  0
 22 13  1  0  0  0  0
 22 23  1  6  0  0  0
 24 25  1  6  0  0  0
 24 33  1  0  0  0  0
 26 27  1  1  0  0  0
 26 35  1  0  0  0  0
 28  2  1  1  0  0  0
 28 18  1  0  0  0  0
 29 30  1  0  0  0  0
 29 39  1  1  0  0  0
 31 22  1  0  0  0  0
 31 32  1  1  0  0  0
 31 41  1  0  0  0  0
 33 34  1  1  0  0  0
 33 43  1  0  0  0  0
 35 36  1  0  0  0  0
 35 45  1  1  0  0  0
 37 28  1  0  0  0  0
 37 38  1  1  0  0  0
 39 40  1  0  0  0  0
 41 42  1  0  0  0  0
 41 49  1  1  0  0  0
 43 44  1  0  0  0  0
 43 51  1  6  0  0  0
 45 46  1  0  0  0  0
 47 37  1  0  0  0  0
 47 48  1  6  0  0  0
 49 50  1  0  0  0  0
 51 52  1  0  0  0  0
M  END
>  <CHROM.1>
-166.00786902,77.32080256,82.83422984,133.09610925,96.15708928,168.55074009
-76.41647132,59.40256595,177.38057432,-119.02346786,176.32876057,-65.17657214
8.96276370,-43.14619358,15.18303178,-2.80325899,-1.17998951,-0.96674165

>  <Name>
2fd0_lig

>  <RI>
2.60878e+07

>  <Rbt.Current_Directory>
/home/itssahil/PROJECTS/Mol_Feturizer/New_Systems/rnas/2fd0

>  <Rbt.Executable>
rbdock ($Id: //depot/dev/client3/rdock/2013.1/src/exe/rbdock.cxx#4 $)

>  <Rbt.Library>
libRbt.so (2013.1, Build901 2013/11/27)

>  <Rbt.Parameter_File>
/export/apps/rDock/src/rDock_2013.1_src/data/scripts/dock_solv.prm

>  <Rbt.Receptor>
prm/blind_docking_80.prm

>  <SCORE>
-9.33932

>  <SCORE.INTER>
-15.9169

>  <SCORE.INTER.CONST>
1

>  <SCORE.INTER.POLAR>
-0.21059

>  <SCORE.INTER.ROT>
12

>  <SCORE.INTER.SOLV>
19.4963

>  <SCORE.INTER.VDW>
-28.008

>  <SCORE.INTER.norm>
-0.306094

>  <SCORE.INTRA>
4.1745

>  <SCORE.INTRA.DIHEDRAL>
2.22481

>  <SCORE.INTRA.DIHEDRAL.0>
23.9727

>  <SCORE.INTRA.POLAR>
0

>  <SCORE.INTRA.POLAR.0>
0

>  <SCORE.INTRA.REPUL>
0.00518239

>  <SCORE.INTRA.REPUL.0>
0

>  <SCORE.INTRA.SOLV>
-0.131603

>  <SCORE.INTRA.SOLV.lig_0>
-115.028

>  <SCORE.INTRA.VDW>
3.10199

>  <SCORE.INTRA.VDW.0>
-6.82393

>  <SCORE.INTRA.norm>
0.0802789

>  <SCORE.RESTR>
2.40306

>  <SCORE.RESTR.CAVITY>
2.40306

>  <SCORE.RESTR.norm>
0.0462126

>  <SCORE.SYSTEM>
0

>  <SCORE.SYSTEM.CONST>
0

>  <SCORE.SYSTEM.DIHEDRAL>
0

>  <SCORE.SYSTEM.SOLV>
0

>  <SCORE.SYSTEM.norm>
0

>  <SCORE.heavy>
52

>  <SCORE.norm>
-0.179602

>  <RMSD>
14.087

$$$$
2fd0_lig
 OpenBabel11021811433D
libRbt.so/2013.1/901 2013/11/27
 52 56  0  0  0  0  0  0  0  0999 V2000
    4.0816  -46.1413   14.2152 C   0  0  2  0  0  0  0  0  0  0  0  0
    4.9791  -46.3925   15.3053 O   0  0  0  0  0  0  0  0  0  0  0  0
    6.3489  -49.6944   17.7779 C   0  0  2  0  0  0  0  0  0  0  0  0
    6.7788  -51.0364   18.2035 N   0  0  0  0  0  0  0  0  0  0  0  0
    8.6747  -46.1571   15.3935 C   0  0  1  0  0  0  0  0  0  0  0  0
   10.8885  -42.6834   13.3799 C   0  0  1  0  0  0  0  0  0  0  0  0
    9.8612  -37.8140   14.3993 C   0  0  1  0  0  0  0  0  0  0  0  0
    4.9278  -45.9565   12.9032 C   0  0  2  0  0  0  0  0  0  0  0  0
    5.7721  -47.1123   12.6350 N   0  0  0  0  0  0  0  0  0  0  0  0
    4.8926  -49.7579   17.1389 C   0  0  0  0  0  0  0  0  0  0  0  0
    9.1337  -45.7017   14.0204 C   0  0  2  0  0  0  0  0  0  0  0  0
   10.3544  -46.3714   13.5967 O   0  0  0  0  0  0  0  0  0  0  0  0
   11.4534  -41.5199   14.3215 C   0  0  2  0  0  0  0  0  0  0  0  0
   10.4855  -41.2134   15.4099 N   0  0  0  0  0  0  0  0  0  0  0  0
   11.1304  -37.4325   13.6047 C   0  0  1  0  0  0  0  0  0  0  0  0
   10.7477  -37.0416   12.2629 O   0  0  0  0  0  0  0  0  0  0  0  0
    5.7754  -44.6329   12.9800 C   0  0  0  0  0  0  0  0  0  0  0  0
    4.4222  -48.2939   16.6864 C   0  0  2  0  0  0  0  0  0  0  0  0
    3.0789  -48.3251   16.0894 N   0  0  0  0  0  0  0  0  0  0  0  0
    9.2189  -44.1925   14.1737 C   0  0  2  0  0  0  0  0  0  0  0  0
   10.5500  -43.7550   14.2112 O   0  0  0  0  0  0  0  0  0  0  0  0
   11.8452  -40.2759   13.3677 C   0  0  1  0  0  0  0  0  0  0  0  0
   12.7908  -40.7464   12.3903 O   0  0  0  0  0  0  0  0  0  0  0  0
   12.0337  -36.3150   14.1932 C   0  0  1  0  0  0  0  0  0  0  0  0
   11.6254  -35.0680   13.6167 O   0  0  0  0  0  0  0  0  0  0  0  0
    4.8064  -43.4381   13.2596 C   0  0  2  0  0  0  0  0  0  0  0  0
    5.5345  -42.2155   13.3184 O   0  0  0  0  0  0  0  0  0  0  0  0
    5.4469  -47.7219   15.6673 C   0  0  2  0  0  0  0  0  0  0  0  0
    8.6220  -43.7995   15.5463 C   0  0  2  0  0  0  0  0  0  0  0  0
    8.0795  -45.0280   16.0089 O   0  0  0  0  0  0  0  0  0  0  0  0
   10.5687  -39.7237   12.5432 C   0  0  2  0  0  0  0  0  0  0  0  0
    9.6617  -39.2502   13.5566 O   0  0  0  0  0  0  0  0  0  0  0  0
   12.0281  -36.1768   15.7332 C   0  0  2  0  0  0  0  0  0  0  0  0
   13.4017  -35.9360   16.1098 O   0  0  0  0  0  0  0  0  0  0  0  0
    4.0640  -43.6780   14.6053 C   0  0  2  0  0  0  0  0  0  0  0  0
    3.3088  -44.9459   14.4965 O   0  0  0  0  0  0  0  0  0  0  0  0
    6.9021  -47.6925   16.2264 C   0  0  2  0  0  0  0  0  0  0  0  0
    7.7617  -47.1860   15.1772 O   0  0  0  0  0  0  0  0  0  0  0  0
    7.4989  -42.7698   15.4923 C   0  0  0  0  0  0  0  0  0  0  0  0
    7.7589  -41.9225   14.3629 O   0  0  0  0  0  0  0  0  0  0  0  0
    9.9552  -40.9402   11.8760 C   0  0  1  0  0  0  0  0  0  0  0  0
    9.6951  -42.1956   12.5383 O   0  0  0  0  0  0  0  0  0  0  0  0
   11.4221  -37.4129   16.3923 C   0  0  2  0  0  0  0  0  0  0  0  0
   10.1243  -37.8083   15.8682 O   0  0  0  0  0  0  0  0  0  0  0  0
    3.0919  -42.5841   14.9142 C   0  0  0  0  0  0  0  0  0  0  0  0
    3.0420  -42.4283   16.3066 O   0  0  0  0  0  0  0  0  0  0  0  0
    7.3370  -49.1348   16.6771 C   0  0  1  0  0  0  0  0  0  0  0  0
    8.6903  -49.0588   17.2448 O   0  0  0  0  0  0  0  0  0  0  0  0
    8.6591  -40.6081   11.0549 C   0  0  0  0  0  0  0  0  0  0  0  0
    8.0509  -41.7913   10.3995 N   0  0  0  0  0  0  0  0  0  0  0  0
   11.2846  -37.5356   17.9082 C   0  0  0  0  0  0  0  0  0  0  0  0
   10.6390  -36.3459   18.4580 O   0  0  0  0  0  0  0  0  0  0  0  0
  1  2  1  1  0  0  0
  1  8  1  0  0  0  0
  1 36  1  0  0  0  0
  3  4  1  6  0  0  0
  3 10  1  0  0  0  0
  3 47  1  0  0  0  0
  5 11  1  0  0  0  0
  5 30  1  0  0  0  0
  5 38  1  6  0  0  0
  6 21  1  1  0  0  0
  6 42  1  0  0  0  0
  7 15  1  0  0  0  0
  7 44  1  0  0  0  0
  7 32  1  6  0  0  0
  8  9  1  1  0  0  0
  8 17  1  0  0  0  0
 11 12  1  1  0  0  0
 11 20  1  0  0  0  0
 13  6  1  0  0  0  0
 13 14  1  1  0  0  0
 15 16  1  6  0  0  0
 15 24  1  0  0  0  0
 17 26  1  0  0  0  0
 18 10  1  0  0  0  0
 18 19  1  6  0  0  0
 20 21  1  1  0  0  0
 20 29  1  0  0  0  0
 22 13  1  0  0  0  0
 22 23  1  6  0  0  0
 24 25  1  6  0  0  0
 24 33  1  0  0  0  0
 26 27  1  1  0  0  0
 26 35  1  0  0  0  0
 28  2  1  1  0  0  0
 28 18  1  0  0  0  0
 29 30  1  0  0  0  0
 29 39  1  6  0  0  0
 31 22  1  0  0  0  0
 31 32  1  1  0  0  0
 31 41  1  0  0  0  0
 33 34  1  1  0  0  0
 33 43  1  0  0  0  0
 35 36  1  0  0  0  0
 35 45  1  6  0  0  0
 37 28  1  0  0  0  0
 37 38  1  6  0  0  0
 39 40  1  0  0  0  0
 41 42  1  0  0  0  0
 41 49  1  1  0  0  0
 43 44  1  0  0  0  0
 43 51  1  1  0  0  0
 45 46  1  0  0  0  0
 47 37  1  0  0  0  0
 47 48  1  1  0  0  0
 49 50  1  0  0  0  0
 51 52  1  0  0  0  0
M  END
>  <CHROM.1>
-87.60737928,-167.08597225,121.49600275,2.56044788,131.45077338,-89.42734910
-31.00708273,75.69668351,-147.44348168,130.25453565,-179.95268612,50.50800579
8.27548426,-42.88415061,14.69495759,2.10852843,0.28877373,2.84953050

>  <Name>
2fd0_lig

>  <RI>
2.85265e+07

>  <Rbt.Current_Directory>
/home/itssahil/PROJECTS/Mol_Feturizer/New_Systems/rnas/2fd0

>  <Rbt.Executable>
rbdock ($Id: //depot/dev/client3/rdock/2013.1/src/exe/rbdock.cxx#4 $)

>  <Rbt.Library>
libRbt.so (2013.1, Build901 2013/11/27)

>  <Rbt.Parameter_File>
/export/apps/rDock/src/rDock_2013.1_src/data/scripts/dock_solv.prm

>  <Rbt.Receptor>
prm/blind_docking_60.prm

>  <SCORE>
7.79538

>  <SCORE.INTER>
-13.6107

>  <SCORE.INTER.CONST>
1

>  <SCORE.INTER.POLAR>
-1.25486

>  <SCORE.INTER.ROT>
12

>  <SCORE.INTER.SOLV>
17.111

>  <SCORE.INTER.VDW>
-22.1946

>  <SCORE.INTER.norm>
-0.261745

>  <SCORE.INTRA>
18.814

>  <SCORE.INTRA.DIHEDRAL>
19.3077

>  <SCORE.INTRA.DIHEDRAL.0>
23.9727

>  <SCORE.INTRA.POLAR>
0

>  <SCORE.INTRA.POLAR.0>
0

>  <SCORE.INTRA.REPUL>
0.684176

>  <SCORE.INTRA.REPUL.0>
0

>  <SCORE.INTRA.SOLV>
4.78833

>  <SCORE.INTRA.SOLV.lig_0>
-115.028

>  <SCORE.INTRA.VDW>
3.3451

>  <SCORE.INTRA.VDW.0>
-6.82393

>  <SCORE.INTRA.norm>
0.361807

>  <SCORE.RESTR>
2.59211

>  <SCORE.RESTR.CAVITY>
2.59211

>  <SCORE.RESTR.norm>
0.0498483

>  <SCORE.SYSTEM>
0

>  <SCORE.SYSTEM.CONST>
0

>  <SCORE.SYSTEM.DIHEDRAL>
0

>  <SCORE.SYSTEM.SOLV>
0

>  <SCORE.SYSTEM.norm>
0

>  <SCORE.heavy>
52

>  <SCORE.norm>
0.149911

>  <RMSD>
14.134

$$$$
2fd0_lig
 OpenBabel11021811433D
libRbt.so/2013.1/901 2013/11/27
 52 56  0  0  0  0  0  0  0  0999 V2000
    6.5739  -46.1787   14.8164 C   0  0  2  0  0  0  0  0  0  0  0  0
    6.3045  -46.7048   13.5097 O   0  0  0  0  0  0  0  0  0  0  0  0
    3.0807  -46.4705   10.6037 C   0  0  2  0  0  0  0  0  0  0  0  0
    2.0467  -45.9326    9.7045 N   0  0  0  0  0  0  0  0  0  0  0  0
    7.1559  -44.6168   10.6116 C   0  0  1  0  0  0  0  0  0  0  0  0
    8.1966  -41.2638   13.1258 C   0  0  1  0  0  0  0  0  0  0  0  0
   10.9370  -37.4432   14.4325 C   0  0  1  0  0  0  0  0  0  0  0  0
    8.0535  -46.5402   15.2057 C   0  0  2  0  0  0  0  0  0  0  0  0
    9.0095  -46.0387   14.2283 N   0  0  0  0  0  0  0  0  0  0  0  0
    2.8098  -46.0008   12.1001 C   0  0  0  0  0  0  0  0  0  0  0  0
    7.5443  -44.0853   11.9792 C   0  0  2  0  0  0  0  0  0  0  0  0
    6.4017  -43.5595   12.7114 O   0  0  0  0  0  0  0  0  0  0  0  0
    8.2618  -39.6694   13.0114 C   0  0  2  0  0  0  0  0  0  0  0  0
    9.4150  -39.2536   12.1673 N   0  0  0  0  0  0  0  0  0  0  0  0
   12.4596  -37.5814   14.6572 C   0  0  1  0  0  0  0  0  0  0  0  0
   13.0458  -38.2561   13.5165 O   0  0  0  0  0  0  0  0  0  0  0  0
    8.2026  -48.0936   15.4086 C   0  0  0  0  0  0  0  0  0  0  0  0
    3.9305  -46.5968   13.0789 C   0  0  2  0  0  0  0  0  0  0  0  0
    3.7046  -46.1750   14.4692 N   0  0  0  0  0  0  0  0  0  0  0  0
    8.6461  -43.0900   11.6568 C   0  0  2  0  0  0  0  0  0  0  0  0
    8.2085  -41.7687   11.8224 O   0  0  0  0  0  0  0  0  0  0  0  0
    8.2507  -39.0777   14.5150 C   0  0  1  0  0  0  0  0  0  0  0  0
    7.0701  -39.5676   15.1762 O   0  0  0  0  0  0  0  0  0  0  0  0
   13.2658  -36.2794   14.9139 C   0  0  1  0  0  0  0  0  0  0  0  0
   13.7669  -35.8148   13.6541 O   0  0  0  0  0  0  0  0  0  0  0  0
    7.1561  -48.5581   16.4734 C   0  0  2  0  0  0  0  0  0  0  0  0
    7.2711  -49.9594   16.6998 O   0  0  0  0  0  0  0  0  0  0  0  0
    5.3308  -46.1241   12.5977 C   0  0  2  0  0  0  0  0  0  0  0  0
    9.0038  -43.2157   10.1565 C   0  0  2  0  0  0  0  0  0  0  0  0
    8.2544  -44.3540    9.7560 O   0  0  0  0  0  0  0  0  0  0  0  0
    9.5124  -39.6036   15.3786 C   0  0  2  0  0  0  0  0  0  0  0  0
   10.6639  -39.0773   14.6925 O   0  0  0  0  0  0  0  0  0  0  0  0
   12.4957  -35.1268   15.5988 C   0  0  2  0  0  0  0  0  0  0  0  0
   13.4155  -34.5549   16.5546 O   0  0  0  0  0  0  0  0  0  0  0  0
    5.7230  -48.2179   15.9731 C   0  0  2  0  0  0  0  0  0  0  0  0
    5.6410  -46.7550   15.7667 O   0  0  0  0  0  0  0  0  0  0  0  0
    5.6219  -46.5104   11.1154 C   0  0  2  0  0  0  0  0  0  0  0  0
    6.9254  -45.9803   10.7751 O   0  0  0  0  0  0  0  0  0  0  0  0
   10.4757  -43.4834    9.8627 C   0  0  0  0  0  0  0  0  0  0  0  0
   10.9333  -42.4247    9.0077 O   0  0  0  0  0  0  0  0  0  0  0  0
    9.5095  -41.1133   15.2294 C   0  0  1  0  0  0  0  0  0  0  0  0
    9.3553  -41.8139   13.9774 O   0  0  0  0  0  0  0  0  0  0  0  0
   11.1986  -35.6307   16.2259 C   0  0  2  0  0  0  0  0  0  0  0  0
   10.3523  -36.4074   15.3337 O   0  0  0  0  0  0  0  0  0  0  0  0
    4.6739  -48.6059   16.9660 C   0  0  0  0  0  0  0  0  0  0  0  0
    4.5395  -50.0011   16.9324 O   0  0  0  0  0  0  0  0  0  0  0  0
    4.5034  -45.9283   10.1758 C   0  0  1  0  0  0  0  0  0  0  0  0
    4.7822  -46.3553    8.7975 O   0  0  0  0  0  0  0  0  0  0  0  0
   10.7047  -41.8109   15.9706 C   0  0  0  0  0  0  0  0  0  0  0  0
   11.8577  -42.1117   15.0878 N   0  0  0  0  0  0  0  0  0  0  0  0
   10.2387  -34.6965   16.9592 C   0  0  0  0  0  0  0  0  0  0  0  0
   10.9337  -33.9986   18.0382 O   0  0  0  0  0  0  0  0  0  0  0  0
  1  2  1  6  0  0  0
  1  8  1  0  0  0  0
  1 36  1  0  0  0  0
  3  4  1  6  0  0  0
  3 10  1  0  0  0  0
  3 47  1  0  0  0  0
  5 11  1  0  0  0  0
  5 30  1  0  0  0  0
  5 38  1  1  0  0  0
  6 21  1  6  0  0  0
  6 42  1  0  0  0  0
  7 15  1  0  0  0  0
  7 44  1  0  0  0  0
  7 32  1  1  0  0  0
  8  9  1  6  0  0  0
  8 17  1  0  0  0  0
 11 12  1  6  0  0  0
 11 20  1  0  0  0  0
 13  6  1  0  0  0  0
 13 14  1  1  0  0  0
 15 16  1  6  0  0  0
 15 24  1  0  0  0  0
 17 26  1  0  0  0  0
 18 10  1  0  0  0  0
 18 19  1  1  0  0  0
 20 21  1  6  0  0  0
 20 29  1  0  0  0  0
 22 13  1  0  0  0  0
 22 23  1  1  0  0  0
 24 25  1  6  0  0  0
 24 33  1  0  0  0  0
 26 27  1  6  0  0  0
 26 35  1  0  0  0  0
 28  2  1  1  0  0  0
 28 18  1  0  0  0  0
 29 30  1  0  0  0  0
 29 39  1  1  0  0  0
 31 22  1  0  0  0  0
 31 32  1  6  0  0  0
 31 41  1  0  0  0  0
 33 34  1  1  0  0  0
 33 43  1  0  0  0  0
 35 36  1  0  0  0  0
 35 45  1  1  0  0  0
 37 28  1  0  0  0  0
 37 38  1  6  0  0  0
 39 40  1  0  0  0  0
 41 42  1  0  0  0  0
 41 49  1  6  0  0  0
 43 44  1  0  0  0  0
 43 51  1  6  0  0  0
 45 46  1  0  0  0  0
 47 37  1  0  0  0  0
 47 48  1  6  0  0  0
 49 50  1  0  0  0  0
 51 52  1  0  0  0  0
M  END
>  <CHROM.1>
-152.44276331,89.80107991,157.16844111,142.63560047,80.74946990,-78.49284943
-122.62899541,58.99347810,-74.33102298,-71.08728426,-96.87811569,-56.16708340
8.24962956,-42.63788528,13.68215236,-3.06800838,-1.03940491,-1.30307012

>  <Name>
2fd0_lig

>  <RI>
2.60878e+07

>  <Rbt.Current_Directory>
/home/itssahil/PROJECTS/Mol_Feturizer/New_Systems/rnas/2fd0

>  <Rbt.Executable>
rbdock ($Id: //depot/dev/client3/rdock/2013.1/src/exe/rbdock.cxx#4 $)

>  <Rbt.Library>
libRbt.so (2013.1, Build901 2013/11/27)

>  <Rbt.Parameter_File>
/export/apps/rDock/src/rDock_2013.1_src/data/scripts/dock_solv.prm

>  <Rbt.Receptor>
prm/blind_docking_80.prm

>  <SCORE>
2.12308

>  <SCORE.INTER>
-7.02741

>  <SCORE.INTER.CONST>
1

>  <SCORE.INTER.POLAR>
-1.31659

>  <SCORE.INTER.ROT>
12

>  <SCORE.INTER.SOLV>
20.6442

>  <SCORE.INTER.VDW>
-18.7777

>  <SCORE.INTER.norm>
-0.135143

>  <SCORE.INTRA>
5.05905

>  <SCORE.INTRA.DIHEDRAL>
3.92353

>  <SCORE.INTRA.DIHEDRAL.0>
23.9727

>  <SCORE.INTRA.POLAR>
0

>  <SCORE.INTRA.POLAR.0>
0

>  <SCORE.INTRA.REPUL>
0

>  <SCORE.INTRA.REPUL.0>
0

>  <SCORE.INTRA.SOLV>
2.4211

>  <SCORE.INTRA.SOLV.lig_0>
-115.028

>  <SCORE.INTRA.VDW>
1.88674

>  <SCORE.INTRA.VDW.0>
-6.82393

>  <SCORE.INTRA.norm>
0.0972895

>  <SCORE.RESTR>
4.09144

>  <SCORE.RESTR.CAVITY>
4.09144

>  <SCORE.RESTR.norm>
0.0786815

>  <SCORE.SYSTEM>
0

>  <SCORE.SYSTEM.CONST>
0

>  <SCORE.SYSTEM.DIHEDRAL>
0

>  <SCORE.SYSTEM.SOLV>
0

>  <SCORE.SYSTEM.norm>
0

>  <SCORE.heavy>
52

>  <SCORE.norm>
0.0408285

>  <RMSD>
14.222

$$$$
2fd0_lig
 OpenBabel11021811433D
libRbt.so/2013.1/901 2013/11/27
 52 56  0  0  0  0  0  0  0  0999 V2000
    4.1237  -48.4979   15.0349 C   0  0  2  0  0  0  0  0  0  0  0  0
    4.5912  -47.1810   15.3576 O   0  0  0  0  0  0  0  0  0  0  0  0
    4.5190  -45.1528   11.5139 C   0  0  2  0  0  0  0  0  0  0  0  0
    4.6238  -44.1056   10.4847 N   0  0  0  0  0  0  0  0  0  0  0  0
    7.8549  -45.5875   14.4279 C   0  0  1  0  0  0  0  0  0  0  0  0
   10.0719  -41.7437   13.2855 C   0  0  1  0  0  0  0  0  0  0  0  0
   11.9974  -37.6501   16.0956 C   0  0  1  0  0  0  0  0  0  0  0  0
    3.1137  -48.9568   16.1488 C   0  0  2  0  0  0  0  0  0  0  0  0
    2.0043  -48.0244   16.2926 N   0  0  0  0  0  0  0  0  0  0  0  0
    3.4769  -44.7212   12.6367 C   0  0  0  0  0  0  0  0  0  0  0  0
    8.5808  -45.0579   13.2047 C   0  0  2  0  0  0  0  0  0  0  0  0
    9.9113  -45.6302   13.0623 O   0  0  0  0  0  0  0  0  0  0  0  0
   11.6004  -41.4566   13.6605 C   0  0  2  0  0  0  0  0  0  0  0  0
   11.8350  -41.6930   15.1111 N   0  0  0  0  0  0  0  0  0  0  0  0
   10.6299  -37.2415   16.6877 C   0  0  1  0  0  0  0  0  0  0  0  0
   10.2295  -38.2249   17.6739 O   0  0  0  0  0  0  0  0  0  0  0  0
    3.8647  -49.1695   17.5152 C   0  0  0  0  0  0  0  0  0  0  0  0
    3.3563  -45.8677   13.7504 C   0  0  2  0  0  0  0  0  0  0  0  0
    2.4002  -45.4921   14.8024 N   0  0  0  0  0  0  0  0  0  0  0  0
    8.5189  -43.5522   13.3982 C   0  0  2  0  0  0  0  0  0  0  0  0
    9.7710  -43.0280   13.7479 O   0  0  0  0  0  0  0  0  0  0  0  0
   11.9556  -39.9718   13.1309 C   0  0  1  0  0  0  0  0  0  0  0  0
   11.6829  -39.9271   11.7186 O   0  0  0  0  0  0  0  0  0  0  0  0
   10.5233  -35.8355   17.3379 C   0  0  1  0  0  0  0  0  0  0  0  0
   10.7841  -35.9767   18.7402 O   0  0  0  0  0  0  0  0  0  0  0  0
    5.0317  -50.1849   17.2878 C   0  0  2  0  0  0  0  0  0  0  0  0
    5.7269  -50.4191   18.5084 O   0  0  0  0  0  0  0  0  0  0  0  0
    4.7582  -46.1261   14.3695 C   0  0  2  0  0  0  0  0  0  0  0  0
    7.5976  -43.2449   14.6029 C   0  0  2  0  0  0  0  0  0  0  0  0
    7.0546  -44.5214   14.9083 O   0  0  0  0  0  0  0  0  0  0  0  0
   11.0171  -38.8475   13.8159 C   0  0  2  0  0  0  0  0  0  0  0  0
   11.3354  -38.9170   15.2185 O   0  0  0  0  0  0  0  0  0  0  0  0
   11.4610  -34.7483   16.7643 C   0  0  2  0  0  0  0  0  0  0  0  0
   10.6667  -33.5439   16.6928 O   0  0  0  0  0  0  0  0  0  0  0  0
    6.0108  -49.6173   16.2207 C   0  0  2  0  0  0  0  0  0  0  0  0
    5.2546  -49.4045   14.9668 O   0  0  0  0  0  0  0  0  0  0  0  0
    5.8312  -46.4969   13.3007 C   0  0  2  0  0  0  0  0  0  0  0  0
    7.0925  -46.6676   13.9907 O   0  0  0  0  0  0  0  0  0  0  0  0
    6.4448  -42.2915   14.3090 C   0  0  0  0  0  0  0  0  0  0  0  0
    5.5450  -42.3625   15.4255 O   0  0  0  0  0  0  0  0  0  0  0  0
    9.5920  -39.3292   13.6196 C   0  0  1  0  0  0  0  0  0  0  0  0
    9.1371  -40.6738   13.8790 O   0  0  0  0  0  0  0  0  0  0  0  0
   12.0406  -35.1782   15.4193 C   0  0  2  0  0  0  0  0  0  0  0  0
   12.6546  -36.4966   15.4141 O   0  0  0  0  0  0  0  0  0  0  0  0
    7.1346  -50.5606   15.9303 C   0  0  0  0  0  0  0  0  0  0  0  0
    7.0919  -50.8793   14.5656 O   0  0  0  0  0  0  0  0  0  0  0  0
    5.9222  -45.3664   12.2116 C   0  0  1  0  0  0  0  0  0  0  0  0
    6.9032  -45.7738   11.1960 O   0  0  0  0  0  0  0  0  0  0  0  0
    8.5227  -38.3789   14.2663 C   0  0  0  0  0  0  0  0  0  0  0  0
    7.1389  -38.9080   14.1994 N   0  0  0  0  0  0  0  0  0  0  0  0
   13.0082  -34.2939   14.6360 C   0  0  0  0  0  0  0  0  0  0  0  0
   12.4273  -32.9707   14.4212 O   0  0  0  0  0  0  0  0  0  0  0  0
  1  2  1  1  0  0  0
  1  8  1  0  0  0  0
  1 36  1  0  0  0  0
  3  4  1  6  0  0  0
  3 10  1  0  0  0  0
  3 47  1  0  0  0  0
  5 11  1  0  0  0  0
  5 30  1  0  0  0  0
  5 38  1  6  0  0  0
  6 21  1  1  0  0  0
  6 42  1  0  0  0  0
  7 15  1  0  0  0  0
  7 44  1  0  0  0  0
  7 32  1  6  0  0  0
  8  9  1  1  0  0  0
  8 17  1  0  0  0  0
 11 12  1  1  0  0  0
 11 20  1  0  0  0  0
 13  6  1  0  0  0  0
 13 14  1  1  0  0  0
 15 16  1  1  0  0  0
 15 24  1  0  0  0  0
 17 26  1  0  0  0  0
 18 10  1  0  0  0  0
 18 19  1  1  0  0  0
 20 21  1  1  0  0  0
 20 29  1  0  0  0  0
 22 13  1  0  0  0  0
 22 23  1  6  0  0  0
 24 25  1  1  0  0  0
 24 33  1  0  0  0  0
 26 27  1  1  0  0  0
 26 35  1  0  0  0  0
 28  2  1  1  0  0  0
 28 18  1  0  0  0  0
 29 30  1  0  0  0  0
 29 39  1  6  0  0  0
 31 22  1  0  0  0  0
 31 32  1  1  0  0  0
 31 41  1  0  0  0  0
 33 34  1  6  0  0  0
 33 43  1  0  0  0  0
 35 36  1  0  0  0  0
 35 45  1  6  0  0  0
 37 28  1  0  0  0  0
 37 38  1  1  0  0  0
 39 40  1  0  0  0  0
 41 42  1  0  0  0  0
 41 49  1  1  0  0  0
 43 44  1  0  0  0  0
 43 51  1  1  0  0  0
 45 46  1  0  0  0  0
 47 37  1  0  0  0  0
 47 48  1  6  0  0  0
 49 50  1  0  0  0  0
 51 52  1  0  0  0  0
M  END
>  <CHROM.1>
-138.35544368,-78.76368683,-173.19041983,99.48231291,146.76071871,60.87681243
167.24722633,118.06732905,120.65378659,-76.79464856,-174.19630713,-54.59296141
8.00449115,-42.78394097,14.72748265,2.70633184,-1.01613261,-2.03645383

>  <Name>
2fd0_lig

>  <RI>
2.85265e+07

>  <Rbt.Current_Directory>
/home/itssahil/PROJECTS/Mol_Feturizer/New_Systems/rnas/2fd0

>  <Rbt.Executable>
rbdock ($Id: //depot/dev/client3/rdock/2013.1/src/exe/rbdock.cxx#4 $)

>  <Rbt.Library>
libRbt.so (2013.1, Build901 2013/11/27)

>  <Rbt.Parameter_File>
/export/apps/rDock/src/rDock_2013.1_src/data/scripts/dock_solv.prm

>  <Rbt.Receptor>
prm/blind_docking_60.prm

>  <SCORE>
1.02739

>  <SCORE.INTER>
-9.46539

>  <SCORE.INTER.CONST>
1

>  <SCORE.INTER.POLAR>
-1.64088

>  <SCORE.INTER.ROT>
12

>  <SCORE.INTER.SOLV>
23.9982

>  <SCORE.INTER.VDW>
-20.4401

>  <SCORE.INTER.norm>
-0.182027

>  <SCORE.INTRA>
6.69492

>  <SCORE.INTRA.DIHEDRAL>
8.79378

>  <SCORE.INTRA.DIHEDRAL.0>
23.9727

>  <SCORE.INTRA.POLAR>
0

>  <SCORE.INTRA.POLAR.0>
0

>  <SCORE.INTRA.REPUL>
0

>  <SCORE.INTRA.REPUL.0>
0

>  <SCORE.INTRA.SOLV>
0.346208

>  <SCORE.INTRA.SOLV.lig_0>
-115.028

>  <SCORE.INTRA.VDW>
2.12493

>  <SCORE.INTRA.VDW.0>
-6.82393

>  <SCORE.INTRA.norm>
0.128748

>  <SCORE.RESTR>
3.79786

>  <SCORE.RESTR.CAVITY>
3.79786

>  <SCORE.RESTR.norm>
0.0730357

>  <SCORE.SYSTEM>
0

>  <SCORE.SYSTEM.CONST>
0

>  <SCORE.SYSTEM.DIHEDRAL>
0

>  <SCORE.SYSTEM.SOLV>
0

>  <SCORE.SYSTEM.norm>
0

>  <SCORE.heavy>
52

>  <SCORE.norm>
0.0197574

>  <RMSD>
14.275

$$$$
2fd0_lig
 OpenBabel11021811433D
libRbt.so/2013.1/901 2013/11/27
 52 56  0  0  0  0  0  0  0  0999 V2000
    5.3282  -47.7317   14.4777 C   0  0  2  0  0  0  0  0  0  0  0  0
    4.3599  -46.7195   14.7858 O   0  0  0  0  0  0  0  0  0  0  0  0
    3.2302  -43.4320   12.1765 C   0  0  2  0  0  0  0  0  0  0  0  0
    3.1607  -42.0956   11.5630 N   0  0  0  0  0  0  0  0  0  0  0  0
    7.2084  -45.3218   13.2158 C   0  0  1  0  0  0  0  0  0  0  0  0
    9.8382  -41.5794   12.9714 C   0  0  1  0  0  0  0  0  0  0  0  0
   10.5803  -38.1183   16.6028 C   0  0  1  0  0  0  0  0  0  0  0  0
    4.9300  -49.0512   15.2339 C   0  0  2  0  0  0  0  0  0  0  0  0
    3.5838  -49.4879   14.8909 N   0  0  0  0  0  0  0  0  0  0  0  0
    2.8763  -43.3474   13.7258 C   0  0  0  0  0  0  0  0  0  0  0  0
    7.6540  -44.2515   12.2363 C   0  0  2  0  0  0  0  0  0  0  0  0
    8.7239  -44.7129   11.3643 O   0  0  0  0  0  0  0  0  0  0  0  0
   11.3296  -41.4960   13.5443 C   0  0  2  0  0  0  0  0  0  0  0  0
   11.3670  -41.9308   14.9673 N   0  0  0  0  0  0  0  0  0  0  0  0
   11.7512  -37.1361   16.3747 C   0  0  1  0  0  0  0  0  0  0  0  0
   11.5303  -36.4176   15.1358 O   0  0  0  0  0  0  0  0  0  0  0  0
    5.0929  -48.8624   16.7877 C   0  0  0  0  0  0  0  0  0  0  0  0
    2.9418  -44.8052   14.3892 C   0  0  2  0  0  0  0  0  0  0  0  0
    2.6211  -44.7546   15.8232 N   0  0  0  0  0  0  0  0  0  0  0  0
    7.9903  -43.0797   13.1432 C   0  0  2  0  0  0  0  0  0  0  0  0
    9.3745  -42.8737   13.2233 O   0  0  0  0  0  0  0  0  0  0  0  0
   11.8724  -40.0011   13.2589 C   0  0  1  0  0  0  0  0  0  0  0  0
   11.7762  -39.7564   11.8440 O   0  0  0  0  0  0  0  0  0  0  0  0
   12.0399  -36.0957   17.4906 C   0  0  1  0  0  0  0  0  0  0  0  0
   11.3255  -34.8951   17.1702 O   0  0  0  0  0  0  0  0  0  0  0  0
    6.5587  -48.4043   17.0814 C   0  0  2  0  0  0  0  0  0  0  0  0
    6.7529  -48.2395   18.4826 O   0  0  0  0  0  0  0  0  0  0  0  0
    4.3638  -45.3966   14.1799 C   0  0  2  0  0  0  0  0  0  0  0  0
    7.5456  -43.4251   14.5845 C   0  0  2  0  0  0  0  0  0  0  0  0
    6.8400  -44.6447   14.4048 O   0  0  0  0  0  0  0  0  0  0  0  0
   10.9587  -38.8802   13.9820 C   0  0  2  0  0  0  0  0  0  0  0  0
   11.0991  -39.1528   15.3890 O   0  0  0  0  0  0  0  0  0  0  0  0
   11.6734  -36.5236   18.9304 C   0  0  2  0  0  0  0  0  0  0  0  0
   12.7549  -36.0551   19.7655 O   0  0  0  0  0  0  0  0  0  0  0  0
    6.8385  -47.0623   16.3461 C   0  0  2  0  0  0  0  0  0  0  0  0
    6.6424  -47.2807   14.8958 O   0  0  0  0  0  0  0  0  0  0  0  0
    4.7817  -45.4473   12.6787 C   0  0  2  0  0  0  0  0  0  0  0  0
    6.1303  -45.9706   12.6193 O   0  0  0  0  0  0  0  0  0  0  0  0
    6.6021  -42.4162   15.2297 C   0  0  0  0  0  0  0  0  0  0  0  0
    7.4011  -41.2969   15.6421 O   0  0  0  0  0  0  0  0  0  0  0  0
    9.5314  -39.1880   13.5704 C   0  0  1  0  0  0  0  0  0  0  0  0
    8.9346  -40.5015   13.5977 O   0  0  0  0  0  0  0  0  0  0  0  0
   11.4468  -38.0307   19.0135 C   0  0  2  0  0  0  0  0  0  0  0  0
   10.5208  -38.5628   18.0261 O   0  0  0  0  0  0  0  0  0  0  0  0
    8.2406  -46.5865   16.5582 C   0  0  0  0  0  0  0  0  0  0  0  0
    8.3866  -46.2568   17.9131 O   0  0  0  0  0  0  0  0  0  0  0  0
    4.6962  -44.0107   12.0452 C   0  0  1  0  0  0  0  0  0  0  0  0
    5.0459  -44.1063   10.6211 O   0  0  0  0  0  0  0  0  0  0  0  0
    8.4780  -38.2212   14.2186 C   0  0  0  0  0  0  0  0  0  0  0  0
    7.0985  -38.7654   14.2289 N   0  0  0  0  0  0  0  0  0  0  0  0
   11.0616  -38.7197   20.3207 C   0  0  0  0  0  0  0  0  0  0  0  0
   12.1285  -38.5702   21.3076 O   0  0  0  0  0  0  0  0  0  0  0  0
  1  2  1  1  0  0  0
  1  8  1  0  0  0  0
  1 36  1  0  0  0  0
  3  4  1  1  0  0  0
  3 10  1  0  0  0  0
  3 47  1  0  0  0  0
  5 11  1  0  0  0  0
  5 30  1  0  0  0  0
  5 38  1  6  0  0  0
  6 21  1  1  0  0  0
  6 42  1  0  0  0  0
  7 15  1  0  0  0  0
  7 44  1  0  0  0  0
  7 32  1  6  0  0  0
  8  9  1  1  0  0  0
  8 17  1  0  0  0  0
 11 12  1  1  0  0  0
 11 20  1  0  0  0  0
 13  6  1  0  0  0  0
 13 14  1  1  0  0  0
 15 16  1  6  0  0  0
 15 24  1  0  0  0  0
 17 26  1  0  0  0  0
 18 10  1  0  0  0  0
 18 19  1  1  0  0  0
 20 21  1  1  0  0  0
 20 29  1  0  0  0  0
 22 13  1  0  0  0  0
 22 23  1  6  0  0  0
 24 25  1  6  0  0  0
 24 33  1  0  0  0  0
 26 27  1  1  0  0  0
 26 35  1  0  0  0  0
 28  2  1  6  0  0  0
 28 18  1  0  0  0  0
 29 30  1  0  0  0  0
 29 39  1  6  0  0  0
 31 22  1  0  0  0  0
 31 32  1  1  0  0  0
 31 41  1  0  0  0  0
 33 34  1  1  0  0  0
 33 43  1  0  0  0  0
 35 36  1  0  0  0  0
 35 45  1  6  0  0  0
 37 28  1  0  0  0  0
 37 38  1  1  0  0  0
 39 40  1  0  0  0  0
 41 42  1  0  0  0  0
 41 49  1  1  0  0  0
 43 44  1  0  0  0  0
 43 51  1  1  0  0  0
 45 46  1  0  0  0  0
 47 37  1  0  0  0  0
 47 48  1  6  0  0  0
 49 50  1  0  0  0  0
 51 52  1  0  0  0  0
M  END
>  <CHROM.1>
-175.42500863,-82.59714245,163.20685698,-74.64016113,128.30156620,161.18707209
-77.26998853,168.47176345,-66.48797137,-61.76217826,-159.71982139,-63.33214744
8.02175687,-42.46840206,15.06509736,-2.85520823,-0.94472534,-0.94288867

>  <Name>
2fd0_lig

>  <RI>
2.85265e+07

>  <Rbt.Current_Directory>
/home/itssahil/PROJECTS/Mol_Feturizer/New_Systems/rnas/2fd0

>  <Rbt.Executable>
rbdock ($Id: //depot/dev/client3/rdock/2013.1/src/exe/rbdock.cxx#4 $)

>  <Rbt.Library>
libRbt.so (2013.1, Build901 2013/11/27)

>  <Rbt.Parameter_File>
/export/apps/rDock/src/rDock_2013.1_src/data/scripts/dock_solv.prm

>  <Rbt.Receptor>
prm/blind_docking_60.prm

>  <SCORE>
-7.03818

>  <SCORE.INTER>
-8.42851

>  <SCORE.INTER.CONST>
1

>  <SCORE.INTER.POLAR>
-0.748654

>  <SCORE.INTER.ROT>
12

>  <SCORE.INTER.SOLV>
22.2623

>  <SCORE.INTER.VDW>
-22.1443

>  <SCORE.INTER.norm>
-0.162087

>  <SCORE.INTRA>
-0.644956

>  <SCORE.INTRA.DIHEDRAL>
-6.62544

>  <SCORE.INTRA.DIHEDRAL.0>
23.9727

>  <SCORE.INTRA.POLAR>
0

>  <SCORE.INTRA.POLAR.0>
0

>  <SCORE.INTRA.REPUL>
0

>  <SCORE.INTRA.REPUL.0>
0

>  <SCORE.INTRA.SOLV>
-0.497104

>  <SCORE.INTRA.SOLV.lig_0>
-115.028

>  <SCORE.INTRA.VDW>
2.91632

>  <SCORE.INTRA.VDW.0>
-6.82393

>  <SCORE.INTRA.norm>
-0.012403

>  <SCORE.RESTR>
2.03529

>  <SCORE.RESTR.CAVITY>
2.03529

>  <SCORE.RESTR.norm>
0.0391402

>  <SCORE.SYSTEM>
0

>  <SCORE.SYSTEM.CONST>
0

>  <SCORE.SYSTEM.DIHEDRAL>
0

>  <SCORE.SYSTEM.SOLV>
0

>  <SCORE.SYSTEM.norm>
0

>  <SCORE.heavy>
52

>  <SCORE.norm>
-0.13535

>  <RMSD>
14.289

$$$$
2fd0_lig
 OpenBabel11021811433D
libRbt.so/2013.1/901 2013/11/27
 52 56  0  0  0  0  0  0  0  0999 V2000
    6.5517  -47.9139   17.4676 C   0  0  2  0  0  0  0  0  0  0  0  0
    7.0087  -48.0798   16.1183 O   0  0  0  0  0  0  0  0  0  0  0  0
    5.6045  -46.8043   12.2076 C   0  0  2  0  0  0  0  0  0  0  0  0
    5.1621  -45.9525   11.0915 N   0  0  0  0  0  0  0  0  0  0  0  0
    9.3056  -45.6441   14.3720 C   0  0  1  0  0  0  0  0  0  0  0  0
   10.0298  -41.5646   12.4755 C   0  0  1  0  0  0  0  0  0  0  0  0
   10.7518  -36.9153   14.8875 C   0  0  1  0  0  0  0  0  0  0  0  0
    7.5815  -48.6063   18.4329 C   0  0  2  0  0  0  0  0  0  0  0  0
    8.9265  -48.0746   18.2629 N   0  0  0  0  0  0  0  0  0  0  0  0
    4.6698  -46.5815   13.4763 C   0  0  0  0  0  0  0  0  0  0  0  0
    9.7672  -45.1943   12.9979 C   0  0  2  0  0  0  0  0  0  0  0  0
   11.2027  -45.3533   12.8189 O   0  0  0  0  0  0  0  0  0  0  0  0
   11.4342  -40.7997   12.4311 C   0  0  2  0  0  0  0  0  0  0  0  0
   12.0830  -40.8219   13.7705 N   0  0  0  0  0  0  0  0  0  0  0  0
   11.9867  -36.3308   14.1656 C   0  0  1  0  0  0  0  0  0  0  0  0
   11.6060  -35.9344   12.8248 O   0  0  0  0  0  0  0  0  0  0  0  0
    7.5530  -50.1673   18.2357 C   0  0  0  0  0  0  0  0  0  0  0  0
    5.1465  -47.5181   14.6866 C   0  0  2  0  0  0  0  0  0  0  0  0
    4.2998  -47.3294   15.8738 N   0  0  0  0  0  0  0  0  0  0  0  0
    9.2368  -43.7732   12.9096 C   0  0  2  0  0  0  0  0  0  0  0  0
   10.2707  -42.8324   13.0127 O   0  0  0  0  0  0  0  0  0  0  0  0
   11.1638  -39.3315   11.8129 C   0  0  1  0  0  0  0  0  0  0  0  0
   10.5496  -39.4994   10.5224 O   0  0  0  0  0  0  0  0  0  0  0  0
   12.7060  -35.1298   14.8374 C   0  0  1  0  0  0  0  0  0  0  0  0
   12.1540  -33.9241   14.2935 O   0  0  0  0  0  0  0  0  0  0  0  0
    6.0859  -50.6672   18.4414 C   0  0  2  0  0  0  0  0  0  0  0  0
    6.0205  -52.0816   18.2890 O   0  0  0  0  0  0  0  0  0  0  0  0
    6.6274  -47.1936   15.0291 C   0  0  2  0  0  0  0  0  0  0  0  0
    8.3223  -43.5090   14.1296 C   0  0  2  0  0  0  0  0  0  0  0  0
    8.2299  -44.7936   14.7287 O   0  0  0  0  0  0  0  0  0  0  0  0
   10.1210  -38.4826   12.7109 C   0  0  2  0  0  0  0  0  0  0  0  0
   10.7824  -38.3255   13.9804 O   0  0  0  0  0  0  0  0  0  0  0  0
   12.6227  -35.0637   16.3799 C   0  0  2  0  0  0  0  0  0  0  0  0
   13.9352  -34.6576   16.8260 O   0  0  0  0  0  0  0  0  0  0  0  0
    5.1542  -49.9786   17.4033 C   0  0  2  0  0  0  0  0  0  0  0  0
    5.2386  -48.5153   17.6062 O   0  0  0  0  0  0  0  0  0  0  0  0
    7.5773  -47.3413   13.8015 C   0  0  2  0  0  0  0  0  0  0  0  0
    8.9086  -46.9717   14.2339 O   0  0  0  0  0  0  0  0  0  0  0  0
    6.9131  -43.0356   13.7912 C   0  0  0  0  0  0  0  0  0  0  0  0
    7.0354  -42.0721   12.7339 O   0  0  0  0  0  0  0  0  0  0  0  0
    8.9167  -39.3850   12.9022 C   0  0  1  0  0  0  0  0  0  0  0  0
    8.9850  -40.7747   13.2848 O   0  0  0  0  0  0  0  0  0  0  0  0
   12.1660  -36.3987   16.9619 C   0  0  2  0  0  0  0  0  0  0  0  0
   10.9553  -36.9409   16.3657 O   0  0  0  0  0  0  0  0  0  0  0  0
    3.7256  -50.3886   17.5707 C   0  0  0  0  0  0  0  0  0  0  0  0
    2.9899  -49.8406   16.5105 O   0  0  0  0  0  0  0  0  0  0  0  0
    7.0829  -46.4258   12.6225 C   0  0  1  0  0  0  0  0  0  0  0  0
    7.9697  -46.6301   11.4687 O   0  0  0  0  0  0  0  0  0  0  0  0
    7.7992  -38.7442   13.7994 C   0  0  0  0  0  0  0  0  0  0  0  0
    8.3292  -37.8911   14.8906 N   0  0  0  0  0  0  0  0  0  0  0  0
   11.9885  -36.6075   18.4642 C   0  0  0  0  0  0  0  0  0  0  0  0
   11.0120  -35.6605   18.9971 O   0  0  0  0  0  0  0  0  0  0  0  0
  1  2  1  6  0  0  0
  1  8  1  0  0  0  0
  1 36  1  0  0  0  0
  3  4  1  6  0  0  0
  3 10  1  0  0  0  0
  3 47  1  0  0  0  0
  5 11  1  0  0  0  0
  5 30  1  0  0  0  0
  5 38  1  6  0  0  0
  6 21  1  1  0  0  0
  6 42  1  0  0  0  0
  7 15  1  0  0  0  0
  7 44  1  0  0  0  0
  7 32  1  6  0  0  0
  8  9  1  6  0  0  0
  8 17  1  0  0  0  0
 11 12  1  1  0  0  0
 11 20  1  0  0  0  0
 13  6  1  0  0  0  0
 13 14  1  1  0  0  0
 15 16  1  6  0  0  0
 15 24  1  0  0  0  0
 17 26  1  0  0  0  0
 18 10  1  0  0  0  0
 18 19  1  1  0  0  0
 20 21  1  1  0  0  0
 20 29  1  0  0  0  0
 22 13  1  0  0  0  0
 22 23  1  6  0  0  0
 24 25  1  6  0  0  0
 24 33  1  0  0  0  0
 26 27  1  6  0  0  0
 26 35  1  0  0  0  0
 28  2  1  1  0  0  0
 28 18  1  0  0  0  0
 29 30  1  0  0  0  0
 29 39  1  6  0  0  0
 31 22  1  0  0  0  0
 31 32  1  1  0  0  0
 31 41  1  0  0  0  0
 33 34  1  1  0  0  0
 33 43  1  0  0  0  0
 35 36  1  0  0  0  0
 35 45  1  1  0  0  0
 37 28  1  0  0  0  0
 37 38  1  1  0  0  0
 39 40  1  0  0  0  0
 41 42  1  0  0  0  0
 41 49  1  1  0  0  0
 43 44  1  0  0  0  0
 43 51  1  1  0  0  0
 45 46  1  0  0  0  0
 47 37  1  0  0  0  0
 47 48  1  6  0  0  0
 49 50  1  0  0  0  0
 51 52  1  0  0  0  0
M  END
>  <CHROM.1>
-156.23846962,-85.43084336,-167.99005293,-87.78193588,157.23309384,-73.25941225
-42.26127044,139.88127351,-173.58480859,-78.84902427,-34.80761412,58.78477271
8.71124293,-43.01538196,14.77188266,-2.89614426,-1.13022913,-1.40561449

>  <Name>
2fd0_lig

>  <RI>
0

>  <Rbt.Current_Directory>
/home/itssahil/PROJECTS/Mol_Feturizer/New_Systems/rnas/2fd0

>  <Rbt.Executable>
rbdock ($Id: //depot/dev/client3/rdock/2013.1/src/exe/rbdock.cxx#4 $)

>  <Rbt.Library>
libRbt.so (2013.1, Build901 2013/11/27)

>  <Rbt.Parameter_File>
/export/apps/rDock/src/rDock_2013.1_src/data/scripts/dock_solv.prm

>  <Rbt.Receptor>
prm/blind_docking_100.prm

>  <SCORE>
12.4947

>  <SCORE.INTER>
-6.69609

>  <SCORE.INTER.CONST>
1

>  <SCORE.INTER.POLAR>
-0.959166

>  <SCORE.INTER.ROT>
12

>  <SCORE.INTER.SOLV>
21.6739

>  <SCORE.INTER.VDW>
-20.0915

>  <SCORE.INTER.norm>
-0.128771

>  <SCORE.INTRA>
7.44164

>  <SCORE.INTRA.DIHEDRAL>
-1.08025

>  <SCORE.INTRA.DIHEDRAL.0>
23.9727

>  <SCORE.INTRA.POLAR>
0

>  <SCORE.INTRA.POLAR.0>
0

>  <SCORE.INTRA.REPUL>
0

>  <SCORE.INTRA.REPUL.0>
0

>  <SCORE.INTRA.SOLV>
4.72538

>  <SCORE.INTRA.SOLV.lig_0>
-115.028

>  <SCORE.INTRA.VDW>
5.61908

>  <SCORE.INTRA.VDW.0>
-6.82393

>  <SCORE.INTRA.norm>
0.143108

>  <SCORE.RESTR>
11.7492

>  <SCORE.RESTR.CAVITY>
11.7492

>  <SCORE.RESTR.norm>
0.225946

>  <SCORE.SYSTEM>
0

>  <SCORE.SYSTEM.CONST>
0

>  <SCORE.SYSTEM.DIHEDRAL>
0

>  <SCORE.SYSTEM.SOLV>
0

>  <SCORE.SYSTEM.norm>
0

>  <SCORE.heavy>
52

>  <SCORE.norm>
0.240284

>  <RMSD>
14.298

$$$$
2fd0_lig
 OpenBabel11021811433D
libRbt.so/2013.1/901 2013/11/27
 52 56  0  0  0  0  0  0  0  0999 V2000
    5.0536  -47.0693   10.5882 C   0  0  2  0  0  0  0  0  0  0  0  0
    4.2104  -47.6970   11.5638 O   0  0  0  0  0  0  0  0  0  0  0  0
    4.3432  -49.4333   15.5463 C   0  0  2  0  0  0  0  0  0  0  0  0
    4.7941  -50.1879   16.7271 N   0  0  0  0  0  0  0  0  0  0  0  0
    6.2037  -45.3955   14.4132 C   0  0  1  0  0  0  0  0  0  0  0  0
    9.0357  -42.4333   14.4548 C   0  0  1  0  0  0  0  0  0  0  0  0
   11.6083  -38.2292   14.7120 C   0  0  1  0  0  0  0  0  0  0  0  0
    4.7265  -45.5319   10.5596 C   0  0  2  0  0  0  0  0  0  0  0  0
    4.8896  -44.9182   11.8701 N   0  0  0  0  0  0  0  0  0  0  0  0
    4.2306  -50.3972   14.2849 C   0  0  0  0  0  0  0  0  0  0  0  0
    7.2210  -44.5592   13.6587 C   0  0  2  0  0  0  0  0  0  0  0  0
    8.5902  -44.9185   13.9971 O   0  0  0  0  0  0  0  0  0  0  0  0
    9.7956  -41.5081   15.5160 C   0  0  2  0  0  0  0  0  0  0  0  0
    9.0780  -40.2157   15.6895 N   0  0  0  0  0  0  0  0  0  0  0  0
   10.5089  -37.1967   14.3757 C   0  0  1  0  0  0  0  0  0  0  0  0
    9.2770  -37.5886   15.0304 O   0  0  0  0  0  0  0  0  0  0  0  0
    3.2798  -45.2902    9.9895 C   0  0  0  0  0  0  0  0  0  0  0  0
    3.7288  -49.5756   13.0033 C   0  0  2  0  0  0  0  0  0  0  0  0
    3.6188  -50.4437   11.8217 N   0  0  0  0  0  0  0  0  0  0  0  0
    6.8032  -43.1362   13.9890 C   0  0  2  0  0  0  0  0  0  0  0  0
    7.7054  -42.5287   14.8732 O   0  0  0  0  0  0  0  0  0  0  0  0
   11.3346  -41.3909   15.0379 C   0  0  1  0  0  0  0  0  0  0  0  0
   11.8704  -42.7226   14.9356 O   0  0  0  0  0  0  0  0  0  0  0  0
   10.7909  -35.7111   14.7283 C   0  0  1  0  0  0  0  0  0  0  0  0
   10.2525  -35.4570   16.0321 O   0  0  0  0  0  0  0  0  0  0  0  0
    3.1811  -45.9658    8.5828 C   0  0  2  0  0  0  0  0  0  0  0  0
    1.8888  -45.7536    8.0231 O   0  0  0  0  0  0  0  0  0  0  0  0
    4.7220  -48.4136   12.7222 C   0  0  2  0  0  0  0  0  0  0  0  0
    5.4554  -43.1791   14.7479 C   0  0  2  0  0  0  0  0  0  0  0  0
    5.0930  -44.5493   14.6540 O   0  0  0  0  0  0  0  0  0  0  0  0
   11.4600  -40.7311   13.5671 C   0  0  2  0  0  0  0  0  0  0  0  0
   10.9305  -39.4009   13.7219 O   0  0  0  0  0  0  0  0  0  0  0  0
   12.2750  -35.2777   14.7096 C   0  0  2  0  0  0  0  0  0  0  0  0
   12.2935  -33.9701   14.0961 O   0  0  0  0  0  0  0  0  0  0  0  0
    3.4550  -47.4908    8.7208 C   0  0  2  0  0  0  0  0  0  0  0  0
    4.8100  -47.6670    9.2887 O   0  0  0  0  0  0  0  0  0  0  0  0
    4.9117  -47.4713   13.9499 C   0  0  2  0  0  0  0  0  0  0  0  0
    5.8849  -46.4651   13.5805 O   0  0  0  0  0  0  0  0  0  0  0  0
    4.3386  -42.3447   14.1306 C   0  0  0  0  0  0  0  0  0  0  0  0
    4.3077  -42.6543   12.7290 O   0  0  0  0  0  0  0  0  0  0  0  0
   10.5191  -41.5254   12.6809 C   0  0  1  0  0  0  0  0  0  0  0  0
    9.1616  -41.8709   13.0271 O   0  0  0  0  0  0  0  0  0  0  0  0
   13.1371  -36.3057   13.9819 C   0  0  2  0  0  0  0  0  0  0  0  0
   12.9671  -37.6761   14.4388 O   0  0  0  0  0  0  0  0  0  0  0  0
    3.4105  -48.1919    7.4004 C   0  0  0  0  0  0  0  0  0  0  0  0
    3.9141  -49.4879    7.5802 O   0  0  0  0  0  0  0  0  0  0  0  0
    5.3896  -48.2997   15.1981 C   0  0  1  0  0  0  0  0  0  0  0  0
    5.5072  -47.3896   16.3459 O   0  0  0  0  0  0  0  0  0  0  0  0
   10.4674  -40.9977   11.2033 C   0  0  0  0  0  0  0  0  0  0  0  0
    9.6623  -41.8502   10.2952 N   0  0  0  0  0  0  0  0  0  0  0  0
   14.6461  -36.1307   13.8262 C   0  0  0  0  0  0  0  0  0  0  0  0
   14.9447  -34.8673   13.1560 O   0  0  0  0  0  0  0  0  0  0  0  0
  1  2  1  1  0  0  0
  1  8  1  0  0  0  0
  1 36  1  0  0  0  0
  3  4  1  1  0  0  0
  3 10  1  0  0  0  0
  3 47  1  0  0  0  0
  5 11  1  0  0  0  0
  5 30  1  0  0  0  0
  5 38  1  6  0  0  0
  6 21  1  1  0  0  0
  6 42  1  0  0  0  0
  7 15  1  0  0  0  0
  7 44  1  0  0  0  0
  7 32  1  6  0  0  0
  8  9  1  1  0  0  0
  8 17  1  0  0  0  0
 11 12  1  1  0  0  0
 11 20  1  0  0  0  0
 13  6  1  0  0  0  0
 13 14  1  6  0  0  0
 15 16  1  1  0  0  0
 15 24  1  0  0  0  0
 17 26  1  0  0  0  0
 18 10  1  0  0  0  0
 18 19  1  6  0  0  0
 20 21  1  1  0  0  0
 20 29  1  0  0  0  0
 22 13  1  0  0  0  0
 22 23  1  6  0  0  0
 24 25  1  1  0  0  0
 24 33  1  0  0  0  0
 26 27  1  1  0  0  0
 26 35  1  0  0  0  0
 28  2  1  6  0  0  0
 28 18  1  0  0  0  0
 29 30  1  0  0  0  0
 29 39  1  6  0  0  0
 31 22  1  0  0  0  0
 31 32  1  1  0  0  0
 31 41  1  0  0  0  0
 33 34  1  6  0  0  0
 33 43  1  0  0  0  0
 35 36  1  0  0  0  0
 35 45  1  6  0  0  0
 37 28  1  0  0  0  0
 37 38  1  6  0  0  0
 39 40  1  0  0  0  0
 41 42  1  0  0  0  0
 41 49  1  6  0  0  0
 43 44  1  0  0  0  0
 43 51  1  1  0  0  0
 45 46  1  0  0  0  0
 47 37  1  0  0  0  0
 47 48  1  1  0  0  0
 49 50  1  0  0  0  0
 51 52  1  0  0  0  0
M  END
>  <CHROM.1>
-119.86631246,-178.49616029,171.08130926,-178.38067965,58.87611489,-146.61410574
48.08597846,63.23872364,168.86298930,174.48456019,173.95910258,-57.05512536
7.55062567,-43.21485601,13.14064502,2.94873067,0.94224660,2.04748963

>  <Name>
2fd0_lig

>  <RI>
2.60878e+07

>  <Rbt.Current_Directory>
/home/itssahil/PROJECTS/Mol_Feturizer/New_Systems/rnas/2fd0

>  <Rbt.Executable>
rbdock ($Id: //depot/dev/client3/rdock/2013.1/src/exe/rbdock.cxx#4 $)

>  <Rbt.Library>
libRbt.so (2013.1, Build901 2013/11/27)

>  <Rbt.Parameter_File>
/export/apps/rDock/src/rDock_2013.1_src/data/scripts/dock_solv.prm

>  <Rbt.Receptor>
prm/blind_docking_80.prm

>  <SCORE>
-10.4097

>  <SCORE.INTER>
-14.3485

>  <SCORE.INTER.CONST>
1

>  <SCORE.INTER.POLAR>
-1.84315

>  <SCORE.INTER.ROT>
12

>  <SCORE.INTER.SOLV>
19.4023

>  <SCORE.INTER.VDW>
-21.4892

>  <SCORE.INTER.norm>
-0.275932

>  <SCORE.INTRA>
1.23697

>  <SCORE.INTRA.DIHEDRAL>
-9.15579

>  <SCORE.INTRA.DIHEDRAL.0>
23.9727

>  <SCORE.INTRA.POLAR>
0

>  <SCORE.INTRA.POLAR.0>
0

>  <SCORE.INTRA.REPUL>
0.0243523

>  <SCORE.INTRA.REPUL.0>
0

>  <SCORE.INTRA.SOLV>
4.64888

>  <SCORE.INTRA.SOLV.lig_0>
-115.028

>  <SCORE.INTRA.VDW>
3.36866

>  <SCORE.INTRA.VDW.0>
-6.82393

>  <SCORE.INTRA.norm>
0.0237878

>  <SCORE.RESTR>
2.70179

>  <SCORE.RESTR.CAVITY>
2.70179

>  <SCORE.RESTR.norm>
0.0519576

>  <SCORE.SYSTEM>
0

>  <SCORE.SYSTEM.CONST>
0

>  <SCORE.SYSTEM.DIHEDRAL>
0

>  <SCORE.SYSTEM.SOLV>
0

>  <SCORE.SYSTEM.norm>
0

>  <SCORE.heavy>
52

>  <SCORE.norm>
-0.200187

>  <RMSD>
14.311

$$$$
2fd0_lig
 OpenBabel11021811433D
libRbt.so/2013.1/901 2013/11/27
 52 56  0  0  0  0  0  0  0  0999 V2000
    7.7691  -46.4074   14.7668 C   0  0  2  0  0  0  0  0  0  0  0  0
    6.6605  -45.4980   14.7974 O   0  0  0  0  0  0  0  0  0  0  0  0
    4.3735  -44.3457   11.2854 C   0  0  2  0  0  0  0  0  0  0  0  0
    3.8690  -43.5732   10.1383 N   0  0  0  0  0  0  0  0  0  0  0  0
    8.7549  -44.7749   11.6425 C   0  0  1  0  0  0  0  0  0  0  0  0
    9.5792  -40.5578   12.1691 C   0  0  1  0  0  0  0  0  0  0  0  0
   11.2870  -38.5236   16.1597 C   0  0  1  0  0  0  0  0  0  0  0  0
    7.2214  -47.8543   14.4876 C   0  0  2  0  0  0  0  0  0  0  0  0
    6.4556  -47.9150   13.2504 N   0  0  0  0  0  0  0  0  0  0  0  0
    4.1968  -43.5147   12.6313 C   0  0  0  0  0  0  0  0  0  0  0  0
    8.4852  -43.4789   12.3849 C   0  0  2  0  0  0  0  0  0  0  0  0
    7.5201  -42.6375   11.6929 O   0  0  0  0  0  0  0  0  0  0  0  0
   10.8208  -39.7300   12.7457 C   0  0  2  0  0  0  0  0  0  0  0  0
   11.5579  -40.5332   13.7591 N   0  0  0  0  0  0  0  0  0  0  0  0
   10.5636  -37.8692   17.3581 C   0  0  1  0  0  0  0  0  0  0  0  0
   10.1266  -38.9073   18.2699 O   0  0  0  0  0  0  0  0  0  0  0  0
    6.3745  -48.3650   15.7117 C   0  0  0  0  0  0  0  0  0  0  0  0
    4.7366  -44.3622   13.8802 C   0  0  2  0  0  0  0  0  0  0  0  0
    4.5871  -43.6149   15.1376 N   0  0  0  0  0  0  0  0  0  0  0  0
    9.8758  -42.8929   12.5620 C   0  0  2  0  0  0  0  0  0  0  0  0
   10.0766  -41.7864   11.7253 O   0  0  0  0  0  0  0  0  0  0  0  0
   10.2534  -38.3083   13.2632 C   0  0  1  0  0  0  0  0  0  0  0  0
    9.5871  -37.6681   12.1599 O   0  0  0  0  0  0  0  0  0  0  0  0
   11.3497  -36.8089   18.1759 C   0  0  1  0  0  0  0  0  0  0  0  0
   11.9850  -37.4788   19.2721 O   0  0  0  0  0  0  0  0  0  0  0  0
    7.2597  -48.2806   16.9978 C   0  0  2  0  0  0  0  0  0  0  0  0
    6.5337  -48.7525   18.1284 O   0  0  0  0  0  0  0  0  0  0  0  0
    6.2307  -44.7201   13.6454 C   0  0  2  0  0  0  0  0  0  0  0  0
   10.9174  -43.9426   12.1064 C   0  0  2  0  0  0  0  0  0  0  0  0
   10.1156  -45.0926   11.8780 O   0  0  0  0  0  0  0  0  0  0  0  0
    9.1453  -38.4894   14.4266 C   0  0  2  0  0  0  0  0  0  0  0  0
    9.8583  -39.1147   15.5102 O   0  0  0  0  0  0  0  0  0  0  0  0
   12.4169  -36.0046   17.3982 C   0  0  2  0  0  0  0  0  0  0  0  0
   12.2975  -34.6426   17.8642 O   0  0  0  0  0  0  0  0  0  0  0  0
    7.6990  -46.8061   17.2277 C   0  0  2  0  0  0  0  0  0  0  0  0
    8.4622  -46.3612   16.0407 O   0  0  0  0  0  0  0  0  0  0  0  0
    6.4650  -45.4865   12.3079 C   0  0  2  0  0  0  0  0  0  0  0  0
    7.8882  -45.7210   12.1837 O   0  0  0  0  0  0  0  0  0  0  0  0
   11.9767  -44.2956   13.1446 C   0  0  0  0  0  0  0  0  0  0  0  0
   11.5695  -43.6935   14.3827 O   0  0  0  0  0  0  0  0  0  0  0  0
    8.1347  -39.4792   13.8784 C   0  0  1  0  0  0  0  0  0  0  0  0
    8.4729  -40.7217   13.2274 O   0  0  0  0  0  0  0  0  0  0  0  0
   12.2251  -36.1534   15.8913 C   0  0  2  0  0  0  0  0  0  0  0  0
   12.1180  -37.5263   15.4235 O   0  0  0  0  0  0  0  0  0  0  0  0
    8.5811  -46.6626   18.4270 C   0  0  0  0  0  0  0  0  0  0  0  0
    7.8756  -47.1336   19.5433 O   0  0  0  0  0  0  0  0  0  0  0  0
    5.9154  -44.6441   11.0991 C   0  0  1  0  0  0  0  0  0  0  0  0
    6.1060  -45.4186    9.8649 O   0  0  0  0  0  0  0  0  0  0  0  0
    6.9896  -39.8223   14.8960 C   0  0  0  0  0  0  0  0  0  0  0  0
    6.0614  -38.6938   15.1495 N   0  0  0  0  0  0  0  0  0  0  0  0
   13.1504  -35.4700   14.8870 C   0  0  0  0  0  0  0  0  0  0  0  0
   12.9851  -34.0197   14.9487 O   0  0  0  0  0  0  0  0  0  0  0  0
  1  2  1  1  0  0  0
  1  8  1  0  0  0  0
  1 36  1  0  0  0  0
  3  4  1  6  0  0  0
  3 10  1  0  0  0  0
  3 47  1  0  0  0  0
  5 11  1  0  0  0  0
  5 30  1  0  0  0  0
  5 38  1  1  0  0  0
  6 21  1  1  0  0  0
  6 42  1  0  0  0  0
  7 15  1  0  0  0  0
  7 44  1  0  0  0  0
  7 32  1  6  0  0  0
  8  9  1  6  0  0  0
  8 17  1  0  0  0  0
 11 12  1  6  0  0  0
 11 20  1  0  0  0  0
 13  6  1  0  0  0  0
 13 14  1  1  0  0  0
 15 16  1  1  0  0  0
 15 24  1  0  0  0  0
 17 26  1  0  0  0  0
 18 10  1  0  0  0  0
 18 19  1  1  0  0  0
 20 21  1  6  0  0  0
 20 29  1  0  0  0  0
 22 13  1  0  0  0  0
 22 23  1  6  0  0  0
 24 25  1  1  0  0  0
 24 33  1  0  0  0  0
 26 27  1  1  0  0  0
 26 35  1  0  0  0  0
 28  2  1  1  0  0  0
 28 18  1  0  0  0  0
 29 30  1  0  0  0  0
 29 39  1  1  0  0  0
 31 22  1  0  0  0  0
 31 32  1  1  0  0  0
 31 41  1  0  0  0  0
 33 34  1  6  0  0  0
 33 43  1  0  0  0  0
 35 36  1  0  0  0  0
 35 45  1  1  0  0  0
 37 28  1  0  0  0  0
 37 38  1  6  0  0  0
 39 40  1  0  0  0  0
 41 42  1  0  0  0  0
 41 49  1  1  0  0  0
 43 44  1  0  0  0  0
 43 51  1  6  0  0  0
 45 46  1  0  0  0  0
 47 37  1  0  0  0  0
 47 48  1  6  0  0  0
 49 50  1  0  0  0  0
 51 52  1  0  0  0  0
M  END
>  <CHROM.1>
-95.32672628,51.53332143,101.61969333,99.70484969,81.98606357,156.64119426
9.60302545,52.77089227,-58.59421463,-85.15075981,69.15902254,-67.17832859
8.79368298,-42.18400975,14.44880985,-2.72743049,-1.06132898,-0.91249269

>  <Name>
2fd0_lig

>  <RI>
2.60878e+07

>  <Rbt.Current_Directory>
/home/itssahil/PROJECTS/Mol_Feturizer/New_Systems/rnas/2fd0

>  <Rbt.Executable>
rbdock ($Id: //depot/dev/client3/rdock/2013.1/src/exe/rbdock.cxx#4 $)

>  <Rbt.Library>
libRbt.so (2013.1, Build901 2013/11/27)

>  <Rbt.Parameter_File>
/export/apps/rDock/src/rDock_2013.1_src/data/scripts/dock_solv.prm

>  <Rbt.Receptor>
prm/blind_docking_80.prm

>  <SCORE>
4.93954

>  <SCORE.INTER>
-8.39483

>  <SCORE.INTER.CONST>
1

>  <SCORE.INTER.POLAR>
-1.07429

>  <SCORE.INTER.ROT>
12

>  <SCORE.INTER.SOLV>
28.3288

>  <SCORE.INTER.VDW>
-23.0585

>  <SCORE.INTER.norm>
-0.161439

>  <SCORE.INTRA>
11.5092

>  <SCORE.INTRA.DIHEDRAL>
6.11231

>  <SCORE.INTRA.DIHEDRAL.0>
23.9727

>  <SCORE.INTRA.POLAR>
0

>  <SCORE.INTRA.POLAR.0>
0

>  <SCORE.INTRA.REPUL>
0

>  <SCORE.INTRA.REPUL.0>
0

>  <SCORE.INTRA.SOLV>
3.17998

>  <SCORE.INTRA.SOLV.lig_0>
-115.028

>  <SCORE.INTRA.VDW>
6.86306

>  <SCORE.INTRA.VDW.0>
-6.82393

>  <SCORE.INTRA.norm>
0.221331

>  <SCORE.RESTR>
1.82517

>  <SCORE.RESTR.CAVITY>
1.82517

>  <SCORE.RESTR.norm>
0.0350995

>  <SCORE.SYSTEM>
0

>  <SCORE.SYSTEM.CONST>
0

>  <SCORE.SYSTEM.DIHEDRAL>
0

>  <SCORE.SYSTEM.SOLV>
0

>  <SCORE.SYSTEM.norm>
0

>  <SCORE.heavy>
52

>  <SCORE.norm>
0.0949911

>  <RMSD>
14.383

$$$$
2fd0_lig
 OpenBabel11021811433D
libRbt.so/2013.1/901 2013/11/27
 52 56  0  0  0  0  0  0  0  0999 V2000
    5.2883  -47.5676   13.1145 C   0  0  2  0  0  0  0  0  0  0  0  0
    6.5829  -48.1140   13.4018 O   0  0  0  0  0  0  0  0  0  0  0  0
    6.5603  -48.9239   17.6722 C   0  0  2  0  0  0  0  0  0  0  0  0
    6.8384  -49.5438   18.9781 N   0  0  0  0  0  0  0  0  0  0  0  0
    8.8699  -46.3017   14.0159 C   0  0  1  0  0  0  0  0  0  0  0  0
    8.6228  -42.1137   13.8975 C   0  0  1  0  0  0  0  0  0  0  0  0
   10.2456  -37.0439   14.0942 C   0  0  1  0  0  0  0  0  0  0  0  0
    4.9159  -47.9191   11.6282 C   0  0  2  0  0  0  0  0  0  0  0  0
    4.9475  -49.3548   11.3861 N   0  0  0  0  0  0  0  0  0  0  0  0
    5.9243  -49.9919   16.6782 C   0  0  0  0  0  0  0  0  0  0  0  0
    8.9117  -44.9700   14.7427 C   0  0  2  0  0  0  0  0  0  0  0  0
    7.5842  -44.4058   14.9369 O   0  0  0  0  0  0  0  0  0  0  0  0
    8.2456  -40.9631   12.8518 C   0  0  2  0  0  0  0  0  0  0  0  0
    9.4274  -40.6059   12.0205 N   0  0  0  0  0  0  0  0  0  0  0  0
   11.6039  -37.3849   13.4410 C   0  0  1  0  0  0  0  0  0  0  0  0
   11.3960  -37.6544   12.0325 O   0  0  0  0  0  0  0  0  0  0  0  0
    5.8580  -47.1487   10.6305 C   0  0  0  0  0  0  0  0  0  0  0  0
    5.6121  -49.3119   15.2607 C   0  0  2  0  0  0  0  0  0  0  0  0
    5.0254  -50.2794   14.3217 N   0  0  0  0  0  0  0  0  0  0  0  0
    9.8682  -44.1494   13.8940 C   0  0  2  0  0  0  0  0  0  0  0  0
    9.1902  -43.1614   13.1667 O   0  0  0  0  0  0  0  0  0  0  0  0
    7.5907  -39.7465   13.6897 C   0  0  1  0  0  0  0  0  0  0  0  0
    6.4633  -40.2655   14.4181 O   0  0  0  0  0  0  0  0  0  0  0  0
   12.7421  -36.3364   13.5684 C   0  0  1  0  0  0  0  0  0  0  0  0
   12.7007  -35.4967   12.4075 O   0  0  0  0  0  0  0  0  0  0  0  0
    5.7662  -45.6192   10.9417 C   0  0  2  0  0  0  0  0  0  0  0  0
    6.5929  -44.8828   10.0458 O   0  0  0  0  0  0  0  0  0  0  0  0
    6.9282  -48.7287   14.6746 C   0  0  2  0  0  0  0  0  0  0  0  0
   10.5043  -45.0747   12.8294 C   0  0  2  0  0  0  0  0  0  0  0  0
   10.0428  -46.3591   13.2229 O   0  0  0  0  0  0  0  0  0  0  0  0
    8.6153  -39.1532   14.7907 C   0  0  2  0  0  0  0  0  0  0  0  0
    9.7134  -38.6325   14.0183 O   0  0  0  0  0  0  0  0  0  0  0  0
   12.7058  -35.4434   14.8301 C   0  0  2  0  0  0  0  0  0  0  0  0
   14.0767  -35.3338   15.2719 O   0  0  0  0  0  0  0  0  0  0  0  0
    6.2142  -45.3619   12.4090 C   0  0  2  0  0  0  0  0  0  0  0  0
    5.3220  -46.1296   13.3056 O   0  0  0  0  0  0  0  0  0  0  0  0
    7.6220  -47.7178   15.6377 C   0  0  2  0  0  0  0  0  0  0  0  0
    8.8487  -47.2834   15.0032 O   0  0  0  0  0  0  0  0  0  0  0  0
   12.0287  -45.0959   12.8184 C   0  0  0  0  0  0  0  0  0  0  0  0
   12.4465  -45.8924   13.9374 O   0  0  0  0  0  0  0  0  0  0  0  0
    9.1059  -40.3517   15.5808 C   0  0  1  0  0  0  0  0  0  0  0  0
    9.5653  -41.5881   14.9957 O   0  0  0  0  0  0  0  0  0  0  0  0
   11.7687  -36.0238   15.8858 C   0  0  2  0  0  0  0  0  0  0  0  0
   10.4368  -36.3530   15.4031 O   0  0  0  0  0  0  0  0  0  0  0  0
    6.1151  -43.9168   12.7821 C   0  0  0  0  0  0  0  0  0  0  0  0
    4.7561  -43.5813   12.8607 O   0  0  0  0  0  0  0  0  0  0  0  0
    7.9054  -48.4010   17.0254 C   0  0  1  0  0  0  0  0  0  0  0  0
    8.5106  -47.4057   17.9214 O   0  0  0  0  0  0  0  0  0  0  0  0
   10.1595  -39.9774   16.6828 C   0  0  0  0  0  0  0  0  0  0  0  0
   11.1336  -38.9468   16.2488 N   0  0  0  0  0  0  0  0  0  0  0  0
   11.5378  -35.3348   17.2288 C   0  0  0  0  0  0  0  0  0  0  0  0
   10.9713  -34.0034   17.0262 O   0  0  0  0  0  0  0  0  0  0  0  0
  1  2  1  6  0  0  0
  1  8  1  0  0  0  0
  1 36  1  0  0  0  0
  3  4  1  1  0  0  0
  3 10  1  0  0  0  0
  3 47  1  0  0  0  0
  5 11  1  0  0  0  0
  5 30  1  0  0  0  0
  5 38  1  1  0  0  0
  6 21  1  6  0  0  0
  6 42  1  0  0  0  0
  7 15  1  0  0  0  0
  7 44  1  0  0  0  0
  7 32  1  1  0  0  0
  8  9  1  1  0  0  0
  8 17  1  0  0  0  0
 11 12  1  6  0  0  0
 11 20  1  0  0  0  0
 13  6  1  0  0  0  0
 13 14  1  1  0  0  0
 15 16  1  6  0  0  0
 15 24  1  0  0  0  0
 17 26  1  0  0  0  0
 18 10  1  0  0  0  0
 18 19  1  6  0  0  0
 20 21  1  6  0  0  0
 20 29  1  0  0  0  0
 22 13  1  0  0  0  0
 22 23  1  1  0  0  0
 24 25  1  6  0  0  0
 24 33  1  0  0  0  0
 26 27  1  6  0  0  0
 26 35  1  0  0  0  0
 28  2  1  6  0  0  0
 28 18  1  0  0  0  0
 29 30  1  0  0  0  0
 29 39  1  1  0  0  0
 31 22  1  0  0  0  0
 31 32  1  6  0  0  0
 31 41  1  0  0  0  0
 33 34  1  1  0  0  0
 33 43  1  0  0  0  0
 35 36  1  0  0  0  0
 35 45  1  1  0  0  0
 37 28  1  0  0  0  0
 37 38  1  6  0  0  0
 39 40  1  0  0  0  0
 41 42  1  0  0  0  0
 41 49  1  6  0  0  0
 43 44  1  0  0  0  0
 43 51  1  1  0  0  0
 45 46  1  0  0  0  0
 47 37  1  0  0  0  0
 47 48  1  1  0  0  0
 49 50  1  0  0  0  0
 51 52  1  0  0  0  0
M  END
>  <CHROM.1>
-140.83773714,84.84599101,166.09634632,162.46013126,68.14889493,28.31575073
76.01379323,123.20209852,69.88470302,80.34203394,-39.76044528,60.74967486
8.69066923,-43.04668664,14.21741892,2.38491323,1.00057024,2.45632285

>  <Name>
2fd0_lig

>  <RI>
2.60878e+07

>  <Rbt.Current_Directory>
/home/itssahil/PROJECTS/Mol_Feturizer/New_Systems/rnas/2fd0

>  <Rbt.Executable>
rbdock ($Id: //depot/dev/client3/rdock/2013.1/src/exe/rbdock.cxx#4 $)

>  <Rbt.Library>
libRbt.so (2013.1, Build901 2013/11/27)

>  <Rbt.Parameter_File>
/export/apps/rDock/src/rDock_2013.1_src/data/scripts/dock_solv.prm

>  <Rbt.Receptor>
prm/blind_docking_80.prm

>  <SCORE>
1.95067

>  <SCORE.INTER>
-6.60216

>  <SCORE.INTER.CONST>
1

>  <SCORE.INTER.POLAR>
-0.971077

>  <SCORE.INTER.ROT>
12

>  <SCORE.INTER.SOLV>
22.4971

>  <SCORE.INTER.VDW>
-20.2635

>  <SCORE.INTER.norm>
-0.126965

>  <SCORE.INTRA>
6.47053

>  <SCORE.INTRA.DIHEDRAL>
2.70643

>  <SCORE.INTRA.DIHEDRAL.0>
23.9727

>  <SCORE.INTRA.POLAR>
0

>  <SCORE.INTRA.POLAR.0>
0

>  <SCORE.INTRA.REPUL>
0

>  <SCORE.INTRA.REPUL.0>
0

>  <SCORE.INTRA.SOLV>
6.44211

>  <SCORE.INTRA.SOLV.lig_0>
-115.028

>  <SCORE.INTRA.VDW>
1.89626

>  <SCORE.INTRA.VDW.0>
-6.82393

>  <SCORE.INTRA.norm>
0.124433

>  <SCORE.RESTR>
2.0823

>  <SCORE.RESTR.CAVITY>
2.0823

>  <SCORE.RESTR.norm>
0.0400443

>  <SCORE.SYSTEM>
0

>  <SCORE.SYSTEM.CONST>
0

>  <SCORE.SYSTEM.DIHEDRAL>
0

>  <SCORE.SYSTEM.SOLV>
0

>  <SCORE.SYSTEM.norm>
0

>  <SCORE.heavy>
52

>  <SCORE.norm>
0.0375129

>  <RMSD>
14.433

$$$$
2fd0_lig
 OpenBabel11021811433D
libRbt.so/2013.1/901 2013/11/27
 52 56  0  0  0  0  0  0  0  0999 V2000
    7.0212  -47.3254   14.6382 C   0  0  2  0  0  0  0  0  0  0  0  0
    5.7174  -46.7395   14.7552 O   0  0  0  0  0  0  0  0  0  0  0  0
    3.6921  -43.9541   12.1034 C   0  0  2  0  0  0  0  0  0  0  0  0
    3.2459  -42.7035   11.4678 N   0  0  0  0  0  0  0  0  0  0  0  0
    8.0437  -44.4871   12.7667 C   0  0  1  0  0  0  0  0  0  0  0  0
   10.1943  -42.5616   14.2765 C   0  0  1  0  0  0  0  0  0  0  0  0
   10.8330  -37.4488   15.6122 C   0  0  1  0  0  0  0  0  0  0  0  0
    6.9074  -48.8634   14.9431 C   0  0  2  0  0  0  0  0  0  0  0  0
    5.9528  -49.5219   14.0624 N   0  0  0  0  0  0  0  0  0  0  0  0
    3.3394  -43.9411   13.6553 C   0  0  0  0  0  0  0  0  0  0  0  0
    9.3513  -45.0708   13.2696 C   0  0  2  0  0  0  0  0  0  0  0  0
    9.4191  -45.1006   14.7231 O   0  0  0  0  0  0  0  0  0  0  0  0
    9.7922  -41.2649   13.4301 C   0  0  2  0  0  0  0  0  0  0  0  0
   11.0087  -40.5845   12.9083 N   0  0  0  0  0  0  0  0  0  0  0  0
   11.7820  -37.2128   14.4158 C   0  0  1  0  0  0  0  0  0  0  0  0
   11.0183  -37.2828   13.1863 O   0  0  0  0  0  0  0  0  0  0  0  0
    6.5460  -49.0964   16.4569 C   0  0  0  0  0  0  0  0  0  0  0  0
    3.8162  -45.3083   14.3429 C   0  0  2  0  0  0  0  0  0  0  0  0
    3.5041  -45.3209   15.7797 N   0  0  0  0  0  0  0  0  0  0  0  0
   10.3958  -44.2176   12.5699 C   0  0  2  0  0  0  0  0  0  0  0  0
   11.0240  -43.3397   13.4641 O   0  0  0  0  0  0  0  0  0  0  0  0
    8.8341  -40.3584   14.3636 C   0  0  1  0  0  0  0  0  0  0  0  0
    7.7117  -41.1653   14.7639 O   0  0  0  0  0  0  0  0  0  0  0  0
   12.5996  -35.8928   14.4009 C   0  0  1  0  0  0  0  0  0  0  0  0
   11.8556  -34.9211   13.6549 O   0  0  0  0  0  0  0  0  0  0  0  0
    7.6142  -48.3723   17.3397 C   0  0  2  0  0  0  0  0  0  0  0  0
    7.3323  -48.5749   18.7209 O   0  0  0  0  0  0  0  0  0  0  0  0
    5.3456  -45.4811   14.1266 C   0  0  2  0  0  0  0  0  0  0  0  0
    9.6839  -43.3090   11.5394 C   0  0  2  0  0  0  0  0  0  0  0  0
    8.3507  -43.7983   11.5670 O   0  0  0  0  0  0  0  0  0  0  0  0
    9.5780  -39.8993   15.7238 C   0  0  2  0  0  0  0  0  0  0  0  0
   10.6779  -39.0846   15.2765 O   0  0  0  0  0  0  0  0  0  0  0  0
   12.9523  -35.2959   15.7829 C   0  0  2  0  0  0  0  0  0  0  0  0
   14.3148  -34.8293   15.6719 O   0  0  0  0  0  0  0  0  0  0  0  0
    7.6084  -46.8510   17.0152 C   0  0  2  0  0  0  0  0  0  0  0  0
    7.9210  -46.6840   15.5786 O   0  0  0  0  0  0  0  0  0  0  0  0
    5.7505  -45.4426   12.6214 C   0  0  2  0  0  0  0  0  0  0  0  0
    7.1913  -45.5676   12.5545 O   0  0  0  0  0  0  0  0  0  0  0  0
   10.2052  -43.4190   10.1109 C   0  0  0  0  0  0  0  0  0  0  0  0
   11.6389  -43.4262   10.1856 O   0  0  0  0  0  0  0  0  0  0  0  0
   10.1359  -41.1711   16.3343 C   0  0  1  0  0  0  0  0  0  0  0  0
   10.8694  -42.1778   15.6059 O   0  0  0  0  0  0  0  0  0  0  0  0
   12.7474  -36.3238   16.8924 C   0  0  2  0  0  0  0  0  0  0  0  0
   11.4468  -36.9748   16.8871 O   0  0  0  0  0  0  0  0  0  0  0  0
    8.6367  -46.1039   17.8036 C   0  0  0  0  0  0  0  0  0  0  0  0
    8.4816  -44.7368   17.5336 O   0  0  0  0  0  0  0  0  0  0  0  0
    5.2607  -44.1007   11.9642 C   0  0  1  0  0  0  0  0  0  0  0  0
    5.6133  -44.1229   10.5378 O   0  0  0  0  0  0  0  0  0  0  0  0
   10.9433  -40.9203   17.6570 C   0  0  0  0  0  0  0  0  0  0  0  0
   10.0843  -40.7162   18.8486 N   0  0  0  0  0  0  0  0  0  0  0  0
   13.0125  -35.9936   18.3596 C   0  0  0  0  0  0  0  0  0  0  0  0
   11.9641  -35.1201   18.8815 O   0  0  0  0  0  0  0  0  0  0  0  0
  1  2  1  1  0  0  0
  1  8  1  0  0  0  0
  1 36  1  0  0  0  0
  3  4  1  1  0  0  0
  3 10  1  0  0  0  0
  3 47  1  0  0  0  0
  5 11  1  0  0  0  0
  5 30  1  0  0  0  0
  5 38  1  6  0  0  0
  6 21  1  6  0  0  0
  6 42  1  0  0  0  0
  7 15  1  0  0  0  0
  7 44  1  0  0  0  0
  7 32  1  1  0  0  0
  8  9  1  6  0  0  0
  8 17  1  0  0  0  0
 11 12  1  1  0  0  0
 11 20  1  0  0  0  0
 13  6  1  0  0  0  0
 13 14  1  1  0  0  0
 15 16  1  6  0  0  0
 15 24  1  0  0  0  0
 17 26  1  0  0  0  0
 18 10  1  0  0  0  0
 18 19  1  1  0  0  0
 20 21  1  1  0  0  0
 20 29  1  0  0  0  0
 22 13  1  0  0  0  0
 22 23  1  1  0  0  0
 24 25  1  6  0  0  0
 24 33  1  0  0  0  0
 26 27  1  1  0  0  0
 26 35  1  0  0  0  0
 28  2  1  6  0  0  0
 28 18  1  0  0  0  0
 29 30  1  0  0  0  0
 29 39  1  6  0  0  0
 31 22  1  0  0  0  0
 31 32  1  6  0  0  0
 31 41  1  0  0  0  0
 33 34  1  6  0  0  0
 33 43  1  0  0  0  0
 35 36  1  0  0  0  0
 35 45  1  1  0  0  0
 37 28  1  0  0  0  0
 37 38  1  1  0  0  0
 39 40  1  0  0  0  0
 41 42  1  0  0  0  0
 41 49  1  1  0  0  0
 43 44  1  0  0  0  0
 43 51  1  1  0  0  0
 45 46  1  0  0  0  0
 47 37  1  0  0  0  0
 47 48  1  6  0  0  0
 49 50  1  0  0  0  0
 51 52  1  0  0  0  0
M  END
>  <CHROM.1>
-158.48527332,153.48326022,-84.92477502,-158.10995451,-50.38039646,172.65539796
-44.13422528,115.67661769,-175.00811646,-80.71321955,78.81938175,73.12211409
8.86711262,-42.50716962,14.64576388,-2.80242911,-1.00085887,-1.03894645

>  <Name>
2fd0_lig

>  <RI>
2.85265e+07

>  <Rbt.Current_Directory>
/home/itssahil/PROJECTS/Mol_Feturizer/New_Systems/rnas/2fd0

>  <Rbt.Executable>
rbdock ($Id: //depot/dev/client3/rdock/2013.1/src/exe/rbdock.cxx#4 $)

>  <Rbt.Library>
libRbt.so (2013.1, Build901 2013/11/27)

>  <Rbt.Parameter_File>
/export/apps/rDock/src/rDock_2013.1_src/data/scripts/dock_solv.prm

>  <Rbt.Receptor>
prm/blind_docking_60.prm

>  <SCORE>
-16.164

>  <SCORE.INTER>
-19.6433

>  <SCORE.INTER.CONST>
1

>  <SCORE.INTER.POLAR>
-2.6854

>  <SCORE.INTER.ROT>
12

>  <SCORE.INTER.SOLV>
22.0873

>  <SCORE.INTER.VDW>
-23.1067

>  <SCORE.INTER.norm>
-0.377756

>  <SCORE.INTRA>
3.34755

>  <SCORE.INTRA.DIHEDRAL>
-1.05124

>  <SCORE.INTRA.DIHEDRAL.0>
23.9727

>  <SCORE.INTRA.POLAR>
0

>  <SCORE.INTRA.POLAR.0>
0

>  <SCORE.INTRA.REPUL>
0

>  <SCORE.INTRA.REPUL.0>
0

>  <SCORE.INTRA.SOLV>
-1.38883

>  <SCORE.INTRA.SOLV.lig_0>
-115.028

>  <SCORE.INTRA.VDW>
4.56759

>  <SCORE.INTRA.VDW.0>
-6.82393

>  <SCORE.INTRA.norm>
0.064376

>  <SCORE.RESTR>
0.131777

>  <SCORE.RESTR.CAVITY>
0.131777

>  <SCORE.RESTR.norm>
0.00253418

>  <SCORE.SYSTEM>
0

>  <SCORE.SYSTEM.CONST>
0

>  <SCORE.SYSTEM.DIHEDRAL>
0

>  <SCORE.SYSTEM.SOLV>
0

>  <SCORE.SYSTEM.norm>
0

>  <SCORE.heavy>
52

>  <SCORE.norm>
-0.310846

>  <RMSD>
14.442

$$$$
2fd0_lig
 OpenBabel11021811433D
libRbt.so/2013.1/901 2013/11/27
 52 56  0  0  0  0  0  0  0  0999 V2000
   11.0013  -36.3532   16.6857 C   0  0  2  0  0  0  0  0  0  0  0  0
   12.0699  -36.5938   17.6114 O   0  0  0  0  0  0  0  0  0  0  0  0
   12.9942  -37.0860   21.8300 C   0  0  2  0  0  0  0  0  0  0  0  0
   12.8890  -37.0419   23.2976 N   0  0  0  0  0  0  0  0  0  0  0  0
   10.9707  -39.6880   18.0844 C   0  0  1  0  0  0  0  0  0  0  0  0
    9.4123  -42.5006   14.9623 C   0  0  1  0  0  0  0  0  0  0  0  0
    6.6773  -46.3220   14.3751 C   0  0  1  0  0  0  0  0  0  0  0  0
   11.5799  -36.4210   15.2255 C   0  0  2  0  0  0  0  0  0  0  0  0
   12.2313  -37.6958   14.9587 N   0  0  0  0  0  0  0  0  0  0  0  0
   12.8967  -35.6172   21.2250 C   0  0  0  0  0  0  0  0  0  0  0  0
    9.7245  -40.5541   18.1057 C   0  0  2  0  0  0  0  0  0  0  0  0
    9.8937  -41.7438   18.9268 O   0  0  0  0  0  0  0  0  0  0  0  0
    7.8856  -42.0808   14.7332 C   0  0  2  0  0  0  0  0  0  0  0  0
    7.0258  -42.6275   15.8182 N   0  0  0  0  0  0  0  0  0  0  0  0
    5.2275  -46.2489   14.9048 C   0  0  1  0  0  0  0  0  0  0  0  0
    4.3186  -46.1485   13.7807 O   0  0  0  0  0  0  0  0  0  0  0  0
   12.5553  -35.2135   14.9663 C   0  0  0  0  0  0  0  0  0  0  0  0
   13.0225  -35.6667   19.6278 C   0  0  2  0  0  0  0  0  0  0  0  0
   12.9328  -34.3207   19.0428 N   0  0  0  0  0  0  0  0  0  0  0  0
    9.4523  -40.7944   16.6303 C   0  0  2  0  0  0  0  0  0  0  0  0
    9.7533  -42.1127   16.2612 O   0  0  0  0  0  0  0  0  0  0  0  0
    7.4828  -42.5281   13.2337 C   0  0  1  0  0  0  0  0  0  0  0  0
    8.4033  -41.9025   12.3214 O   0  0  0  0  0  0  0  0  0  0  0  0
    4.7401  -47.4071   15.8170 C   0  0  1  0  0  0  0  0  0  0  0  0
    4.1004  -48.3841   14.9861 O   0  0  0  0  0  0  0  0  0  0  0  0
   11.7887  -33.8834   15.2625 C   0  0  2  0  0  0  0  0  0  0  0  0
   12.6338  -32.7627   15.0215 O   0  0  0  0  0  0  0  0  0  0  0  0
   11.8976  -36.5741   19.0561 C   0  0  2  0  0  0  0  0  0  0  0  0
   10.4116  -39.9094   15.7990 C   0  0  2  0  0  0  0  0  0  0  0  0
   11.0281  -39.1049   16.7942 O   0  0  0  0  0  0  0  0  0  0  0  0
    7.6363  -44.1233   13.0193 C   0  0  2  0  0  0  0  0  0  0  0  0
    6.6891  -44.7036   13.9356 O   0  0  0  0  0  0  0  0  0  0  0  0
    5.8266  -48.1088   16.6641 C   0  0  2  0  0  0  0  0  0  0  0  0
    5.2296  -48.3315   17.9604 O   0  0  0  0  0  0  0  0  0  0  0  0
   11.3124  -33.8794   16.7433 C   0  0  2  0  0  0  0  0  0  0  0  0
   10.4263  -35.0469   16.9465 O   0  0  0  0  0  0  0  0  0  0  0  0
   11.9144  -38.0106   19.6620 C   0  0  2  0  0  0  0  0  0  0  0  0
   10.8018  -38.7383   19.0886 O   0  0  0  0  0  0  0  0  0  0  0  0
    9.7324  -38.9885   14.7915 C   0  0  0  0  0  0  0  0  0  0  0  0
    9.3097  -39.8078   13.6909 O   0  0  0  0  0  0  0  0  0  0  0  0
    9.0369  -44.4666   13.4907 C   0  0  1  0  0  0  0  0  0  0  0  0
    9.6220  -44.0077   14.7273 O   0  0  0  0  0  0  0  0  0  0  0  0
    7.1045  -47.2757   16.7155 C   0  0  2  0  0  0  0  0  0  0  0  0
    7.6053  -46.8478   15.4188 O   0  0  0  0  0  0  0  0  0  0  0  0
   10.5384  -32.6450   17.0817 C   0  0  0  0  0  0  0  0  0  0  0  0
   11.4187  -31.5547   17.0355 O   0  0  0  0  0  0  0  0  0  0  0  0
   11.8047  -37.9375   21.2289 C   0  0  1  0  0  0  0  0  0  0  0  0
   11.8759  -39.3032   21.7666 O   0  0  0  0  0  0  0  0  0  0  0  0
    9.3615  -45.9999   13.4017 C   0  0  0  0  0  0  0  0  0  0  0  0
    8.9567  -46.6200   12.1168 N   0  0  0  0  0  0  0  0  0  0  0  0
    8.3431  -47.7412   17.4779 C   0  0  0  0  0  0  0  0  0  0  0  0
    8.9466  -46.6227   18.1985 O   0  0  0  0  0  0  0  0  0  0  0  0
  1  2  1  1  0  0  0
  1  8  1  0  0  0  0
  1 36  1  0  0  0  0
  3  4  1  1  0  0  0
  3 10  1  0  0  0  0
  3 47  1  0  0  0  0
  5 11  1  0  0  0  0
  5 30  1  0  0  0  0
  5 38  1  1  0  0  0
  6 21  1  1  0  0  0
  6 42  1  0  0  0  0
  7 15  1  0  0  0  0
  7 44  1  0  0  0  0
  7 32  1  1  0  0  0
  8  9  1  1  0  0  0
  8 17  1  0  0  0  0
 11 12  1  1  0  0  0
 11 20  1  0  0  0  0
 13  6  1  0  0  0  0
 13 14  1  1  0  0  0
 15 16  1  6  0  0  0
 15 24  1  0  0  0  0
 17 26  1  0  0  0  0
 18 10  1  0  0  0  0
 18 19  1  6  0  0  0
 20 21  1  6  0  0  0
 20 29  1  0  0  0  0
 22 13  1  0  0  0  0
 22 23  1  6  0  0  0
 24 25  1  6  0  0  0
 24 33  1  0  0  0  0
 26 27  1  1  0  0  0
 26 35  1  0  0  0  0
 28  2  1  6  0  0  0
 28 18  1  0  0  0  0
 29 30  1  0  0  0  0
 29 39  1  6  0  0  0
 31 22  1  0  0  0  0
 31 32  1  1  0  0  0
 31 41  1  0  0  0  0
 33 34  1  1  0  0  0
 33 43  1  0  0  0  0
 35 36  1  0  0  0  0
 35 45  1  6  0  0  0
 37 28  1  0  0  0  0
 37 38  1  6  0  0  0
 39 40  1  0  0  0  0
 41 42  1  0  0  0  0
 41 49  1  1  0  0  0
 43 44  1  0  0  0  0
 43 51  1  6  0  0  0
 45 46  1  0  0  0  0
 47 37  1  0  0  0  0
 47 48  1  1  0  0  0
 49 50  1  0  0  0  0
 51 52  1  0  0  0  0
M  END
>  <CHROM.1>
178.53005860,160.10054452,-50.08258556,-162.22995144,173.38944690,-130.61569999
-75.18416279,-165.47120580,-67.44529035,103.52934706,46.00607305,-138.54480423
9.60380974,-40.72072265,16.53741214,0.29139737,-1.12182392,-0.98639726

>  <Name>
2fd0_lig

>  <RI>
2.85265e+07

>  <Rbt.Current_Directory>
/home/itssahil/PROJECTS/Mol_Feturizer/New_Systems/rnas/2fd0

>  <Rbt.Executable>
rbdock ($Id: //depot/dev/client3/rdock/2013.1/src/exe/rbdock.cxx#4 $)

>  <Rbt.Library>
libRbt.so (2013.1, Build901 2013/11/27)

>  <Rbt.Parameter_File>
/export/apps/rDock/src/rDock_2013.1_src/data/scripts/dock_solv.prm

>  <Rbt.Receptor>
prm/blind_docking_60.prm

>  <SCORE>
-1.61077

>  <SCORE.INTER>
-9.89807

>  <SCORE.INTER.CONST>
1

>  <SCORE.INTER.POLAR>
0

>  <SCORE.INTER.ROT>
12

>  <SCORE.INTER.SOLV>
24.1941

>  <SCORE.INTER.VDW>
-26.2634

>  <SCORE.INTER.norm>
-0.190347

>  <SCORE.INTRA>
6.61119

>  <SCORE.INTRA.DIHEDRAL>
0.21237

>  <SCORE.INTRA.DIHEDRAL.0>
23.9727

>  <SCORE.INTRA.POLAR>
0

>  <SCORE.INTRA.POLAR.0>
0

>  <SCORE.INTRA.REPUL>
0

>  <SCORE.INTRA.REPUL.0>
0

>  <SCORE.INTRA.SOLV>
6.23299

>  <SCORE.INTRA.SOLV.lig_0>
-115.028

>  <SCORE.INTRA.VDW>
3.38851

>  <SCORE.INTRA.VDW.0>
-6.82393

>  <SCORE.INTRA.norm>
0.127138

>  <SCORE.RESTR>
1.6761

>  <SCORE.RESTR.CAVITY>
1.6761

>  <SCORE.RESTR.norm>
0.0322327

>  <SCORE.SYSTEM>
0

>  <SCORE.SYSTEM.CONST>
0

>  <SCORE.SYSTEM.DIHEDRAL>
0

>  <SCORE.SYSTEM.SOLV>
0

>  <SCORE.SYSTEM.norm>
0

>  <SCORE.heavy>
52

>  <SCORE.norm>
-0.0309764

>  <RMSD>
14.446

$$$$
2fd0_lig
 OpenBabel11021811433D
libRbt.so/2013.1/901 2013/11/27
 52 56  0  0  0  0  0  0  0  0999 V2000
    5.0922  -48.2095   14.0144 C   0  0  2  0  0  0  0  0  0  0  0  0
    6.4807  -48.5672   14.0471 O   0  0  0  0  0  0  0  0  0  0  0  0
    7.8441  -46.8356   17.7934 C   0  0  2  0  0  0  0  0  0  0  0  0
    8.6927  -46.4887   18.9451 N   0  0  0  0  0  0  0  0  0  0  0  0
    8.4118  -44.9259   13.6348 C   0  0  1  0  0  0  0  0  0  0  0  0
    9.6358  -41.8788   13.2797 C   0  0  1  0  0  0  0  0  0  0  0  0
   11.1728  -37.3438   14.6758 C   0  0  1  0  0  0  0  0  0  0  0  0
    4.2827  -49.4040   13.3903 C   0  0  2  0  0  0  0  0  0  0  0  0
    4.4905  -50.6434   14.1262 N   0  0  0  0  0  0  0  0  0  0  0  0
    7.6783  -48.4147   17.6855 C   0  0  0  0  0  0  0  0  0  0  0  0
    9.8192  -44.8115   13.0783 C   0  0  2  0  0  0  0  0  0  0  0  0
   10.7857  -44.4292   14.0971 O   0  0  0  0  0  0  0  0  0  0  0  0
    9.5221  -40.3518   12.8163 C   0  0  2  0  0  0  0  0  0  0  0  0
   10.8397  -39.8527   12.3365 N   0  0  0  0  0  0  0  0  0  0  0  0
   12.7070  -37.3739   14.8572 C   0  0  1  0  0  0  0  0  0  0  0  0
   13.3025  -38.0604   13.7285 O   0  0  0  0  0  0  0  0  0  0  0  0
    4.6435  -49.5739   11.8679 C   0  0  0  0  0  0  0  0  0  0  0  0
    6.7449  -48.7895   16.4374 C   0  0  2  0  0  0  0  0  0  0  0  0
    6.5776  -50.2450   16.3134 N   0  0  0  0  0  0  0  0  0  0  0  0
    9.6493  -43.8411   11.9216 C   0  0  2  0  0  0  0  0  0  0  0  0
   10.2036  -42.5881   12.2175 O   0  0  0  0  0  0  0  0  0  0  0  0
    8.8681  -39.5243   14.0404 C   0  0  1  0  0  0  0  0  0  0  0  0
    7.6040  -40.1322   14.3621 O   0  0  0  0  0  0  0  0  0  0  0  0
   13.4335  -36.0127   15.0316 C   0  0  1  0  0  0  0  0  0  0  0  0
   13.8661  -35.5742   13.7375 O   0  0  0  0  0  0  0  0  0  0  0  0
    4.3881  -48.2127   11.1421 C   0  0  2  0  0  0  0  0  0  0  0  0
    4.6861  -48.3299    9.7545 O   0  0  0  0  0  0  0  0  0  0  0  0
    7.3739  -48.2112   15.1391 C   0  0  2  0  0  0  0  0  0  0  0  0
    8.1387  -43.5792   11.7123 C   0  0  2  0  0  0  0  0  0  0  0  0
    7.5389  -44.5144   12.5972 O   0  0  0  0  0  0  0  0  0  0  0  0
    9.7730  -39.6110   15.3775 C   0  0  2  0  0  0  0  0  0  0  0  0
   11.0148  -38.9786   15.0147 O   0  0  0  0  0  0  0  0  0  0  0  0
   12.6101  -34.8821   15.6906 C   0  0  2  0  0  0  0  0  0  0  0  0
   13.5180  -34.2099   16.5908 O   0  0  0  0  0  0  0  0  0  0  0  0
    5.2773  -47.1094   11.7838 C   0  0  2  0  0  0  0  0  0  0  0  0
    4.9253  -47.0086   13.2175 O   0  0  0  0  0  0  0  0  0  0  0  0
    7.6106  -46.6721   15.2166 C   0  0  2  0  0  0  0  0  0  0  0  0
    8.2359  -46.2645   13.9761 O   0  0  0  0  0  0  0  0  0  0  0  0
    7.6236  -43.8539   10.3038 C   0  0  0  0  0  0  0  0  0  0  0  0
    6.3190  -43.2620   10.2100 O   0  0  0  0  0  0  0  0  0  0  0  0
   10.0311  -41.0890   15.6017 C   0  0  1  0  0  0  0  0  0  0  0  0
   10.4539  -42.0129   14.5771 O   0  0  0  0  0  0  0  0  0  0  0  0
   11.3676  -35.4392   16.3801 C   0  0  2  0  0  0  0  0  0  0  0  0
   10.5482  -36.3079   15.5499 O   0  0  0  0  0  0  0  0  0  0  0  0
    5.0530  -45.7706   11.1558 C   0  0  0  0  0  0  0  0  0  0  0  0
    3.6716  -45.5343   11.1195 O   0  0  0  0  0  0  0  0  0  0  0  0
    8.5157  -46.3263   16.4551 C   0  0  1  0  0  0  0  0  0  0  0  0
    8.6736  -44.8670   16.5256 O   0  0  0  0  0  0  0  0  0  0  0  0
   10.9440  -41.3762   16.8461 C   0  0  0  0  0  0  0  0  0  0  0  0
   10.2061  -41.4003   18.1322 N   0  0  0  0  0  0  0  0  0  0  0  0
   10.3706  -34.5363   17.1030 C   0  0  0  0  0  0  0  0  0  0  0  0
    9.5352  -33.8261   16.1374 O   0  0  0  0  0  0  0  0  0  0  0  0
  1  2  1  6  0  0  0
  1  8  1  0  0  0  0
  1 36  1  0  0  0  0
  3  4  1  1  0  0  0
  3 10  1  0  0  0  0
  3 47  1  0  0  0  0
  5 11  1  0  0  0  0
  5 30  1  0  0  0  0
  5 38  1  6  0  0  0
  6 21  1  6  0  0  0
  6 42  1  0  0  0  0
  7 15  1  0  0  0  0
  7 44  1  0  0  0  0
  7 32  1  1  0  0  0
  8  9  1  1  0  0  0
  8 17  1  0  0  0  0
 11 12  1  1  0  0  0
 11 20  1  0  0  0  0
 13  6  1  0  0  0  0
 13 14  1  1  0  0  0
 15 16  1  6  0  0  0
 15 24  1  0  0  0  0
 17 26  1  0  0  0  0
 18 10  1  0  0  0  0
 18 19  1  6  0  0  0
 20 21  1  1  0  0  0
 20 29  1  0  0  0  0
 22 13  1  0  0  0  0
 22 23  1  1  0  0  0
 24 25  1  6  0  0  0
 24 33  1  0  0  0  0
 26 27  1  6  0  0  0
 26 35  1  0  0  0  0
 28  2  1  6  0  0  0
 28 18  1  0  0  0  0
 29 30  1  0  0  0  0
 29 39  1  6  0  0  0
 31 22  1  0  0  0  0
 31 32  1  6  0  0  0
 31 41  1  0  0  0  0
 33 34  1  1  0  0  0
 33 43  1  0  0  0  0
 35 36  1  0  0  0  0
 35 45  1  6  0  0  0
 37 28  1  0  0  0  0
 37 38  1  6  0  0  0
 39 40  1  0  0  0  0
 41 42  1  0  0  0  0
 41 49  1  1  0  0  0
 43 44  1  0  0  0  0
 43 51  1  6  0  0  0
 45 46  1  0  0  0  0
 47 37  1  0  0  0  0
 47 48  1  1  0  0  0
 49 50  1  0  0  0  0
 51 52  1  0  0  0  0
M  END
>  <CHROM.1>
-142.13683122,136.29740517,-137.77922478,162.65174923,-63.12099913,56.77238533
-166.36874284,67.48149200,49.63292439,170.63342880,83.26088603,75.82597734
8.67863202,-42.96572525,14.23749227,-2.61986644,-1.02446263,-0.82303766

>  <Name>
2fd0_lig

>  <RI>
2.60878e+07

>  <Rbt.Current_Directory>
/home/itssahil/PROJECTS/Mol_Feturizer/New_Systems/rnas/2fd0

>  <Rbt.Executable>
rbdock ($Id: //depot/dev/client3/rdock/2013.1/src/exe/rbdock.cxx#4 $)

>  <Rbt.Library>
libRbt.so (2013.1, Build901 2013/11/27)

>  <Rbt.Parameter_File>
/export/apps/rDock/src/rDock_2013.1_src/data/scripts/dock_solv.prm

>  <Rbt.Receptor>
prm/blind_docking_80.prm

>  <SCORE>
-11.8549

>  <SCORE.INTER>
-15.0235

>  <SCORE.INTER.CONST>
1

>  <SCORE.INTER.POLAR>
-1.35335

>  <SCORE.INTER.ROT>
12

>  <SCORE.INTER.SOLV>
22.5474

>  <SCORE.INTER.VDW>
-24.6203

>  <SCORE.INTER.norm>
-0.288914

>  <SCORE.INTRA>
1.9895

>  <SCORE.INTRA.DIHEDRAL>
-0.652244

>  <SCORE.INTRA.DIHEDRAL.0>
23.9727

>  <SCORE.INTRA.POLAR>
0

>  <SCORE.INTRA.POLAR.0>
0

>  <SCORE.INTRA.REPUL>
0

>  <SCORE.INTRA.REPUL.0>
0

>  <SCORE.INTRA.SOLV>
0.464827

>  <SCORE.INTRA.SOLV.lig_0>
-115.028

>  <SCORE.INTRA.VDW>
2.08321

>  <SCORE.INTRA.VDW.0>
-6.82393

>  <SCORE.INTRA.norm>
0.0382596

>  <SCORE.RESTR>
1.17909

>  <SCORE.RESTR.CAVITY>
1.17909

>  <SCORE.RESTR.norm>
0.0226749

>  <SCORE.SYSTEM>
0

>  <SCORE.SYSTEM.CONST>
0

>  <SCORE.SYSTEM.DIHEDRAL>
0

>  <SCORE.SYSTEM.SOLV>
0

>  <SCORE.SYSTEM.norm>
0

>  <SCORE.heavy>
52

>  <SCORE.norm>
-0.227979

>  <RMSD>
14.495

$$$$
2fd0_lig
 OpenBabel11021811433D
libRbt.so/2013.1/901 2013/11/27
 52 56  0  0  0  0  0  0  0  0999 V2000
   13.1449  -34.8169   14.6523 C   0  0  2  0  0  0  0  0  0  0  0  0
   12.5869  -35.9852   15.2692 O   0  0  0  0  0  0  0  0  0  0  0  0
    9.7343  -38.2289   12.8774 C   0  0  2  0  0  0  0  0  0  0  0  0
    9.1237  -39.2960   12.0678 N   0  0  0  0  0  0  0  0  0  0  0  0
   10.4400  -39.2011   17.1228 C   0  0  1  0  0  0  0  0  0  0  0  0
    9.6632  -42.6265   16.5584 C   0  0  1  0  0  0  0  0  0  0  0  0
    7.6557  -46.7011   15.8370 C   0  0  1  0  0  0  0  0  0  0  0  0
   14.4727  -34.4399   15.4050 C   0  0  2  0  0  0  0  0  0  0  0  0
   15.4260  -35.5408   15.4077 N   0  0  0  0  0  0  0  0  0  0  0  0
   11.0863  -37.7291   12.2028 C   0  0  0  0  0  0  0  0  0  0  0  0
   11.1265  -40.4674   16.6445 C   0  0  2  0  0  0  0  0  0  0  0  0
   10.4681  -41.0468   15.4831 O   0  0  0  0  0  0  0  0  0  0  0  0
    8.3426  -43.4934   16.8115 C   0  0  2  0  0  0  0  0  0  0  0  0
    8.6601  -44.7052   17.6153 N   0  0  0  0  0  0  0  0  0  0  0  0
    8.3916  -48.0500   15.6731 C   0  0  1  0  0  0  0  0  0  0  0  0
    9.5331  -48.0764   16.5654 O   0  0  0  0  0  0  0  0  0  0  0  0
   14.1542  -33.9538   16.8674 C   0  0  0  0  0  0  0  0  0  0  0  0
   11.7435  -36.5596   13.0803 C   0  0  2  0  0  0  0  0  0  0  0  0
   12.9973  -36.0811   12.4794 N   0  0  0  0  0  0  0  0  0  0  0  0
   11.1566  -41.3306   17.8946 C   0  0  2  0  0  0  0  0  0  0  0  0
   10.2445  -42.3914   17.8076 O   0  0  0  0  0  0  0  0  0  0  0  0
    7.6654  -43.7714   15.3710 C   0  0  1  0  0  0  0  0  0  0  0  0
    7.4176  -42.5000   14.7441 O   0  0  0  0  0  0  0  0  0  0  0  0
    7.5689  -49.3464   15.9043 C   0  0  1  0  0  0  0  0  0  0  0  0
    7.7302  -49.7331   17.2749 O   0  0  0  0  0  0  0  0  0  0  0  0
   13.1362  -32.7698   16.7866 C   0  0  2  0  0  0  0  0  0  0  0  0
   12.8352  -32.2878   18.0924 O   0  0  0  0  0  0  0  0  0  0  0  0
   12.0073  -37.0882   14.5178 C   0  0  2  0  0  0  0  0  0  0  0  0
   10.6788  -40.4799   19.0956 C   0  0  2  0  0  0  0  0  0  0  0  0
   10.5821  -39.1795   18.5324 O   0  0  0  0  0  0  0  0  0  0  0  0
    8.6573  -44.5838   14.3859 C   0  0  2  0  0  0  0  0  0  0  0  0
    8.8620  -45.8489   15.0427 O   0  0  0  0  0  0  0  0  0  0  0  0
    6.0583  -49.2587   15.5864 C   0  0  2  0  0  0  0  0  0  0  0  0
    5.7241  -50.4998   14.9271 O   0  0  0  0  0  0  0  0  0  0  0  0
   11.8339  -33.2539   16.0871 C   0  0  2  0  0  0  0  0  0  0  0  0
   12.1874  -33.7296   14.7312 O   0  0  0  0  0  0  0  0  0  0  0  0
   10.7212  -37.6438   15.2022 C   0  0  2  0  0  0  0  0  0  0  0  0
   11.1027  -38.1427   16.5066 O   0  0  0  0  0  0  0  0  0  0  0  0
   11.6461  -40.4216   20.2726 C   0  0  0  0  0  0  0  0  0  0  0  0
   11.4501  -41.6203   21.0381 O   0  0  0  0  0  0  0  0  0  0  0  0
    9.9655  -43.8158   14.3983 C   0  0  1  0  0  0  0  0  0  0  0  0
   10.6252  -43.3379   15.5894 O   0  0  0  0  0  0  0  0  0  0  0  0
    5.7448  -48.0202   14.7513 C   0  0  2  0  0  0  0  0  0  0  0  0
    6.2698  -46.7746   15.2883 O   0  0  0  0  0  0  0  0  0  0  0  0
   10.8294  -32.1548   15.9459 C   0  0  0  0  0  0  0  0  0  0  0  0
   11.2684  -31.2936   14.9303 O   0  0  0  0  0  0  0  0  0  0  0  0
   10.0859  -38.7785   14.3181 C   0  0  1  0  0  0  0  0  0  0  0  0
    8.8511  -39.2405   14.9672 O   0  0  0  0  0  0  0  0  0  0  0  0
   11.0843  -44.4847   13.5235 C   0  0  0  0  0  0  0  0  0  0  0  0
   10.7756  -44.5000   12.0731 N   0  0  0  0  0  0  0  0  0  0  0  0
    4.3235  -47.6843   14.3050 C   0  0  0  0  0  0  0  0  0  0  0  0
    3.6851  -48.8586   13.7153 O   0  0  0  0  0  0  0  0  0  0  0  0
  1  2  1  1  0  0  0
  1  8  1  0  0  0  0
  1 36  1  0  0  0  0
  3  4  1  6  0  0  0
  3 10  1  0  0  0  0
  3 47  1  0  0  0  0
  5 11  1  0  0  0  0
  5 30  1  0  0  0  0
  5 38  1  6  0  0  0
  6 21  1  1  0  0  0
  6 42  1  0  0  0  0
  7 15  1  0  0  0  0
  7 44  1  0  0  0  0
  7 32  1  6  0  0  0
  8  9  1  1  0  0  0
  8 17  1  0  0  0  0
 11 12  1  6  0  0  0
 11 20  1  0  0  0  0
 13  6  1  0  0  0  0
 13 14  1  6  0  0  0
 15 16  1  1  0  0  0
 15 24  1  0  0  0  0
 17 26  1  0  0  0  0
 18 10  1  0  0  0  0
 18 19  1  6  0  0  0
 20 21  1  6  0  0  0
 20 29  1  0  0  0  0
 22 13  1  0  0  0  0
 22 23  1  6  0  0  0
 24 25  1  1  0  0  0
 24 33  1  0  0  0  0
 26 27  1  1  0  0  0
 26 35  1  0  0  0  0
 28  2  1  1  0  0  0
 28 18  1  0  0  0  0
 29 30  1  0  0  0  0
 29 39  1  1  0  0  0
 31 22  1  0  0  0  0
 31 32  1  1  0  0  0
 31 41  1  0  0  0  0
 33 34  1  6  0  0  0
 33 43  1  0  0  0  0
 35 36  1  0  0  0  0
 35 45  1  6  0  0  0
 37 28  1  0  0  0  0
 37 38  1  1  0  0  0
 39 40  1  0  0  0  0
 41 42  1  0  0  0  0
 41 49  1  1  0  0  0
 43 44  1  0  0  0  0
 43 51  1  1  0  0  0
 45 46  1  0  0  0  0
 47 37  1  0  0  0  0
 47 48  1  1  0  0  0
 49 50  1  0  0  0  0
 51 52  1  0  0  0  0
M  END
>  <CHROM.1>
-138.23453278,88.11067873,-160.74149810,156.33690883,11.11601585,-16.41412135
-81.54163439,39.92427710,73.92661315,-149.84739663,65.36510653,-48.60564388
10.00584481,-41.02783326,15.64525722,0.62820800,-1.08680246,-0.86888771

>  <Name>
2fd0_lig

>  <RI>
0

>  <Rbt.Current_Directory>
/home/itssahil/PROJECTS/Mol_Feturizer/New_Systems/rnas/2fd0

>  <Rbt.Executable>
rbdock ($Id: //depot/dev/client3/rdock/2013.1/src/exe/rbdock.cxx#4 $)

>  <Rbt.Library>
libRbt.so (2013.1, Build901 2013/11/27)

>  <Rbt.Parameter_File>
/export/apps/rDock/src/rDock_2013.1_src/data/scripts/dock_solv.prm

>  <Rbt.Receptor>
prm/blind_docking_100.prm

>  <SCORE>
21.0905

>  <SCORE.INTER>
-16.2435

>  <SCORE.INTER.CONST>
1

>  <SCORE.INTER.POLAR>
-1.49535

>  <SCORE.INTER.ROT>
12

>  <SCORE.INTER.SOLV>
30.5786

>  <SCORE.INTER.VDW>
-27.6373

>  <SCORE.INTER.norm>
-0.312375

>  <SCORE.INTRA>
34.1167

>  <SCORE.INTRA.DIHEDRAL>
11.1294

>  <SCORE.INTRA.DIHEDRAL.0>
23.9727

>  <SCORE.INTRA.POLAR>
0

>  <SCORE.INTRA.POLAR.0>
0

>  <SCORE.INTRA.REPUL>
0.110997

>  <SCORE.INTRA.REPUL.0>
0

>  <SCORE.INTRA.SOLV>
1.28167

>  <SCORE.INTRA.SOLV.lig_0>
-115.028

>  <SCORE.INTRA.VDW>
27.3562

>  <SCORE.INTRA.VDW.0>
-6.82393

>  <SCORE.INTRA.norm>
0.65609

>  <SCORE.RESTR>
3.21732

>  <SCORE.RESTR.CAVITY>
3.21732

>  <SCORE.RESTR.norm>
0.0618716

>  <SCORE.SYSTEM>
0

>  <SCORE.SYSTEM.CONST>
0

>  <SCORE.SYSTEM.DIHEDRAL>
0

>  <SCORE.SYSTEM.SOLV>
0

>  <SCORE.SYSTEM.norm>
0

>  <SCORE.heavy>
52

>  <SCORE.norm>
0.405587

>  <RMSD>
14.514

$$$$
2fd0_lig
 OpenBabel11021811433D
libRbt.so/2013.1/901 2013/11/27
 52 56  0  0  0  0  0  0  0  0999 V2000
   13.3642  -35.0593   17.9357 C   0  0  2  0  0  0  0  0  0  0  0  0
   13.3215  -36.3244   17.2614 O   0  0  0  0  0  0  0  0  0  0  0  0
   13.5337  -35.2698   13.0500 C   0  0  2  0  0  0  0  0  0  0  0  0
   13.7595  -35.3558   11.5979 N   0  0  0  0  0  0  0  0  0  0  0  0
   11.3027  -38.5693   15.0336 C   0  0  1  0  0  0  0  0  0  0  0  0
    9.6396  -42.6372   14.3545 C   0  0  1  0  0  0  0  0  0  0  0  0
    7.4827  -46.6703   16.2056 C   0  0  1  0  0  0  0  0  0  0  0  0
   12.5116  -35.1655   19.2523 C   0  0  2  0  0  0  0  0  0  0  0  0
   12.9802  -36.2397   20.1168 N   0  0  0  0  0  0  0  0  0  0  0  0
   14.8801  -35.5855   13.8379 C   0  0  0  0  0  0  0  0  0  0  0  0
   10.3813  -39.3630   15.9417 C   0  0  2  0  0  0  0  0  0  0  0  0
   11.0912  -39.9560   17.0653 O   0  0  0  0  0  0  0  0  0  0  0  0
    8.2788  -43.1056   15.0533 C   0  0  2  0  0  0  0  0  0  0  0  0
    8.5247  -43.4871   16.4708 N   0  0  0  0  0  0  0  0  0  0  0  0
    8.4287  -47.3054   17.2494 C   0  0  1  0  0  0  0  0  0  0  0  0
    9.0020  -46.2557   18.0675 O   0  0  0  0  0  0  0  0  0  0  0  0
   10.9860  -35.3335   18.9048 C   0  0  0  0  0  0  0  0  0  0  0  0
   14.6345  -35.4804   15.4184 C   0  0  2  0  0  0  0  0  0  0  0  0
   15.8640  -35.7706   16.1706 N   0  0  0  0  0  0  0  0  0  0  0  0
    9.7157  -40.3364   14.9837 C   0  0  2  0  0  0  0  0  0  0  0  0
   10.1941  -41.6416   15.1639 O   0  0  0  0  0  0  0  0  0  0  0  0
    7.6323  -44.2588   14.1243 C   0  0  1  0  0  0  0  0  0  0  0  0
    7.4533  -43.7164   12.8034 O   0  0  0  0  0  0  0  0  0  0  0  0
    7.8308  -48.3817   18.1953 C   0  0  1  0  0  0  0  0  0  0  0  0
    7.3925  -47.7242   19.3911 O   0  0  0  0  0  0  0  0  0  0  0  0
   10.5522  -34.1452   17.9859 C   0  0  2  0  0  0  0  0  0  0  0  0
    9.1692  -34.2507   17.6628 O   0  0  0  0  0  0  0  0  0  0  0  0
   13.5110  -36.4738   15.8265 C   0  0  2  0  0  0  0  0  0  0  0  0
   10.1090  -39.9545   13.5366 C   0  0  2  0  0  0  0  0  0  0  0  0
   10.7969  -38.7253   13.7191 O   0  0  0  0  0  0  0  0  0  0  0  0
    8.6186  -45.5306   13.9689 C   0  0  2  0  0  0  0  0  0  0  0  0
    8.7538  -46.0480   15.3060 O   0  0  0  0  0  0  0  0  0  0  0  0
    6.6575  -49.2118   17.6252 C   0  0  2  0  0  0  0  0  0  0  0  0
    6.8916  -50.5698   18.0584 O   0  0  0  0  0  0  0  0  0  0  0  0
   11.4033  -34.1604   16.6840 C   0  0  2  0  0  0  0  0  0  0  0  0
   12.8281  -34.0323   17.0622 O   0  0  0  0  0  0  0  0  0  0  0  0
   12.1853  -36.2425   15.0391 C   0  0  2  0  0  0  0  0  0  0  0  0
   11.2397  -37.2494   15.4728 O   0  0  0  0  0  0  0  0  0  0  0  0
    8.9382  -39.7125   12.5906 C   0  0  0  0  0  0  0  0  0  0  0  0
    9.4142  -39.9627   11.2594 O   0  0  0  0  0  0  0  0  0  0  0  0
    9.9555  -44.9607   13.5340 C   0  0  1  0  0  0  0  0  0  0  0  0
   10.5996  -43.8222   14.1432 O   0  0  0  0  0  0  0  0  0  0  0  0
    6.5657  -49.0619   16.1091 C   0  0  2  0  0  0  0  0  0  0  0  0
    6.5536  -47.6878   15.6325 O   0  0  0  0  0  0  0  0  0  0  0  0
   11.0606  -33.0233   15.7747 C   0  0  0  0  0  0  0  0  0  0  0  0
   11.7111  -33.2351   14.5509 O   0  0  0  0  0  0  0  0  0  0  0  0
   12.4522  -36.3356   13.4923 C   0  0  1  0  0  0  0  0  0  0  0  0
   11.1944  -36.0616   12.7836 O   0  0  0  0  0  0  0  0  0  0  0  0
   11.0712  -46.0533   13.3727 C   0  0  0  0  0  0  0  0  0  0  0  0
   12.4040  -45.4971   13.0358 N   0  0  0  0  0  0  0  0  0  0  0  0
    5.4875  -49.7683   15.2904 C   0  0  0  0  0  0  0  0  0  0  0  0
    4.1612  -49.2979   15.6831 O   0  0  0  0  0  0  0  0  0  0  0  0
  1  2  1  6  0  0  0
  1  8  1  0  0  0  0
  1 36  1  0  0  0  0
  3  4  1  6  0  0  0
  3 10  1  0  0  0  0
  3 47  1  0  0  0  0
  5 11  1  0  0  0  0
  5 30  1  0  0  0  0
  5 38  1  1  0  0  0
  6 21  1  1  0  0  0
  6 42  1  0  0  0  0
  7 15  1  0  0  0  0
  7 44  1  0  0  0  0
  7 32  1  6  0  0  0
  8  9  1  6  0  0  0
  8 17  1  0  0  0  0
 11 12  1  1  0  0  0
 11 20  1  0  0  0  0
 13  6  1  0  0  0  0
 13 14  1  1  0  0  0
 15 16  1  1  0  0  0
 15 24  1  0  0  0  0
 17 26  1  0  0  0  0
 18 10  1  0  0  0  0
 18 19  1  1  0  0  0
 20 21  1  1  0  0  0
 20 29  1  0  0  0  0
 22 13  1  0  0  0  0
 22 23  1  6  0  0  0
 24 25  1  1  0  0  0
 24 33  1  0  0  0  0
 26 27  1  6  0  0  0
 26 35  1  0  0  0  0
 28  2  1  1  0  0  0
 28 18  1  0  0  0  0
 29 30  1  0  0  0  0
 29 39  1  6  0  0  0
 31 22  1  0  0  0  0
 31 32  1  1  0  0  0
 31 41  1  0  0  0  0
 33 34  1  6  0  0  0
 33 43  1  0  0  0  0
 35 36  1  0  0  0  0
 35 45  1  6  0  0  0
 37 28  1  0  0  0  0
 37 38  1  1  0  0  0
 39 40  1  0  0  0  0
 41 42  1  0  0  0  0
 41 49  1  1  0  0  0
 43 44  1  0  0  0  0
 43 51  1  1  0  0  0
 45 46  1  0  0  0  0
 47 37  1  0  0  0  0
 47 48  1  6  0  0  0
 49 50  1  0  0  0  0
 51 52  1  0  0  0  0
M  END
>  <CHROM.1>
154.50677594,166.86232599,-83.64212692,166.33723583,178.89915877,39.16326211
-154.89166139,63.12543539,-170.70063014,-77.03035336,-176.15082025,62.68139076
10.24225663,-40.80455443,15.55386957,0.25963840,1.16887796,1.26811700

>  <Name>
2fd0_lig

>  <RI>
0

>  <Rbt.Current_Directory>
/home/itssahil/PROJECTS/Mol_Feturizer/New_Systems/rnas/2fd0

>  <Rbt.Executable>
rbdock ($Id: //depot/dev/client3/rdock/2013.1/src/exe/rbdock.cxx#4 $)

>  <Rbt.Library>
libRbt.so (2013.1, Build901 2013/11/27)

>  <Rbt.Parameter_File>
/export/apps/rDock/src/rDock_2013.1_src/data/scripts/dock_solv.prm

>  <Rbt.Receptor>
prm/blind_docking_100.prm

>  <SCORE>
-15.9366

>  <SCORE.INTER>
-14.4592

>  <SCORE.INTER.CONST>
1

>  <SCORE.INTER.POLAR>
-0.956821

>  <SCORE.INTER.ROT>
12

>  <SCORE.INTER.SOLV>
25.7401

>  <SCORE.INTER.VDW>
-26.6301

>  <SCORE.INTER.norm>
-0.278062

>  <SCORE.INTRA>
-3.06312

>  <SCORE.INTRA.DIHEDRAL>
-9.87107

>  <SCORE.INTRA.DIHEDRAL.0>
23.9727

>  <SCORE.INTRA.POLAR>
0

>  <SCORE.INTRA.POLAR.0>
0

>  <SCORE.INTRA.REPUL>
0

>  <SCORE.INTRA.REPUL.0>
0

>  <SCORE.INTRA.SOLV>
-1.74237

>  <SCORE.INTRA.SOLV.lig_0>
-115.028

>  <SCORE.INTRA.VDW>
2.7436

>  <SCORE.INTRA.VDW.0>
-6.82393

>  <SCORE.INTRA.norm>
-0.0589061

>  <SCORE.RESTR>
1.58581

>  <SCORE.RESTR.CAVITY>
1.58581

>  <SCORE.RESTR.norm>
0.0304963

>  <SCORE.SYSTEM>
0

>  <SCORE.SYSTEM.CONST>
0

>  <SCORE.SYSTEM.DIHEDRAL>
0

>  <SCORE.SYSTEM.SOLV>
0

>  <SCORE.SYSTEM.norm>
0

>  <SCORE.heavy>
52

>  <SCORE.norm>
-0.306472

>  <RMSD>
14.521

$$$$
2fd0_lig
 OpenBabel11021811433D
libRbt.so/2013.1/901 2013/11/27
 52 56  0  0  0  0  0  0  0  0999 V2000
    5.1757  -45.8965   14.5627 C   0  0  2  0  0  0  0  0  0  0  0  0
    3.8064  -45.5348   14.3365 O   0  0  0  0  0  0  0  0  0  0  0  0
    3.2759  -43.1039   10.7725 C   0  0  2  0  0  0  0  0  0  0  0  0
    2.8473  -42.0231    9.8697 N   0  0  0  0  0  0  0  0  0  0  0  0
    6.7672  -42.9865   13.9987 C   0  0  1  0  0  0  0  0  0  0  0  0
    9.9328  -42.1592   14.5985 C   0  0  1  0  0  0  0  0  0  0  0  0
   11.8580  -37.4768   15.7356 C   0  0  1  0  0  0  0  0  0  0  0  0
    5.6688  -46.7694   13.3517 C   0  0  2  0  0  0  0  0  0  0  0  0
    5.5101  -46.0743   12.0819 N   0  0  0  0  0  0  0  0  0  0  0  0
    2.0090  -43.8202   11.4168 C   0  0  0  0  0  0  0  0  0  0  0  0
    7.2432  -43.1539   15.4302 C   0  0  2  0  0  0  0  0  0  0  0  0
    7.3739  -41.8793   16.1205 O   0  0  0  0  0  0  0  0  0  0  0  0
   11.3815  -41.5840   14.9589 C   0  0  2  0  0  0  0  0  0  0  0  0
   11.4466  -41.1964   16.3945 N   0  0  0  0  0  0  0  0  0  0  0  0
   10.8943  -36.3446   15.3146 C   0  0  1  0  0  0  0  0  0  0  0  0
    9.8239  -36.2498   16.2867 O   0  0  0  0  0  0  0  0  0  0  0  0
    4.9297  -48.1586   13.3410 C   0  0  0  0  0  0  0  0  0  0  0  0
    2.4779  -45.0038   12.3908 C   0  0  2  0  0  0  0  0  0  0  0  0
    1.3248  -45.6811   13.0019 N   0  0  0  0  0  0  0  0  0  0  0  0
    8.5205  -43.9612   15.2715 C   0  0  2  0  0  0  0  0  0  0  0  0
    9.6566  -43.1773   15.5155 O   0  0  0  0  0  0  0  0  0  0  0  0
   11.7076  -40.4043   13.9040 C   0  0  1  0  0  0  0  0  0  0  0  0
   11.6119  -40.9553   12.5781 O   0  0  0  0  0  0  0  0  0  0  0  0
   11.4974  -34.9269   15.1216 C   0  0  1  0  0  0  0  0  0  0  0  0
   11.3599  -34.2165   16.3589 O   0  0  0  0  0  0  0  0  0  0  0  0
    5.1502  -48.8492   14.7264 C   0  0  2  0  0  0  0  0  0  0  0  0
    4.5103  -50.1213   14.7511 O   0  0  0  0  0  0  0  0  0  0  0  0
    3.4014  -44.4186   13.4955 C   0  0  2  0  0  0  0  0  0  0  0  0
    8.6436  -44.4087   13.7953 C   0  0  2  0  0  0  0  0  0  0  0  0
    7.3940  -44.0123   13.2485 O   0  0  0  0  0  0  0  0  0  0  0  0
   10.6227  -39.2081   13.9838 C   0  0  2  0  0  0  0  0  0  0  0  0
   10.7664  -38.6786   15.3152 O   0  0  0  0  0  0  0  0  0  0  0  0
   12.9776  -34.8722   14.6782 C   0  0  2  0  0  0  0  0  0  0  0  0
   13.0531  -33.8169   13.6948 O   0  0  0  0  0  0  0  0  0  0  0  0
    4.5745  -47.9444   15.8531 C   0  0  2  0  0  0  0  0  0  0  0  0
    5.2757  -46.6423   15.8033 O   0  0  0  0  0  0  0  0  0  0  0  0
    4.6299  -43.6552   12.9135 C   0  0  2  0  0  0  0  0  0  0  0  0
    5.3819  -43.1238   14.0307 O   0  0  0  0  0  0  0  0  0  0  0  0
    8.8036  -45.9103   13.5857 C   0  0  0  0  0  0  0  0  0  0  0  0
    8.9878  -46.1214   12.1776 O   0  0  0  0  0  0  0  0  0  0  0  0
    9.2661  -39.8782   13.8743 C   0  0  1  0  0  0  0  0  0  0  0  0
    8.8666  -41.0486   14.6177 O   0  0  0  0  0  0  0  0  0  0  0  0
   13.4437  -36.2283   14.1555 C   0  0  2  0  0  0  0  0  0  0  0  0
   13.1735  -37.3487   15.0426 O   0  0  0  0  0  0  0  0  0  0  0  0
    4.7864  -48.5338   17.2112 C   0  0  0  0  0  0  0  0  0  0  0  0
    6.1672  -48.5964   17.4464 O   0  0  0  0  0  0  0  0  0  0  0  0
    4.1475  -42.5094   11.9507 C   0  0  1  0  0  0  0  0  0  0  0  0
    5.3301  -41.8475   11.3825 O   0  0  0  0  0  0  0  0  0  0  0  0
    8.0674  -38.8699   13.9786 C   0  0  0  0  0  0  0  0  0  0  0  0
    8.2625  -37.6303   13.1883 N   0  0  0  0  0  0  0  0  0  0  0  0
   14.8701  -36.4575   13.6608 C   0  0  0  0  0  0  0  0  0  0  0  0
   15.8226  -36.2733   14.7532 O   0  0  0  0  0  0  0  0  0  0  0  0
  1  2  1  6  0  0  0
  1  8  1  0  0  0  0
  1 36  1  0  0  0  0
  3  4  1  6  0  0  0
  3 10  1  0  0  0  0
  3 47  1  0  0  0  0
  5 11  1  0  0  0  0
  5 30  1  0  0  0  0
  5 38  1  1  0  0  0
  6 21  1  1  0  0  0
  6 42  1  0  0  0  0
  7 15  1  0  0  0  0
  7 44  1  0  0  0  0
  7 32  1  6  0  0  0
  8  9  1  6  0  0  0
  8 17  1  0  0  0  0
 11 12  1  6  0  0  0
 11 20  1  0  0  0  0
 13  6  1  0  0  0  0
 13 14  1  1  0  0  0
 15 16  1  1  0  0  0
 15 24  1  0  0  0  0
 17 26  1  0  0  0  0
 18 10  1  0  0  0  0
 18 19  1  1  0  0  0
 20 21  1  6  0  0  0
 20 29  1  0  0  0  0
 22 13  1  0  0  0  0
 22 23  1  6  0  0  0
 24 25  1  1  0  0  0
 24 33  1  0  0  0  0
 26 27  1  6  0  0  0
 26 35  1  0  0  0  0
 28  2  1  1  0  0  0
 28 18  1  0  0  0  0
 29 30  1  0  0  0  0
 29 39  1  1  0  0  0
 31 22  1  0  0  0  0
 31 32  1  1  0  0  0
 31 41  1  0  0  0  0
 33 34  1  6  0  0  0
 33 43  1  0  0  0  0
 35 36  1  0  0  0  0
 35 45  1  1  0  0  0
 37 28  1  0  0  0  0
 37 38  1  1  0  0  0
 39 40  1  0  0  0  0
 41 42  1  0  0  0  0
 41 49  1  1  0  0  0
 43 44  1  0  0  0  0
 43 51  1  1  0  0  0
 45 46  1  0  0  0  0
 47 37  1  0  0  0  0
 47 48  1  6  0  0  0
 49 50  1  0  0  0  0
 51 52  1  0  0  0  0
M  END
>  <CHROM.1>
-82.22658282,-149.75190808,-170.85522831,84.92591296,-67.43668252,122.20817773
-176.34212464,87.52025210,64.06640640,147.53722451,43.91017178,63.63277085
8.01070299,-42.09199150,14.17860900,-2.33522180,-0.45897859,-0.31422167

>  <Name>
2fd0_lig

>  <RI>
2.85265e+07

>  <Rbt.Current_Directory>
/home/itssahil/PROJECTS/Mol_Feturizer/New_Systems/rnas/2fd0

>  <Rbt.Executable>
rbdock ($Id: //depot/dev/client3/rdock/2013.1/src/exe/rbdock.cxx#4 $)

>  <Rbt.Library>
libRbt.so (2013.1, Build901 2013/11/27)

>  <Rbt.Parameter_File>
/export/apps/rDock/src/rDock_2013.1_src/data/scripts/dock_solv.prm

>  <Rbt.Receptor>
prm/blind_docking_60.prm

>  <SCORE>
6.67

>  <SCORE.INTER>
-4.25742

>  <SCORE.INTER.CONST>
1

>  <SCORE.INTER.POLAR>
-0.959166

>  <SCORE.INTER.ROT>
12

>  <SCORE.INTER.SOLV>
25.7614

>  <SCORE.INTER.VDW>
-19.8282

>  <SCORE.INTER.norm>
-0.0818736

>  <SCORE.INTRA>
7.56059

>  <SCORE.INTRA.DIHEDRAL>
1.74986

>  <SCORE.INTRA.DIHEDRAL.0>
23.9727

>  <SCORE.INTRA.POLAR>
0

>  <SCORE.INTRA.POLAR.0>
0

>  <SCORE.INTRA.REPUL>
0

>  <SCORE.INTRA.REPUL.0>
0

>  <SCORE.INTRA.SOLV>
4.59654

>  <SCORE.INTRA.SOLV.lig_0>
-115.028

>  <SCORE.INTRA.VDW>
4.38739

>  <SCORE.INTRA.VDW.0>
-6.82393

>  <SCORE.INTRA.norm>
0.145396

>  <SCORE.RESTR>
3.36684

>  <SCORE.RESTR.CAVITY>
3.36684

>  <SCORE.RESTR.norm>
0.064747

>  <SCORE.SYSTEM>
0

>  <SCORE.SYSTEM.CONST>
0

>  <SCORE.SYSTEM.DIHEDRAL>
0

>  <SCORE.SYSTEM.SOLV>
0

>  <SCORE.SYSTEM.norm>
0

>  <SCORE.heavy>
52

>  <SCORE.norm>
0.128269

>  <RMSD>
14.535

$$$$
2fd0_lig
 OpenBabel11021811433D
libRbt.so/2013.1/901 2013/11/27
 52 56  0  0  0  0  0  0  0  0999 V2000
    5.9164  -46.8992   15.6302 C   0  0  2  0  0  0  0  0  0  0  0  0
    5.6932  -46.4917   14.2733 O   0  0  0  0  0  0  0  0  0  0  0  0
    3.5474  -43.2991   12.2497 C   0  0  2  0  0  0  0  0  0  0  0  0
    3.0691  -41.9601   11.8686 N   0  0  0  0  0  0  0  0  0  0  0  0
    7.9236  -43.8806   12.6172 C   0  0  1  0  0  0  0  0  0  0  0  0
   10.2034  -41.7716   13.9747 C   0  0  1  0  0  0  0  0  0  0  0  0
   12.1618  -37.2538   15.9728 C   0  0  1  0  0  0  0  0  0  0  0  0
    7.2443  -47.7386   15.6882 C   0  0  2  0  0  0  0  0  0  0  0  0
    8.3813  -46.9918   15.1684 N   0  0  0  0  0  0  0  0  0  0  0  0
    3.2577  -43.5710   13.7909 C   0  0  0  0  0  0  0  0  0  0  0  0
    9.2478  -44.5227   12.9883 C   0  0  2  0  0  0  0  0  0  0  0  0
    9.3574  -44.7743   14.4176 O   0  0  0  0  0  0  0  0  0  0  0  0
   10.6440  -40.4367   13.2109 C   0  0  2  0  0  0  0  0  0  0  0  0
   12.1256  -40.2955   13.2195 N   0  0  0  0  0  0  0  0  0  0  0  0
   10.7546  -36.6467   16.1703 C   0  0  1  0  0  0  0  0  0  0  0  0
   10.1603  -37.2113   17.3653 O   0  0  0  0  0  0  0  0  0  0  0  0
    7.0616  -49.1057   14.9305 C   0  0  0  0  0  0  0  0  0  0  0  0
    3.7692  -45.0337   14.2009 C   0  0  2  0  0  0  0  0  0  0  0  0
    3.5156  -45.3093   15.6227 N   0  0  0  0  0  0  0  0  0  0  0  0
   10.2678  -43.5629   12.3992 C   0  0  2  0  0  0  0  0  0  0  0  0
   10.9173  -42.8269   13.3999 O   0  0  0  0  0  0  0  0  0  0  0  0
    9.8242  -39.2109   13.8715 C   0  0  1  0  0  0  0  0  0  0  0  0
    8.4200  -39.5075   13.7655 O   0  0  0  0  0  0  0  0  0  0  0  0
   10.6494  -35.1004   16.2640 C   0  0  1  0  0  0  0  0  0  0  0  0
   10.7050  -34.7372   17.6494 O   0  0  0  0  0  0  0  0  0  0  0  0
    5.8341  -49.8541   15.5453 C   0  0  2  0  0  0  0  0  0  0  0  0
    5.6456  -51.1082   14.8973 O   0  0  0  0  0  0  0  0  0  0  0  0
    5.2895  -45.1453   13.8976 C   0  0  2  0  0  0  0  0  0  0  0  0
    9.5224  -42.5136   11.5404 C   0  0  2  0  0  0  0  0  0  0  0  0
    8.1929  -43.0134   11.5294 O   0  0  0  0  0  0  0  0  0  0  0  0
   10.1427  -39.0540   15.4489 C   0  0  2  0  0  0  0  0  0  0  0  0
   11.5474  -38.7423   15.5044 O   0  0  0  0  0  0  0  0  0  0  0  0
   11.7247  -34.2979   15.4956 C   0  0  2  0  0  0  0  0  0  0  0  0
   11.0263  -33.1889   14.8883 O   0  0  0  0  0  0  0  0  0  0  0  0
    4.5595  -48.9772   15.3838 C   0  0  2  0  0  0  0  0  0  0  0  0
    4.7902  -47.6939   16.0833 O   0  0  0  0  0  0  0  0  0  0  0  0
    5.6330  -44.8307   12.4096 C   0  0  2  0  0  0  0  0  0  0  0  0
    7.0705  -44.9235   12.2653 O   0  0  0  0  0  0  0  0  0  0  0  0
   10.0031  -42.3987   10.0981 C   0  0  0  0  0  0  0  0  0  0  0  0
   10.3323  -43.7248    9.6575 O   0  0  0  0  0  0  0  0  0  0  0  0
    9.9294  -40.4312   16.0483 C   0  0  1  0  0  0  0  0  0  0  0  0
   10.4461  -41.6577   15.4909 O   0  0  0  0  0  0  0  0  0  0  0  0
   12.4553  -35.1837   14.4901 C   0  0  2  0  0  0  0  0  0  0  0  0
   12.9789  -36.4247   15.0390 O   0  0  0  0  0  0  0  0  0  0  0  0
    3.3524  -49.6234   15.9858 C   0  0  0  0  0  0  0  0  0  0  0  0
    2.2867  -48.7164   15.9002 O   0  0  0  0  0  0  0  0  0  0  0  0
    5.1097  -43.3985   12.0254 C   0  0  1  0  0  0  0  0  0  0  0  0
    5.4044  -43.1585   10.6059 O   0  0  0  0  0  0  0  0  0  0  0  0
   10.2385  -40.4915   17.5863 C   0  0  0  0  0  0  0  0  0  0  0  0
   10.3244  -41.8718   18.1219 N   0  0  0  0  0  0  0  0  0  0  0  0
   13.5761  -34.6458   13.6033 C   0  0  0  0  0  0  0  0  0  0  0  0
   13.3663  -35.0530   12.2159 O   0  0  0  0  0  0  0  0  0  0  0  0
  1  2  1  6  0  0  0
  1  8  1  0  0  0  0
  1 36  1  0  0  0  0
  3  4  1  1  0  0  0
  3 10  1  0  0  0  0
  3 47  1  0  0  0  0
  5 11  1  0  0  0  0
  5 30  1  0  0  0  0
  5 38  1  6  0  0  0
  6 21  1  6  0  0  0
  6 42  1  0  0  0  0
  7 15  1  0  0  0  0
  7 44  1  0  0  0  0
  7 32  1  6  0  0  0
  8  9  1  6  0  0  0
  8 17  1  0  0  0  0
 11 12  1  1  0  0  0
 11 20  1  0  0  0  0
 13  6  1  0  0  0  0
 13 14  1  1  0  0  0
 15 16  1  1  0  0  0
 15 24  1  0  0  0  0
 17 26  1  0  0  0  0
 18 10  1  0  0  0  0
 18 19  1  1  0  0  0
 20 21  1  1  0  0  0
 20 29  1  0  0  0  0
 22 13  1  0  0  0  0
 22 23  1  1  0  0  0
 24 25  1  1  0  0  0
 24 33  1  0  0  0  0
 26 27  1  6  0  0  0
 26 35  1  0  0  0  0
 28  2  1  6  0  0  0
 28 18  1  0  0  0  0
 29 30  1  0  0  0  0
 29 39  1  6  0  0  0
 31 22  1  0  0  0  0
 31 32  1  6  0  0  0
 31 41  1  0  0  0  0
 33 34  1  6  0  0  0
 33 43  1  0  0  0  0
 35 36  1  0  0  0  0
 35 45  1  1  0  0  0
 37 28  1  0  0  0  0
 37 38  1  1  0  0  0
 39 40  1  0  0  0  0
 41 42  1  0  0  0  0
 41 49  1  1  0  0  0
 43 44  1  0  0  0  0
 43 51  1  1  0  0  0
 45 46  1  0  0  0  0
 47 37  1  0  0  0  0
 47 48  1  6  0  0  0
 49 50  1  0  0  0  0
 51 52  1  0  0  0  0
M  END
>  <CHROM.1>
-135.33573404,152.51131507,-96.20276976,-1.72777079,-76.66560561,-77.70953063
37.06244436,111.22986761,174.80179619,-81.71293260,-167.33000478,-132.21681953
8.39759270,-42.25733362,14.27386139,2.89976418,-1.01732499,-1.80674809

>  <Name>
2fd0_lig

>  <RI>
2.85265e+07

>  <Rbt.Current_Directory>
/home/itssahil/PROJECTS/Mol_Feturizer/New_Systems/rnas/2fd0

>  <Rbt.Executable>
rbdock ($Id: //depot/dev/client3/rdock/2013.1/src/exe/rbdock.cxx#4 $)

>  <Rbt.Library>
libRbt.so (2013.1, Build901 2013/11/27)

>  <Rbt.Parameter_File>
/export/apps/rDock/src/rDock_2013.1_src/data/scripts/dock_solv.prm

>  <Rbt.Receptor>
prm/blind_docking_60.prm

>  <SCORE>
2.32512

>  <SCORE.INTER>
-17.0593

>  <SCORE.INTER.CONST>
1

>  <SCORE.INTER.POLAR>
-2.09322

>  <SCORE.INTER.ROT>
12

>  <SCORE.INTER.SOLV>
22.9437

>  <SCORE.INTER.VDW>
-23.6433

>  <SCORE.INTER.norm>
-0.328063

>  <SCORE.INTRA>
18.685

>  <SCORE.INTRA.DIHEDRAL>
16.2326

>  <SCORE.INTRA.DIHEDRAL.0>
23.9727

>  <SCORE.INTRA.POLAR>
0

>  <SCORE.INTRA.POLAR.0>
0

>  <SCORE.INTRA.REPUL>
0

>  <SCORE.INTRA.REPUL.0>
0

>  <SCORE.INTRA.SOLV>
1.97905

>  <SCORE.INTRA.SOLV.lig_0>
-115.028

>  <SCORE.INTRA.VDW>
9.57918

>  <SCORE.INTRA.VDW.0>
-6.82393

>  <SCORE.INTRA.norm>
0.359327

>  <SCORE.RESTR>
0.699381

>  <SCORE.RESTR.CAVITY>
0.699381

>  <SCORE.RESTR.norm>
0.0134496

>  <SCORE.SYSTEM>
0

>  <SCORE.SYSTEM.CONST>
0

>  <SCORE.SYSTEM.DIHEDRAL>
0

>  <SCORE.SYSTEM.SOLV>
0

>  <SCORE.SYSTEM.norm>
0

>  <SCORE.heavy>
52

>  <SCORE.norm>
0.0447139

>  <RMSD>
14.560

$$$$
2fd0_lig
 OpenBabel11021811433D
libRbt.so/2013.1/901 2013/11/27
 52 56  0  0  0  0  0  0  0  0999 V2000
   13.7248  -33.8914   13.4255 C   0  0  2  0  0  0  0  0  0  0  0  0
   12.6808  -34.8680   13.5410 O   0  0  0  0  0  0  0  0  0  0  0  0
   11.3448  -34.9327   17.6767 C   0  0  2  0  0  0  0  0  0  0  0  0
   10.4741  -34.9600   18.8633 N   0  0  0  0  0  0  0  0  0  0  0  0
   10.5176  -37.8715   14.4681 C   0  0  1  0  0  0  0  0  0  0  0  0
    8.2289  -40.9045   11.9401 C   0  0  1  0  0  0  0  0  0  0  0  0
    7.6595  -45.2542   13.7223 C   0  0  1  0  0  0  0  0  0  0  0  0
   14.7043  -34.3399   12.2805 C   0  0  2  0  0  0  0  0  0  0  0  0
   14.0104  -34.5220   11.0133 N   0  0  0  0  0  0  0  0  0  0  0  0
   11.0089  -33.6655   16.7743 C   0  0  0  0  0  0  0  0  0  0  0  0
   10.6040  -38.7010   13.2000 C   0  0  2  0  0  0  0  0  0  0  0  0
   10.2549  -37.9332   12.0139 O   0  0  0  0  0  0  0  0  0  0  0  0
    7.1935  -41.8539   12.7057 C   0  0  2  0  0  0  0  0  0  0  0  0
    7.7160  -42.2181   14.0509 N   0  0  0  0  0  0  0  0  0  0  0  0
    8.8180  -45.4815   14.7193 C   0  0  1  0  0  0  0  0  0  0  0  0
    9.1589  -44.2186   15.3429 O   0  0  0  0  0  0  0  0  0  0  0  0
   15.4795  -35.6429   12.7021 C   0  0  0  0  0  0  0  0  0  0  0  0
   11.9657  -33.6319   15.4887 C   0  0  2  0  0  0  0  0  0  0  0  0
   11.6736  -32.4704   14.6357 N   0  0  0  0  0  0  0  0  0  0  0  0
    9.7123  -39.8913   13.5111 C   0  0  2  0  0  0  0  0  0  0  0  0
    8.5100  -39.8333   12.7929 O   0  0  0  0  0  0  0  0  0  0  0  0
    6.8649  -43.0967   11.7268 C   0  0  1  0  0  0  0  0  0  0  0  0
    6.3627  -42.5650   10.4874 O   0  0  0  0  0  0  0  0  0  0  0  0
    8.5991  -46.5305   15.8430 C   0  0  1  0  0  0  0  0  0  0  0  0
    8.0994  -45.8432   16.9972 O   0  0  0  0  0  0  0  0  0  0  0  0
   16.2049  -35.3718   14.0604 C   0  0  2  0  0  0  0  0  0  0  0  0
   16.9351  -36.5244   14.4686 O   0  0  0  0  0  0  0  0  0  0  0  0
   11.7813  -34.9475   14.6820 C   0  0  2  0  0  0  0  0  0  0  0  0
    9.3004  -39.8256   15.0012 C   0  0  2  0  0  0  0  0  0  0  0  0
   10.0921  -38.7534   15.4923 O   0  0  0  0  0  0  0  0  0  0  0  0
    8.1936  -43.9416   11.3592 C   0  0  2  0  0  0  0  0  0  0  0  0
    8.6485  -44.4659   12.6209 O   0  0  0  0  0  0  0  0  0  0  0  0
    7.6430  -47.6980   15.5064 C   0  0  2  0  0  0  0  0  0  0  0  0
    8.2578  -48.8807   16.0630 O   0  0  0  0  0  0  0  0  0  0  0  0
   15.1525  -34.9999   15.1438 C   0  0  2  0  0  0  0  0  0  0  0  0
   14.4295  -33.7914   14.6898 O   0  0  0  0  0  0  0  0  0  0  0  0
   12.0434  -36.2231   15.5394 C   0  0  2  0  0  0  0  0  0  0  0  0
   11.7980  -37.3734   14.6952 O   0  0  0  0  0  0  0  0  0  0  0  0
    9.6232  -41.0725   15.8171 C   0  0  0  0  0  0  0  0  0  0  0  0
   11.0449  -41.2617   15.7517 O   0  0  0  0  0  0  0  0  0  0  0  0
    9.2036  -42.9221   10.8673 C   0  0  1  0  0  0  0  0  0  0  0  0
    9.4976  -41.6734   11.5281 O   0  0  0  0  0  0  0  0  0  0  0  0
    7.3962  -47.7883   14.0029 C   0  0  2  0  0  0  0  0  0  0  0  0
    6.9872  -46.5408   13.3767 O   0  0  0  0  0  0  0  0  0  0  0  0
   15.7876  -34.6926   16.4627 C   0  0  0  0  0  0  0  0  0  0  0  0
   14.8180  -34.0991   17.2833 O   0  0  0  0  0  0  0  0  0  0  0  0
   11.1053  -36.2280   16.8014 C   0  0  1  0  0  0  0  0  0  0  0  0
   11.4162  -37.4149   17.6102 O   0  0  0  0  0  0  0  0  0  0  0  0
   10.5929  -43.5544   10.5005 C   0  0  0  0  0  0  0  0  0  0  0  0
   11.3654  -44.0174   11.6787 N   0  0  0  0  0  0  0  0  0  0  0  0
    6.4796  -48.8483   13.3961 C   0  0  0  0  0  0  0  0  0  0  0  0
    5.2076  -48.8914   14.1135 O   0  0  0  0  0  0  0  0  0  0  0  0
  1  2  1  1  0  0  0
  1  8  1  0  0  0  0
  1 36  1  0  0  0  0
  3  4  1  1  0  0  0
  3 10  1  0  0  0  0
  3 47  1  0  0  0  0
  5 11  1  0  0  0  0
  5 30  1  0  0  0  0
  5 38  1  1  0  0  0
  6 21  1  1  0  0  0
  6 42  1  0  0  0  0
  7 15  1  0  0  0  0
  7 44  1  0  0  0  0
  7 32  1  6  0  0  0
  8  9  1  6  0  0  0
  8 17  1  0  0  0  0
 11 12  1  6  0  0  0
 11 20  1  0  0  0  0
 13  6  1  0  0  0  0
 13 14  1  1  0  0  0
 15 16  1  1  0  0  0
 15 24  1  0  0  0  0
 17 26  1  0  0  0  0
 18 10  1  0  0  0  0
 18 19  1  6  0  0  0
 20 21  1  6  0  0  0
 20 29  1  0  0  0  0
 22 13  1  0  0  0  0
 22 23  1  6  0  0  0
 24 25  1  1  0  0  0
 24 33  1  0  0  0  0
 26 27  1  1  0  0  0
 26 35  1  0  0  0  0
 28  2  1  6  0  0  0
 28 18  1  0  0  0  0
 29 30  1  0  0  0  0
 29 39  1  1  0  0  0
 31 22  1  0  0  0  0
 31 32  1  1  0  0  0
 31 41  1  0  0  0  0
 33 34  1  6  0  0  0
 33 43  1  0  0  0  0
 35 36  1  0  0  0  0
 35 45  1  1  0  0  0
 37 28  1  0  0  0  0
 37 38  1  6  0  0  0
 39 40  1  0  0  0  0
 41 42  1  0  0  0  0
 41 49  1  1  0  0  0
 43 44  1  0  0  0  0
 43 51  1  1  0  0  0
 45 46  1  0  0  0  0
 47 37  1  0  0  0  0
 47 48  1  1  0  0  0
 49 50  1  0  0  0  0
 51 52  1  0  0  0  0
M  END
>  <CHROM.1>
165.28703187,160.00800269,100.30970189,179.88721511,121.02880375,13.03925154
59.65292822,48.74667616,167.53613255,-81.96519658,-70.66693439,48.64771144
10.49898987,-39.98683248,14.21335279,-0.14486171,-1.08860533,-1.62592308

>  <Name>
2fd0_lig

>  <RI>
0

>  <Rbt.Current_Directory>
/home/itssahil/PROJECTS/Mol_Feturizer/New_Systems/rnas/2fd0

>  <Rbt.Executable>
rbdock ($Id: //depot/dev/client3/rdock/2013.1/src/exe/rbdock.cxx#4 $)

>  <Rbt.Library>
libRbt.so (2013.1, Build901 2013/11/27)

>  <Rbt.Parameter_File>
/export/apps/rDock/src/rDock_2013.1_src/data/scripts/dock_solv.prm

>  <Rbt.Receptor>
prm/blind_docking_100.prm

>  <SCORE>
-4.65377

>  <SCORE.INTER>
-13.2072

>  <SCORE.INTER.CONST>
1

>  <SCORE.INTER.POLAR>
-0.669282

>  <SCORE.INTER.ROT>
12

>  <SCORE.INTER.SOLV>
24.1811

>  <SCORE.INTER.VDW>
-26.2342

>  <SCORE.INTER.norm>
-0.253984

>  <SCORE.INTRA>
7.08869

>  <SCORE.INTRA.DIHEDRAL>
3.3481

>  <SCORE.INTRA.DIHEDRAL.0>
23.9727

>  <SCORE.INTRA.POLAR>
0

>  <SCORE.INTRA.POLAR.0>
0

>  <SCORE.INTRA.REPUL>
0

>  <SCORE.INTRA.REPUL.0>
0

>  <SCORE.INTRA.SOLV>
3.66848

>  <SCORE.INTRA.SOLV.lig_0>
-115.028

>  <SCORE.INTRA.VDW>
3.5804

>  <SCORE.INTRA.VDW.0>
-6.82393

>  <SCORE.INTRA.norm>
0.136321

>  <SCORE.RESTR>
1.46473

>  <SCORE.RESTR.CAVITY>
1.46473

>  <SCORE.RESTR.norm>
0.0281678

>  <SCORE.SYSTEM>
0

>  <SCORE.SYSTEM.CONST>
0

>  <SCORE.SYSTEM.DIHEDRAL>
0

>  <SCORE.SYSTEM.SOLV>
0

>  <SCORE.SYSTEM.norm>
0

>  <SCORE.heavy>
52

>  <SCORE.norm>
-0.0894956

>  <RMSD>
14.587

$$$$
2fd0_lig
 OpenBabel11021811433D
libRbt.so/2013.1/901 2013/11/27
 52 56  0  0  0  0  0  0  0  0999 V2000
   11.2573  -35.3648   15.8489 C   0  0  2  0  0  0  0  0  0  0  0  0
   11.9401  -35.8554   17.0108 O   0  0  0  0  0  0  0  0  0  0  0  0
   11.5076  -39.3776   19.5207 C   0  0  2  0  0  0  0  0  0  0  0  0
   10.9750  -40.3371   20.5018 N   0  0  0  0  0  0  0  0  0  0  0  0
    9.9042  -38.7975   15.1519 C   0  0  1  0  0  0  0  0  0  0  0  0
    9.0999  -40.5695   11.7346 C   0  0  1  0  0  0  0  0  0  0  0  0
    9.1290  -45.2563   13.0262 C   0  0  1  0  0  0  0  0  0  0  0  0
   12.1997  -34.3485   15.1070 C   0  0  2  0  0  0  0  0  0  0  0  0
   13.4765  -34.9523   14.7522 N   0  0  0  0  0  0  0  0  0  0  0  0
   11.7496  -37.9624   20.2076 C   0  0  0  0  0  0  0  0  0  0  0  0
    8.6233  -38.3749   14.4560 C   0  0  2  0  0  0  0  0  0  0  0  0
    7.4660  -39.1182   14.9318 O   0  0  0  0  0  0  0  0  0  0  0  0
    8.1126  -41.4509   10.8357 C   0  0  2  0  0  0  0  0  0  0  0  0
    7.0251  -42.0308   11.6702 N   0  0  0  0  0  0  0  0  0  0  0  0
    7.7971  -46.0148   12.8300 C   0  0  1  0  0  0  0  0  0  0  0  0
    7.8877  -46.8259   11.6325 O   0  0  0  0  0  0  0  0  0  0  0  0
   12.4004  -33.0525   15.9768 C   0  0  0  0  0  0  0  0  0  0  0  0
   12.3400  -36.9225   19.1401 C   0  0  2  0  0  0  0  0  0  0  0  0
   12.5704  -35.6044   19.7495 N   0  0  0  0  0  0  0  0  0  0  0  0
    8.9649  -38.5413   12.9849 C   0  0  2  0  0  0  0  0  0  0  0  0
    8.3098  -39.6483   12.4281 O   0  0  0  0  0  0  0  0  0  0  0  0
    9.0187  -42.5205   10.0319 C   0  0  1  0  0  0  0  0  0  0  0  0
   10.0013  -41.7903    9.2754 O   0  0  0  0  0  0  0  0  0  0  0  0
    7.3136  -46.9237   13.9924 C   0  0  1  0  0  0  0  0  0  0  0  0
    7.7940  -48.2510   13.7441 O   0  0  0  0  0  0  0  0  0  0  0  0
   10.9943  -32.4556   16.3105 C   0  0  2  0  0  0  0  0  0  0  0  0
   11.1333  -31.2677   17.0836 O   0  0  0  0  0  0  0  0  0  0  0  0
   11.3480  -36.7955   17.9504 C   0  0  2  0  0  0  0  0  0  0  0  0
   10.4748  -38.8558   12.8594 C   0  0  2  0  0  0  0  0  0  0  0  0
   10.9379  -38.6770   14.1902 O   0  0  0  0  0  0  0  0  0  0  0  0
    9.8377  -43.4897   11.0340 C   0  0  2  0  0  0  0  0  0  0  0  0
    8.8187  -44.2087   11.7539 O   0  0  0  0  0  0  0  0  0  0  0  0
    7.7450  -46.4961   15.4143 C   0  0  2  0  0  0  0  0  0  0  0  0
    6.5905  -46.7115   16.2552 O   0  0  0  0  0  0  0  0  0  0  0  0
   10.1601  -33.5060   17.0983 C   0  0  2  0  0  0  0  0  0  0  0  0
   10.0255  -34.7149   16.2557 O   0  0  0  0  0  0  0  0  0  0  0  0
   11.0326  -38.1665   17.2782 C   0  0  2  0  0  0  0  0  0  0  0  0
   10.0717  -37.9235   16.2229 O   0  0  0  0  0  0  0  0  0  0  0  0
   11.2579  -37.9162   11.9493 C   0  0  0  0  0  0  0  0  0  0  0  0
   10.3880  -37.5598   10.8641 O   0  0  0  0  0  0  0  0  0  0  0  0
   10.5530  -42.5666   12.0023 C   0  0  1  0  0  0  0  0  0  0  0  0
    9.9373  -41.4509   12.6793 O   0  0  0  0  0  0  0  0  0  0  0  0
    8.2475  -45.0550   15.4246 C   0  0  2  0  0  0  0  0  0  0  0  0
    9.2620  -44.7564   14.4260 O   0  0  0  0  0  0  0  0  0  0  0  0
    8.7864  -33.0080   17.4180 C   0  0  0  0  0  0  0  0  0  0  0  0
    8.1627  -32.6521   16.2139 O   0  0  0  0  0  0  0  0  0  0  0  0
   10.4690  -39.1745   18.3454 C   0  0  1  0  0  0  0  0  0  0  0  0
   10.2331  -40.4675   17.6881 O   0  0  0  0  0  0  0  0  0  0  0  0
   11.3765  -43.3347   13.0961 C   0  0  0  0  0  0  0  0  0  0  0  0
   12.6690  -43.8682   12.6019 N   0  0  0  0  0  0  0  0  0  0  0  0
    8.7465  -44.3817   16.7012 C   0  0  0  0  0  0  0  0  0  0  0  0
    8.2117  -43.0260   16.8032 O   0  0  0  0  0  0  0  0  0  0  0  0
  1  2  1  1  0  0  0
  1  8  1  0  0  0  0
  1 36  1  0  0  0  0
  3  4  1  1  0  0  0
  3 10  1  0  0  0  0
  3 47  1  0  0  0  0
  5 11  1  0  0  0  0
  5 30  1  0  0  0  0
  5 38  1  1  0  0  0
  6 21  1  1  0  0  0
  6 42  1  0  0  0  0
  7 15  1  0  0  0  0
  7 44  1  0  0  0  0
  7 32  1  6  0  0  0
  8  9  1  1  0  0  0
  8 17  1  0  0  0  0
 11 12  1  1  0  0  0
 11 20  1  0  0  0  0
 13  6  1  0  0  0  0
 13 14  1  1  0  0  0
 15 16  1  6  0  0  0
 15 24  1  0  0  0  0
 17 26  1  0  0  0  0
 18 10  1  0  0  0  0
 18 19  1  1  0  0  0
 20 21  1  1  0  0  0
 20 29  1  0  0  0  0
 22 13  1  0  0  0  0
 22 23  1  1  0  0  0
 24 25  1  6  0  0  0
 24 33  1  0  0  0  0
 26 27  1  1  0  0  0
 26 35  1  0  0  0  0
 28  2  1  6  0  0  0
 28 18  1  0  0  0  0
 29 30  1  0  0  0  0
 29 39  1  6  0  0  0
 31 22  1  0  0  0  0
 31 32  1  1  0  0  0
 31 41  1  0  0  0  0
 33 34  1  1  0  0  0
 33 43  1  0  0  0  0
 35 36  1  0  0  0  0
 35 45  1  6  0  0  0
 37 28  1  0  0  0  0
 37 38  1  6  0  0  0
 39 40  1  0  0  0  0
 41 42  1  0  0  0  0
 41 49  1  1  0  0  0
 43 44  1  0  0  0  0
 43 51  1  1  0  0  0
 45 46  1  0  0  0  0
 47 37  1  0  0  0  0
 47 48  1  6  0  0  0
 49 50  1  0  0  0  0
 51 52  1  0  0  0  0
M  END
>  <CHROM.1>
178.57446259,167.39142157,-162.74988864,-157.28200179,-128.26809877,-173.04414056
-35.51742616,-174.29256895,56.66926174,157.97315588,77.74606059,-135.98138757
9.86378866,-39.86757226,14.83825640,0.01927692,-1.34627907,-1.19687692

>  <Name>
2fd0_lig

>  <RI>
0

>  <Rbt.Current_Directory>
/home/itssahil/PROJECTS/Mol_Feturizer/New_Systems/rnas/2fd0

>  <Rbt.Executable>
rbdock ($Id: //depot/dev/client3/rdock/2013.1/src/exe/rbdock.cxx#4 $)

>  <Rbt.Library>
libRbt.so (2013.1, Build901 2013/11/27)

>  <Rbt.Parameter_File>
/export/apps/rDock/src/rDock_2013.1_src/data/scripts/dock_solv.prm

>  <Rbt.Receptor>
prm/blind_docking_100.prm

>  <SCORE>
-0.500762

>  <SCORE.INTER>
-11.3706

>  <SCORE.INTER.CONST>
1

>  <SCORE.INTER.POLAR>
-0.894641

>  <SCORE.INTER.ROT>
12

>  <SCORE.INTER.SOLV>
27.2982

>  <SCORE.INTER.VDW>
-25.2977

>  <SCORE.INTER.norm>
-0.218665

>  <SCORE.INTRA>
6.32745

>  <SCORE.INTRA.DIHEDRAL>
-2.24083

>  <SCORE.INTRA.DIHEDRAL.0>
23.9727

>  <SCORE.INTRA.POLAR>
0

>  <SCORE.INTRA.POLAR.0>
0

>  <SCORE.INTRA.REPUL>
0.0043384

>  <SCORE.INTRA.REPUL.0>
0

>  <SCORE.INTRA.SOLV>
-3.74726

>  <SCORE.INTRA.SOLV.lig_0>
-115.028

>  <SCORE.INTRA.VDW>
9.2998

>  <SCORE.INTRA.VDW.0>
-6.82393

>  <SCORE.INTRA.norm>
0.121682

>  <SCORE.RESTR>
4.54239

>  <SCORE.RESTR.CAVITY>
4.54239

>  <SCORE.RESTR.norm>
0.0873537

>  <SCORE.SYSTEM>
0

>  <SCORE.SYSTEM.CONST>
0

>  <SCORE.SYSTEM.DIHEDRAL>
0

>  <SCORE.SYSTEM.SOLV>
0

>  <SCORE.SYSTEM.norm>
0

>  <SCORE.heavy>
52

>  <SCORE.norm>
-0.00963003

>  <RMSD>
14.591

$$$$
2fd0_lig
 OpenBabel11021811433D
libRbt.so/2013.1/901 2013/11/27
 52 56  0  0  0  0  0  0  0  0999 V2000
   14.9715  -37.0480   14.4133 C   0  0  2  0  0  0  0  0  0  0  0  0
   14.7586  -36.3587   15.6528 O   0  0  0  0  0  0  0  0  0  0  0  0
   11.6520  -34.2918   17.8820 C   0  0  2  0  0  0  0  0  0  0  0  0
   10.5090  -33.4233   18.2078 N   0  0  0  0  0  0  0  0  0  0  0  0
   10.8987  -38.1359   15.6553 C   0  0  1  0  0  0  0  0  0  0  0  0
    9.1156  -41.6627   13.7123 C   0  0  1  0  0  0  0  0  0  0  0  0
    6.8821  -46.2152   13.9305 C   0  0  1  0  0  0  0  0  0  0  0  0
   16.4724  -36.8570   13.9863 C   0  0  2  0  0  0  0  0  0  0  0  0
   17.3924  -37.3243   15.0139 N   0  0  0  0  0  0  0  0  0  0  0  0
   12.8163  -33.4421   17.2071 C   0  0  0  0  0  0  0  0  0  0  0  0
   10.9798  -39.1851   14.5616 C   0  0  2  0  0  0  0  0  0  0  0  0
   10.2703  -38.7817   13.3566 O   0  0  0  0  0  0  0  0  0  0  0  0
    7.5880  -41.7025   13.2385 C   0  0  2  0  0  0  0  0  0  0  0  0
    6.6940  -42.0191   14.3856 N   0  0  0  0  0  0  0  0  0  0  0  0
    5.4560  -45.9798   14.4767 C   0  0  1  0  0  0  0  0  0  0  0  0
    4.5352  -45.8740   13.3628 O   0  0  0  0  0  0  0  0  0  0  0  0
   16.7480  -35.3539   13.6108 C   0  0  0  0  0  0  0  0  0  0  0  0
   14.0641  -34.3877   16.8634 C   0  0  2  0  0  0  0  0  0  0  0  0
   15.1543  -33.6266   16.2356 N   0  0  0  0  0  0  0  0  0  0  0  0
   10.4645  -40.4365   15.2523 C   0  0  2  0  0  0  0  0  0  0  0  0
    9.1852  -40.7840   14.7970 O   0  0  0  0  0  0  0  0  0  0  0  0
    7.4986  -42.7186   11.9853 C   0  0  1  0  0  0  0  0  0  0  0  0
    8.4117  -42.2568   10.9733 O   0  0  0  0  0  0  0  0  0  0  0  0
    4.8895  -47.0277   15.4727 C   0  0  1  0  0  0  0  0  0  0  0  0
    4.1496  -47.9973   14.7199 O   0  0  0  0  0  0  0  0  0  0  0  0
   15.7340  -34.9254   12.5004 C   0  0  2  0  0  0  0  0  0  0  0  0
   15.9628  -33.5727   12.1186 O   0  0  0  0  0  0  0  0  0  0  0  0
   13.5940  -35.5276   15.9172 C   0  0  2  0  0  0  0  0  0  0  0  0
   10.2924  -40.1349   16.7603 C   0  0  2  0  0  0  0  0  0  0  0  0
   10.8688  -38.8425   16.8832 O   0  0  0  0  0  0  0  0  0  0  0  0
    7.9731  -44.2116   12.3853 C   0  0  2  0  0  0  0  0  0  0  0  0
    7.0251  -44.6367   13.3824 O   0  0  0  0  0  0  0  0  0  0  0  0
    5.9290  -47.7651   16.3481 C   0  0  2  0  0  0  0  0  0  0  0  0
    5.3429  -47.8483   17.6657 O   0  0  0  0  0  0  0  0  0  0  0  0
   14.2822  -35.0868   13.0354 C   0  0  2  0  0  0  0  0  0  0  0  0
   14.0810  -36.5056   13.4042 O   0  0  0  0  0  0  0  0  0  0  0  0
   12.4130  -36.3554   16.5096 C   0  0  2  0  0  0  0  0  0  0  0  0
   12.0396  -37.3484   15.5244 O   0  0  0  0  0  0  0  0  0  0  0  0
   11.0337  -41.0813   17.6980 C   0  0  0  0  0  0  0  0  0  0  0  0
   10.4159  -42.3708   17.5689 O   0  0  0  0  0  0  0  0  0  0  0  0
    9.3285  -44.0467   13.0467 C   0  0  1  0  0  0  0  0  0  0  0  0
    9.6314  -43.0699   14.0647 O   0  0  0  0  0  0  0  0  0  0  0  0
    7.2753  -47.0464   16.3231 C   0  0  2  0  0  0  0  0  0  0  0  0
    7.7832  -46.7507   14.9927 O   0  0  0  0  0  0  0  0  0  0  0  0
   13.2598  -34.7259   12.0050 C   0  0  0  0  0  0  0  0  0  0  0  0
   13.4731  -33.3916   11.6310 O   0  0  0  0  0  0  0  0  0  0  0  0
   11.2067  -35.4067   16.8525 C   0  0  1  0  0  0  0  0  0  0  0  0
   10.1353  -36.2121   17.4550 O   0  0  0  0  0  0  0  0  0  0  0  0
    9.9395  -45.4015   13.5522 C   0  0  0  0  0  0  0  0  0  0  0  0
    9.8866  -46.4898   12.5461 N   0  0  0  0  0  0  0  0  0  0  0  0
    8.4848  -47.5679   17.0956 C   0  0  0  0  0  0  0  0  0  0  0  0
    8.1932  -47.6132   18.5264 O   0  0  0  0  0  0  0  0  0  0  0  0
  1  2  1  1  0  0  0
  1  8  1  0  0  0  0
  1 36  1  0  0  0  0
  3  4  1  6  0  0  0
  3 10  1  0  0  0  0
  3 47  1  0  0  0  0
  5 11  1  0  0  0  0
  5 30  1  0  0  0  0
  5 38  1  1  0  0  0
  6 21  1  1  0  0  0
  6 42  1  0  0  0  0
  7 15  1  0  0  0  0
  7 44  1  0  0  0  0
  7 32  1  1  0  0  0
  8  9  1  1  0  0  0
  8 17  1  0  0  0  0
 11 12  1  6  0  0  0
 11 20  1  0  0  0  0
 13  6  1  0  0  0  0
 13 14  1  1  0  0  0
 15 16  1  6  0  0  0
 15 24  1  0  0  0  0
 17 26  1  0  0  0  0
 18 10  1  0  0  0  0
 18 19  1  6  0  0  0
 20 21  1  6  0  0  0
 20 29  1  0  0  0  0
 22 13  1  0  0  0  0
 22 23  1  6  0  0  0
 24 25  1  6  0  0  0
 24 33  1  0  0  0  0
 26 27  1  1  0  0  0
 26 35  1  0  0  0  0
 28  2  1  1  0  0  0
 28 18  1  0  0  0  0
 29 30  1  0  0  0  0
 29 39  1  1  0  0  0
 31 22  1  0  0  0  0
 31 32  1  1  0  0  0
 31 41  1  0  0  0  0
 33 34  1  1  0  0  0
 33 43  1  0  0  0  0
 35 36  1  0  0  0  0
 35 45  1  6  0  0  0
 37 28  1  0  0  0  0
 37 38  1  6  0  0  0
 39 40  1  0  0  0  0
 41 42  1  0  0  0  0
 41 49  1  1  0  0  0
 43 44  1  0  0  0  0
 43 51  1  6  0  0  0
 45 46  1  0  0  0  0
 47 37  1  0  0  0  0
 47 48  1  1  0  0  0
 49 50  1  0  0  0  0
 51 52  1  0  0  0  0
M  END
>  <CHROM.1>
135.96707957,-171.03731511,-170.69637269,-160.32487736,91.10285940,-147.64754706
-66.93533139,168.05923617,-59.37850898,-170.95627065,47.80237196,-60.55349110
10.49098458,-40.36384268,14.89544777,-0.34848387,-0.94784503,-2.00441448

>  <Name>
2fd0_lig

>  <RI>
2.60878e+07

>  <Rbt.Current_Directory>
/home/itssahil/PROJECTS/Mol_Feturizer/New_Systems/rnas/2fd0

>  <Rbt.Executable>
rbdock ($Id: //depot/dev/client3/rdock/2013.1/src/exe/rbdock.cxx#4 $)

>  <Rbt.Library>
libRbt.so (2013.1, Build901 2013/11/27)

>  <Rbt.Parameter_File>
/export/apps/rDock/src/rDock_2013.1_src/data/scripts/dock_solv.prm

>  <Rbt.Receptor>
prm/blind_docking_80.prm

>  <SCORE>
-8.66307

>  <SCORE.INTER>
-10.1969

>  <SCORE.INTER.CONST>
1

>  <SCORE.INTER.POLAR>
0

>  <SCORE.INTER.ROT>
12

>  <SCORE.INTER.SOLV>
28.4926

>  <SCORE.INTER.VDW>
-27.8954

>  <SCORE.INTER.norm>
-0.196094

>  <SCORE.INTRA>
-0.734882

>  <SCORE.INTRA.DIHEDRAL>
-4.29558

>  <SCORE.INTRA.DIHEDRAL.0>
23.9727

>  <SCORE.INTRA.POLAR>
0

>  <SCORE.INTRA.POLAR.0>
0

>  <SCORE.INTRA.REPUL>
0

>  <SCORE.INTRA.REPUL.0>
0

>  <SCORE.INTRA.SOLV>
-0.639075

>  <SCORE.INTRA.SOLV.lig_0>
-115.028

>  <SCORE.INTRA.VDW>
1.73245

>  <SCORE.INTRA.VDW.0>
-6.82393

>  <SCORE.INTRA.norm>
-0.0141323

>  <SCORE.RESTR>
2.26869

>  <SCORE.RESTR.CAVITY>
2.26869

>  <SCORE.RESTR.norm>
0.0436286

>  <SCORE.SYSTEM>
0

>  <SCORE.SYSTEM.CONST>
0

>  <SCORE.SYSTEM.DIHEDRAL>
0

>  <SCORE.SYSTEM.SOLV>
0

>  <SCORE.SYSTEM.norm>
0

>  <SCORE.heavy>
52

>  <SCORE.norm>
-0.166598

>  <RMSD>
14.600

$$$$
2fd0_lig
 OpenBabel11021811433D
libRbt.so/2013.1/901 2013/11/27
 52 56  0  0  0  0  0  0  0  0999 V2000
    2.1226  -45.8810   10.5919 C   0  0  2  0  0  0  0  0  0  0  0  0
    3.4721  -46.2940   10.3364 O   0  0  0  0  0  0  0  0  0  0  0  0
    4.2521  -49.4740   13.1950 C   0  0  2  0  0  0  0  0  0  0  0  0
    4.9591  -50.4349   14.0575 N   0  0  0  0  0  0  0  0  0  0  0  0
    5.5652  -45.1674   13.0314 C   0  0  1  0  0  0  0  0  0  0  0  0
    8.9260  -42.7916   14.9731 C   0  0  1  0  0  0  0  0  0  0  0  0
   11.0322  -38.0660   15.5776 C   0  0  1  0  0  0  0  0  0  0  0  0
    1.4921  -45.3716    9.2448 C   0  0  2  0  0  0  0  0  0  0  0  0
    1.5440  -46.3879    8.2031 N   0  0  0  0  0  0  0  0  0  0  0  0
    4.6808  -49.6764   11.6757 C   0  0  0  0  0  0  0  0  0  0  0  0
    5.5983  -43.8792   13.8333 C   0  0  2  0  0  0  0  0  0  0  0  0
    5.4620  -42.7010   12.9900 O   0  0  0  0  0  0  0  0  0  0  0  0
    8.4947  -41.4614   15.7503 C   0  0  2  0  0  0  0  0  0  0  0  0
    8.0892  -40.4022   14.7864 N   0  0  0  0  0  0  0  0  0  0  0  0
   10.8472  -37.5312   14.1397 C   0  0  1  0  0  0  0  0  0  0  0  0
    9.4464  -37.6200   13.7796 O   0  0  0  0  0  0  0  0  0  0  0  0
    2.1913  -44.0400    8.7819 C   0  0  0  0  0  0  0  0  0  0  0  0
    3.9014  -48.6366   10.7372 C   0  0  2  0  0  0  0  0  0  0  0  0
    4.2820  -48.8010    9.3265 N   0  0  0  0  0  0  0  0  0  0  0  0
    6.8982  -43.9966   14.6113 C   0  0  2  0  0  0  0  0  0  0  0  0
    7.8747  -43.1229   14.1136 O   0  0  0  0  0  0  0  0  0  0  0  0
    9.7065  -41.0703   16.7450 C   0  0  1  0  0  0  0  0  0  0  0  0
    9.9540  -42.1956   17.6072 O   0  0  0  0  0  0  0  0  0  0  0  0
   11.3295  -36.0845   13.8470 C   0  0  1  0  0  0  0  0  0  0  0  0
   10.2148  -35.2022   14.0295 O   0  0  0  0  0  0  0  0  0  0  0  0
    2.0892  -42.9963    9.9416 C   0  0  2  0  0  0  0  0  0  0  0  0
    2.6961  -41.7675    9.5544 O   0  0  0  0  0  0  0  0  0  0  0  0
    4.2145  -47.1896   11.2103 C   0  0  2  0  0  0  0  0  0  0  0  0
    7.4758  -45.4165   14.3996 C   0  0  2  0  0  0  0  0  0  0  0  0
    6.4309  -46.0718   13.6952 O   0  0  0  0  0  0  0  0  0  0  0  0
   11.0820  -40.7969   15.9403 C   0  0  2  0  0  0  0  0  0  0  0  0
   10.7930  -39.6580   15.1079 O   0  0  0  0  0  0  0  0  0  0  0  0
   12.5122  -35.5758   14.7032 C   0  0  2  0  0  0  0  0  0  0  0  0
   13.3682  -34.8480   13.7954 O   0  0  0  0  0  0  0  0  0  0  0  0
    2.7946  -43.5597   11.2084 C   0  0  2  0  0  0  0  0  0  0  0  0
    2.1250  -44.8240   11.5859 O   0  0  0  0  0  0  0  0  0  0  0  0
    3.8652  -46.9565   12.7118 C   0  0  2  0  0  0  0  0  0  0  0  0
    4.2408  -45.5975   13.0406 O   0  0  0  0  0  0  0  0  0  0  0  0
    7.7555  -46.1983   15.6782 C   0  0  0  0  0  0  0  0  0  0  0  0
    8.4773  -45.3226   16.5575 O   0  0  0  0  0  0  0  0  0  0  0  0
   11.2823  -42.0082   15.0492 C   0  0  1  0  0  0  0  0  0  0  0  0
   10.2566  -42.5978   14.2231 O   0  0  0  0  0  0  0  0  0  0  0  0
   13.2146  -36.7320   15.4099 C   0  0  2  0  0  0  0  0  0  0  0  0
   12.3326  -37.6162   16.1554 O   0  0  0  0  0  0  0  0  0  0  0  0
    2.7009  -42.6206   12.3688 C   0  0  0  0  0  0  0  0  0  0  0  0
    3.2583  -41.3942   11.9805 O   0  0  0  0  0  0  0  0  0  0  0  0
    4.6286  -47.9956   13.6119 C   0  0  1  0  0  0  0  0  0  0  0  0
    4.2356  -47.7795   15.0113 O   0  0  0  0  0  0  0  0  0  0  0  0
   12.5607  -41.9060   14.1438 C   0  0  0  0  0  0  0  0  0  0  0  0
   12.6664  -42.9919   13.1394 N   0  0  0  0  0  0  0  0  0  0  0  0
   14.4126  -36.5092   16.3302 C   0  0  0  0  0  0  0  0  0  0  0  0
   15.3143  -35.5121   15.7583 O   0  0  0  0  0  0  0  0  0  0  0  0
  1  2  1  6  0  0  0
  1  8  1  0  0  0  0
  1 36  1  0  0  0  0
  3  4  1  1  0  0  0
  3 10  1  0  0  0  0
  3 47  1  0  0  0  0
  5 11  1  0  0  0  0
  5 30  1  0  0  0  0
  5 38  1  1  0  0  0
  6 21  1  6  0  0  0
  6 42  1  0  0  0  0
  7 15  1  0  0  0  0
  7 44  1  0  0  0  0
  7 32  1  6  0  0  0
  8  9  1  6  0  0  0
  8 17  1  0  0  0  0
 11 12  1  6  0  0  0
 11 20  1  0  0  0  0
 13  6  1  0  0  0  0
 13 14  1  6  0  0  0
 15 16  1  1  0  0  0
 15 24  1  0  0  0  0
 17 26  1  0  0  0  0
 18 10  1  0  0  0  0
 18 19  1  6  0  0  0
 20 21  1  6  0  0  0
 20 29  1  0  0  0  0
 22 13  1  0  0  0  0
 22 23  1  1  0  0  0
 24 25  1  1  0  0  0
 24 33  1  0  0  0  0
 26 27  1  6  0  0  0
 26 35  1  0  0  0  0
 28  2  1  6  0  0  0
 28 18  1  0  0  0  0
 29 30  1  0  0  0  0
 29 39  1  1  0  0  0
 31 22  1  0  0  0  0
 31 32  1  6  0  0  0
 31 41  1  0  0  0  0
 33 34  1  6  0  0  0
 33 43  1  0  0  0  0
 35 36  1  0  0  0  0
 35 45  1  1  0  0  0
 37 28  1  0  0  0  0
 37 38  1  1  0  0  0
 39 40  1  0  0  0  0
 41 42  1  0  0  0  0
 41 49  1  6  0  0  0
 43 44  1  0  0  0  0
 43 51  1  1  0  0  0
 45 46  1  0  0  0  0
 47 37  1  0  0  0  0
 47 48  1  1  0  0  0
 49 50  1  0  0  0  0
 51 52  1  0  0  0  0
M  END
>  <CHROM.1>
-159.96907829,-162.32190684,-91.68952085,167.36514307,158.93576134,88.17639541
-47.92268749,90.14483679,-57.11166579,-65.48191099,-172.06827952,-41.19079130
7.32002944,-42.79913467,13.44666750,2.52976660,0.61664175,2.84239152

>  <Name>
2fd0_lig

>  <RI>
2.60878e+07

>  <Rbt.Current_Directory>
/home/itssahil/PROJECTS/Mol_Feturizer/New_Systems/rnas/2fd0

>  <Rbt.Executable>
rbdock ($Id: //depot/dev/client3/rdock/2013.1/src/exe/rbdock.cxx#4 $)

>  <Rbt.Library>
libRbt.so (2013.1, Build901 2013/11/27)

>  <Rbt.Parameter_File>
/export/apps/rDock/src/rDock_2013.1_src/data/scripts/dock_solv.prm

>  <Rbt.Receptor>
prm/blind_docking_80.prm

>  <SCORE>
-2.5932

>  <SCORE.INTER>
-5.80723

>  <SCORE.INTER.CONST>
1

>  <SCORE.INTER.POLAR>
-1.31431

>  <SCORE.INTER.ROT>
12

>  <SCORE.INTER.SOLV>
22.6174

>  <SCORE.INTER.VDW>
-18.6296

>  <SCORE.INTER.norm>
-0.111678

>  <SCORE.INTRA>
0.0443941

>  <SCORE.INTRA.DIHEDRAL>
-3.93068

>  <SCORE.INTRA.DIHEDRAL.0>
23.9727

>  <SCORE.INTRA.POLAR>
0

>  <SCORE.INTRA.POLAR.0>
0

>  <SCORE.INTRA.REPUL>
0

>  <SCORE.INTRA.REPUL.0>
0

>  <SCORE.INTRA.SOLV>
-0.569708

>  <SCORE.INTRA.SOLV.lig_0>
-115.028

>  <SCORE.INTRA.VDW>
2.29459

>  <SCORE.INTRA.VDW.0>
-6.82393

>  <SCORE.INTRA.norm>
0.000853732

>  <SCORE.RESTR>
3.16964

>  <SCORE.RESTR.CAVITY>
3.16964

>  <SCORE.RESTR.norm>
0.0609545

>  <SCORE.SYSTEM>
0

>  <SCORE.SYSTEM.CONST>
0

>  <SCORE.SYSTEM.DIHEDRAL>
0

>  <SCORE.SYSTEM.SOLV>
0

>  <SCORE.SYSTEM.norm>
0

>  <SCORE.heavy>
52

>  <SCORE.norm>
-0.0498693

>  <RMSD>
14.612

$$$$
2fd0_lig
 OpenBabel11021811433D
libRbt.so/2013.1/901 2013/11/27
 52 56  0  0  0  0  0  0  0  0999 V2000
    4.8300  -43.9597   10.8212 C   0  0  2  0  0  0  0  0  0  0  0  0
    4.5354  -44.6993   12.0142 O   0  0  0  0  0  0  0  0  0  0  0  0
    5.7425  -48.4648   13.8188 C   0  0  2  0  0  0  0  0  0  0  0  0
    6.5756  -49.5683   14.3240 N   0  0  0  0  0  0  0  0  0  0  0  0
    6.6414  -43.9414   14.3605 C   0  0  1  0  0  0  0  0  0  0  0  0
   10.0347  -42.5000   13.2205 C   0  0  1  0  0  0  0  0  0  0  0  0
   11.8623  -37.9833   15.0457 C   0  0  1  0  0  0  0  0  0  0  0  0
    4.2845  -42.4953   10.9933 C   0  0  2  0  0  0  0  0  0  0  0  0
    4.8433  -41.8430   12.1693 N   0  0  0  0  0  0  0  0  0  0  0  0
    6.0277  -48.2210   12.2722 C   0  0  0  0  0  0  0  0  0  0  0  0
    7.8628  -44.7554   14.7465 C   0  0  2  0  0  0  0  0  0  0  0  0
    8.3663  -44.4027   16.0657 O   0  0  0  0  0  0  0  0  0  0  0  0
   11.4895  -41.9297   13.5638 C   0  0  2  0  0  0  0  0  0  0  0  0
   11.6674  -41.8064   15.0364 N   0  0  0  0  0  0  0  0  0  0  0  0
   10.7151  -37.1203   15.6175 C   0  0  1  0  0  0  0  0  0  0  0  0
   10.1971  -37.7553   16.8126 O   0  0  0  0  0  0  0  0  0  0  0  0
    2.7113  -42.4979   11.0324 C   0  0  0  0  0  0  0  0  0  0  0  0
    5.1114  -47.0264   11.7217 C   0  0  2  0  0  0  0  0  0  0  0  0
    5.3578  -46.7787   10.2935 N   0  0  0  0  0  0  0  0  0  0  0  0
    8.8116  -44.5167   13.5840 C   0  0  2  0  0  0  0  0  0  0  0  0
    9.8741  -43.6799   13.9525 O   0  0  0  0  0  0  0  0  0  0  0  0
   11.6822  -40.5636   12.7227 C   0  0  1  0  0  0  0  0  0  0  0  0
   11.4888  -40.8688   11.3297 O   0  0  0  0  0  0  0  0  0  0  0  0
   11.0354  -35.6397   15.9585 C   0  0  1  0  0  0  0  0  0  0  0  0
   11.4097  -35.5760   17.3405 O   0  0  0  0  0  0  0  0  0  0  0  0
    2.1836  -43.2024    9.7401 C   0  0  2  0  0  0  0  0  0  0  0  0
    0.7595  -43.2091    9.7283 O   0  0  0  0  0  0  0  0  0  0  0  0
    5.4018  -45.7407   12.5452 C   0  0  2  0  0  0  0  0  0  0  0  0
    8.0533  -43.7483   12.4754 C   0  0  2  0  0  0  0  0  0  0  0  0
    6.7177  -43.7498   12.9586 O   0  0  0  0  0  0  0  0  0  0  0  0
   10.5692  -39.4562   13.1091 C   0  0  2  0  0  0  0  0  0  0  0  0
   10.8115  -39.1708   14.4996 O   0  0  0  0  0  0  0  0  0  0  0  0
   12.1429  -34.9712   15.1116 C   0  0  2  0  0  0  0  0  0  0  0  0
   11.6700  -33.6352   14.8326 O   0  0  0  0  0  0  0  0  0  0  0  0
    2.7210  -44.6613    9.6899 C   0  0  2  0  0  0  0  0  0  0  0  0
    4.1997  -44.6089    9.6869 O   0  0  0  0  0  0  0  0  0  0  0  0
    5.1923  -45.9445   14.0767 C   0  0  2  0  0  0  0  0  0  0  0  0
    5.5346  -44.7000   14.7327 O   0  0  0  0  0  0  0  0  0  0  0  0
    8.0671  -44.4121   11.1030 C   0  0  0  0  0  0  0  0  0  0  0  0
    7.5700  -43.4469   10.1637 O   0  0  0  0  0  0  0  0  0  0  0  0
    9.2313  -40.1609   12.9866 C   0  0  1  0  0  0  0  0  0  0  0  0
    8.9378  -41.4649   13.5303 O   0  0  0  0  0  0  0  0  0  0  0  0
   12.4416  -35.7875   13.8570 C   0  0  2  0  0  0  0  0  0  0  0  0
   12.7041  -37.1980   14.0962 O   0  0  0  0  0  0  0  0  0  0  0  0
    2.2798  -45.3809    8.4552 C   0  0  0  0  0  0  0  0  0  0  0  0
    2.6290  -46.7318    8.5922 O   0  0  0  0  0  0  0  0  0  0  0  0
    6.0889  -47.1292   14.5918 C   0  0  1  0  0  0  0  0  0  0  0  0
    5.8267  -47.3251   16.0244 O   0  0  0  0  0  0  0  0  0  0  0  0
    8.0135  -39.2481   13.3715 C   0  0  0  0  0  0  0  0  0  0  0  0
    8.2939  -38.3265   14.4991 N   0  0  0  0  0  0  0  0  0  0  0  0
   13.5037  -35.3587   12.8471 C   0  0  0  0  0  0  0  0  0  0  0  0
   13.3583  -33.9405   12.5279 O   0  0  0  0  0  0  0  0  0  0  0  0
  1  2  1  1  0  0  0
  1  8  1  0  0  0  0
  1 36  1  0  0  0  0
  3  4  1  1  0  0  0
  3 10  1  0  0  0  0
  3 47  1  0  0  0  0
  5 11  1  0  0  0  0
  5 30  1  0  0  0  0
  5 38  1  6  0  0  0
  6 21  1  1  0  0  0
  6 42  1  0  0  0  0
  7 15  1  0  0  0  0
  7 44  1  0  0  0  0
  7 32  1  6  0  0  0
  8  9  1  1  0  0  0
  8 17  1  0  0  0  0
 11 12  1  1  0  0  0
 11 20  1  0  0  0  0
 13  6  1  0  0  0  0
 13 14  1  1  0  0  0
 15 16  1  1  0  0  0
 15 24  1  0  0  0  0
 17 26  1  0  0  0  0
 18 10  1  0  0  0  0
 18 19  1  6  0  0  0
 20 21  1  1  0  0  0
 20 29  1  0  0  0  0
 22 13  1  0  0  0  0
 22 23  1  6  0  0  0
 24 25  1  1  0  0  0
 24 33  1  0  0  0  0
 26 27  1  1  0  0  0
 26 35  1  0  0  0  0
 28  2  1  6  0  0  0
 28 18  1  0  0  0  0
 29 30  1  0  0  0  0
 29 39  1  6  0  0  0
 31 22  1  0  0  0  0
 31 32  1  1  0  0  0
 31 41  1  0  0  0  0
 33 34  1  6  0  0  0
 33 43  1  0  0  0  0
 35 36  1  0  0  0  0
 35 45  1  6  0  0  0
 37 28  1  0  0  0  0
 37 38  1  1  0  0  0
 39 40  1  0  0  0  0
 41 42  1  0  0  0  0
 41 49  1  1  0  0  0
 43 44  1  0  0  0  0
 43 51  1  1  0  0  0
 45 46  1  0  0  0  0
 47 37  1  0  0  0  0
 47 48  1  1  0  0  0
 49 50  1  0  0  0  0
 51 52  1  0  0  0  0
M  END
>  <CHROM.1>
-146.26235294,-67.90598972,-165.65082328,112.35424829,-121.96277936,-80.35960642
-168.35384226,89.35877620,-170.97225528,-41.69262301,-36.70810776,-46.91012782
7.85665122,-42.10399487,13.05582651,2.46535760,0.68405300,2.78797768

>  <Name>
2fd0_lig

>  <RI>
2.60878e+07

>  <Rbt.Current_Directory>
/home/itssahil/PROJECTS/Mol_Feturizer/New_Systems/rnas/2fd0

>  <Rbt.Executable>
rbdock ($Id: //depot/dev/client3/rdock/2013.1/src/exe/rbdock.cxx#4 $)

>  <Rbt.Library>
libRbt.so (2013.1, Build901 2013/11/27)

>  <Rbt.Parameter_File>
/export/apps/rDock/src/rDock_2013.1_src/data/scripts/dock_solv.prm

>  <Rbt.Receptor>
prm/blind_docking_80.prm

>  <SCORE>
9.33162

>  <SCORE.INTER>
-11.9507

>  <SCORE.INTER.CONST>
1

>  <SCORE.INTER.POLAR>
-2.48303

>  <SCORE.INTER.ROT>
12

>  <SCORE.INTER.SOLV>
23.6993

>  <SCORE.INTER.VDW>
-19.1901

>  <SCORE.INTER.norm>
-0.229821

>  <SCORE.INTRA>
19.1085

>  <SCORE.INTRA.DIHEDRAL>
6.30732

>  <SCORE.INTRA.DIHEDRAL.0>
23.9727

>  <SCORE.INTRA.POLAR>
0

>  <SCORE.INTRA.POLAR.0>
0

>  <SCORE.INTRA.REPUL>
0.0175371

>  <SCORE.INTRA.REPUL.0>
0

>  <SCORE.INTRA.SOLV>
8.37681

>  <SCORE.INTRA.SOLV.lig_0>
-115.028

>  <SCORE.INTRA.VDW>
11.6787

>  <SCORE.INTRA.VDW.0>
-6.82393

>  <SCORE.INTRA.norm>
0.367471

>  <SCORE.RESTR>
2.17381

>  <SCORE.RESTR.CAVITY>
2.17381

>  <SCORE.RESTR.norm>
0.0418041

>  <SCORE.SYSTEM>
0

>  <SCORE.SYSTEM.CONST>
0

>  <SCORE.SYSTEM.DIHEDRAL>
0

>  <SCORE.SYSTEM.SOLV>
0

>  <SCORE.SYSTEM.norm>
0

>  <SCORE.heavy>
52

>  <SCORE.norm>
0.179454

>  <RMSD>
14.628

$$$$
2fd0_lig
 OpenBabel11021811433D
libRbt.so/2013.1/901 2013/11/27
 52 56  0  0  0  0  0  0  0  0999 V2000
   13.1461  -33.7582   16.5026 C   0  0  2  0  0  0  0  0  0  0  0  0
   11.9317  -34.4408   16.8434 O   0  0  0  0  0  0  0  0  0  0  0  0
   12.6621  -35.7668   20.9178 C   0  0  2  0  0  0  0  0  0  0  0  0
   12.4488  -36.3045   22.2714 N   0  0  0  0  0  0  0  0  0  0  0  0
   10.9633  -37.9996   17.4586 C   0  0  1  0  0  0  0  0  0  0  0  0
    8.9652  -40.8523   15.0817 C   0  0  1  0  0  0  0  0  0  0  0  0
    5.2778  -43.9340   13.2829 C   0  0  1  0  0  0  0  0  0  0  0  0
   13.0305  -33.2411   15.0224 C   0  0  2  0  0  0  0  0  0  0  0  0
   11.8716  -32.3787   14.8380 N   0  0  0  0  0  0  0  0  0  0  0  0
   11.7243  -34.5049   20.6707 C   0  0  0  0  0  0  0  0  0  0  0  0
   10.9814  -38.9729   16.2941 C   0  0  2  0  0  0  0  0  0  0  0  0
   10.3022  -38.4425   15.1214 O   0  0  0  0  0  0  0  0  0  0  0  0
    7.6518  -40.1404   14.5095 C   0  0  2  0  0  0  0  0  0  0  0  0
    6.4790  -40.4337   15.3777 N   0  0  0  0  0  0  0  0  0  0  0  0
    4.2124  -43.5472   14.3330 C   0  0  1  0  0  0  0  0  0  0  0  0
    3.3600  -42.5130   13.7819 O   0  0  0  0  0  0  0  0  0  0  0  0
   13.0086  -34.4531   14.0189 C   0  0  0  0  0  0  0  0  0  0  0  0
   11.9663  -33.9146   19.2002 C   0  0  2  0  0  0  0  0  0  0  0  0
   11.1088  -32.7478   18.9451 N   0  0  0  0  0  0  0  0  0  0  0  0
   10.3866  -40.2346   16.8965 C   0  0  2  0  0  0  0  0  0  0  0  0
    9.0892  -40.4683   16.4200 O   0  0  0  0  0  0  0  0  0  0  0  0
    7.5001  -40.5813   12.9624 C   0  0  1  0  0  0  0  0  0  0  0  0
    8.7098  -40.2135   12.2751 O   0  0  0  0  0  0  0  0  0  0  0  0
    3.3031  -44.6805   14.8805 C   0  0  1  0  0  0  0  0  0  0  0  0
    2.1132  -44.7162   14.0823 O   0  0  0  0  0  0  0  0  0  0  0  0
   14.2816  -35.3264   14.2672 C   0  0  2  0  0  0  0  0  0  0  0  0
   14.3088  -36.4271   13.3638 O   0  0  0  0  0  0  0  0  0  0  0  0
   11.6823  -35.0263   18.1519 C   0  0  2  0  0  0  0  0  0  0  0  0
   10.2294  -40.0288   18.4221 C   0  0  2  0  0  0  0  0  0  0  0  0
   10.8855  -38.7870   18.6341 O   0  0  0  0  0  0  0  0  0  0  0  0
    7.3513  -42.1836   12.8046 C   0  0  2  0  0  0  0  0  0  0  0  0
    6.1249  -42.5014   13.4892 O   0  0  0  0  0  0  0  0  0  0  0  0
    3.9245  -46.0959   14.9109 C   0  0  2  0  0  0  0  0  0  0  0  0
    3.5038  -46.6816   16.1625 O   0  0  0  0  0  0  0  0  0  0  0  0
   14.2756  -35.8446   15.7339 C   0  0  2  0  0  0  0  0  0  0  0  0
   14.2642  -34.6730   16.6375 O   0  0  0  0  0  0  0  0  0  0  0  0
   12.5368  -36.3093   18.3858 C   0  0  2  0  0  0  0  0  0  0  0  0
   12.1518  -37.2782   17.3813 O   0  0  0  0  0  0  0  0  0  0  0  0
   10.9070  -41.0831   19.2902 C   0  0  0  0  0  0  0  0  0  0  0  0
   12.2873  -40.7063   19.4095 O   0  0  0  0  0  0  0  0  0  0  0  0
    8.5081  -42.7806   13.5836 C   0  0  1  0  0  0  0  0  0  0  0  0
    8.8933  -42.3813   14.9156 O   0  0  0  0  0  0  0  0  0  0  0  0
    5.4405  -46.0327   14.7455 C   0  0  2  0  0  0  0  0  0  0  0  0
    5.8969  -45.2530   13.6056 O   0  0  0  0  0  0  0  0  0  0  0  0
   15.4896  -36.6603   16.0471 C   0  0  0  0  0  0  0  0  0  0  0  0
   16.6143  -35.9551   15.5960 O   0  0  0  0  0  0  0  0  0  0  0  0
   12.2950  -36.8623   19.8378 C   0  0  1  0  0  0  0  0  0  0  0  0
   13.1535  -38.0378   20.0392 O   0  0  0  0  0  0  0  0  0  0  0  0
    8.5080  -44.3504   13.5860 C   0  0  0  0  0  0  0  0  0  0  0  0
    9.8474  -44.9448   13.8147 N   0  0  0  0  0  0  0  0  0  0  0  0
    6.3054  -47.2911   14.7288 C   0  0  0  0  0  0  0  0  0  0  0  0
    7.6986  -46.9541   15.0111 O   0  0  0  0  0  0  0  0  0  0  0  0
  1  2  1  6  0  0  0
  1  8  1  0  0  0  0
  1 36  1  0  0  0  0
  3  4  1  1  0  0  0
  3 10  1  0  0  0  0
  3 47  1  0  0  0  0
  5 11  1  0  0  0  0
  5 30  1  0  0  0  0
  5 38  1  1  0  0  0
  6 21  1  1  0  0  0
  6 42  1  0  0  0  0
  7 15  1  0  0  0  0
  7 44  1  0  0  0  0
  7 32  1  1  0  0  0
  8  9  1  1  0  0  0
  8 17  1  0  0  0  0
 11 12  1  6  0  0  0
 11 20  1  0  0  0  0
 13  6  1  0  0  0  0
 13 14  1  1  0  0  0
 15 16  1  6  0  0  0
 15 24  1  0  0  0  0
 17 26  1  0  0  0  0
 18 10  1  0  0  0  0
 18 19  1  6  0  0  0
 20 21  1  6  0  0  0
 20 29  1  0  0  0  0
 22 13  1  0  0  0  0
 22 23  1  6  0  0  0
 24 25  1  6  0  0  0
 24 33  1  0  0  0  0
 26 27  1  6  0  0  0
 26 35  1  0  0  0  0
 28  2  1  6  0  0  0
 28 18  1  0  0  0  0
 29 30  1  0  0  0  0
 29 39  1  1  0  0  0
 31 22  1  0  0  0  0
 31 32  1  1  0  0  0
 31 41  1  0  0  0  0
 33 34  1  1  0  0  0
 33 43  1  0  0  0  0
 35 36  1  0  0  0  0
 35 45  1  1  0  0  0
 37 28  1  0  0  0  0
 37 38  1  6  0  0  0
 39 40  1  0  0  0  0
 41 42  1  0  0  0  0
 41 49  1  1  0  0  0
 43 44  1  0  0  0  0
 43 51  1  6  0  0  0
 45 46  1  0  0  0  0
 47 37  1  0  0  0  0
 47 48  1  1  0  0  0
 49 50  1  0  0  0  0
 51 52  1  0  0  0  0
M  END
>  <CHROM.1>
-178.73141241,-175.65978404,-142.31600652,177.67542174,70.08040958,51.92887602
83.01984588,162.45252383,47.93470494,-76.05140876,155.72823663,-160.92129166
9.79212280,-39.57938973,16.03379499,-0.13676519,-0.90595819,-1.42396001

>  <Name>
2fd0_lig

>  <RI>
2.85265e+07

>  <Rbt.Current_Directory>
/home/itssahil/PROJECTS/Mol_Feturizer/New_Systems/rnas/2fd0

>  <Rbt.Executable>
rbdock ($Id: //depot/dev/client3/rdock/2013.1/src/exe/rbdock.cxx#4 $)

>  <Rbt.Library>
libRbt.so (2013.1, Build901 2013/11/27)

>  <Rbt.Parameter_File>
/export/apps/rDock/src/rDock_2013.1_src/data/scripts/dock_solv.prm

>  <Rbt.Receptor>
prm/blind_docking_60.prm

>  <SCORE>
-4.51534

>  <SCORE.INTER>
-5.23795

>  <SCORE.INTER.CONST>
1

>  <SCORE.INTER.POLAR>
-0.245998

>  <SCORE.INTER.ROT>
12

>  <SCORE.INTER.SOLV>
25.0604

>  <SCORE.INTER.VDW>
-22.6254

>  <SCORE.INTER.norm>
-0.10073

>  <SCORE.INTRA>
-2.73181

>  <SCORE.INTRA.DIHEDRAL>
-9.25551

>  <SCORE.INTRA.DIHEDRAL.0>
23.9727

>  <SCORE.INTRA.POLAR>
0

>  <SCORE.INTRA.POLAR.0>
0

>  <SCORE.INTRA.REPUL>
0.00936614

>  <SCORE.INTRA.REPUL.0>
0

>  <SCORE.INTRA.SOLV>
-1.39772

>  <SCORE.INTRA.SOLV.lig_0>
-115.028

>  <SCORE.INTRA.VDW>
2.54798

>  <SCORE.INTRA.VDW.0>
-6.82393

>  <SCORE.INTRA.norm>
-0.0525347

>  <SCORE.RESTR>
3.45441

>  <SCORE.RESTR.CAVITY>
3.45441

>  <SCORE.RESTR.norm>
0.066431

>  <SCORE.SYSTEM>
0

>  <SCORE.SYSTEM.CONST>
0

>  <SCORE.SYSTEM.DIHEDRAL>
0

>  <SCORE.SYSTEM.SOLV>
0

>  <SCORE.SYSTEM.norm>
0

>  <SCORE.heavy>
52

>  <SCORE.norm>
-0.0868335

>  <RMSD>
14.647

$$$$
2fd0_lig
 OpenBabel11021811433D
libRbt.so/2013.1/901 2013/11/27
 52 56  0  0  0  0  0  0  0  0999 V2000
   13.6411  -33.6539   13.9432 C   0  0  2  0  0  0  0  0  0  0  0  0
   12.3904  -34.3277   14.1405 O   0  0  0  0  0  0  0  0  0  0  0  0
   11.9246  -34.3479   18.4620 C   0  0  2  0  0  0  0  0  0  0  0  0
   11.3221  -34.4426   19.8018 N   0  0  0  0  0  0  0  0  0  0  0  0
   11.0504  -37.6375   15.6588 C   0  0  1  0  0  0  0  0  0  0  0  0
    9.3215  -40.9629   13.6675 C   0  0  1  0  0  0  0  0  0  0  0  0
    8.4523  -46.1181   12.6574 C   0  0  1  0  0  0  0  0  0  0  0  0
   14.2087  -34.0562   12.5334 C   0  0  2  0  0  0  0  0  0  0  0  0
   13.2702  -33.7495   11.4630 N   0  0  0  0  0  0  0  0  0  0  0  0
   11.2026  -33.2134   17.6108 C   0  0  0  0  0  0  0  0  0  0  0  0
   11.1725  -38.7623   14.6470 C   0  0  2  0  0  0  0  0  0  0  0  0
   10.5198  -38.4430   13.3860 O   0  0  0  0  0  0  0  0  0  0  0  0
    7.9125  -41.7133   13.5624 C   0  0  2  0  0  0  0  0  0  0  0  0
    7.7042  -42.5994   14.7400 N   0  0  0  0  0  0  0  0  0  0  0  0
    7.0542  -45.7862   12.0891 C   0  0  1  0  0  0  0  0  0  0  0  0
    7.2084  -45.1637   10.7897 O   0  0  0  0  0  0  0  0  0  0  0  0
   14.6162  -35.5762   12.5205 C   0  0  0  0  0  0  0  0  0  0  0  0
   11.8675  -33.1047   16.1564 C   0  0  2  0  0  0  0  0  0  0  0  0
   11.2160  -32.0639   15.3475 N   0  0  0  0  0  0  0  0  0  0  0  0
   10.6186  -39.9594   15.4011 C   0  0  2  0  0  0  0  0  0  0  0  0
    9.3583  -40.3336   14.9150 O   0  0  0  0  0  0  0  0  0  0  0  0
    7.8630  -42.4457   12.1229 C   0  0  1  0  0  0  0  0  0  0  0  0
    8.0687  -41.4457   11.1086 O   0  0  0  0  0  0  0  0  0  0  0  0
    6.0439  -46.9566   11.9462 C   0  0  1  0  0  0  0  0  0  0  0  0
    6.1618  -47.4818   10.6178 O   0  0  0  0  0  0  0  0  0  0  0  0
   15.6280  -35.8291   13.6854 C   0  0  2  0  0  0  0  0  0  0  0  0
   16.0366  -37.1933   13.6967 O   0  0  0  0  0  0  0  0  0  0  0  0
   11.7604  -34.4814   15.4431 C   0  0  2  0  0  0  0  0  0  0  0  0
   10.3821  -39.5505   16.8747 C   0  0  2  0  0  0  0  0  0  0  0  0
   10.9613  -38.2548   16.9311 O   0  0  0  0  0  0  0  0  0  0  0  0
    9.0564  -43.5234   11.9540 C   0  0  2  0  0  0  0  0  0  0  0  0
    8.8004  -44.5082   12.9730 O   0  0  0  0  0  0  0  0  0  0  0  0
    6.2005  -48.1171   12.9559 C   0  0  2  0  0  0  0  0  0  0  0  0
    4.8578  -48.4845   13.3415 O   0  0  0  0  0  0  0  0  0  0  0  0
   14.9577  -35.4653   15.0411 C   0  0  2  0  0  0  0  0  0  0  0  0
   14.5643  -34.0397   14.9940 O   0  0  0  0  0  0  0  0  0  0  0  0
   12.4037  -35.6392   16.2656 C   0  0  2  0  0  0  0  0  0  0  0  0
   12.2014  -36.8656   15.5233 O   0  0  0  0  0  0  0  0  0  0  0  0
   11.0746  -40.4305   17.9093 C   0  0  0  0  0  0  0  0  0  0  0  0
   10.6538  -41.7807   17.6626 O   0  0  0  0  0  0  0  0  0  0  0  0
   10.3311  -42.7813   12.3089 C   0  0  1  0  0  0  0  0  0  0  0  0
   10.4948  -41.9401   13.4698 O   0  0  0  0  0  0  0  0  0  0  0  0
    7.0823  -47.7054   14.1317 C   0  0  2  0  0  0  0  0  0  0  0  0
    8.3609  -47.1209   13.7589 O   0  0  0  0  0  0  0  0  0  0  0  0
   15.8887  -35.6517   16.1968 C   0  0  0  0  0  0  0  0  0  0  0  0
   17.0651  -34.9389   15.9255 O   0  0  0  0  0  0  0  0  0  0  0  0
   11.7471  -35.7181   17.6923 C   0  0  1  0  0  0  0  0  0  0  0  0
   12.4126  -36.7836   18.4547 O   0  0  0  0  0  0  0  0  0  0  0  0
   11.6121  -43.6866   12.2471 C   0  0  0  0  0  0  0  0  0  0  0  0
   12.8612  -42.9753   12.6118 N   0  0  0  0  0  0  0  0  0  0  0  0
    7.4105  -48.6668   15.2718 C   0  0  0  0  0  0  0  0  0  0  0  0
    7.9925  -47.9401   16.3978 O   0  0  0  0  0  0  0  0  0  0  0  0
  1  2  1  1  0  0  0
  1  8  1  0  0  0  0
  1 36  1  0  0  0  0
  3  4  1  1  0  0  0
  3 10  1  0  0  0  0
  3 47  1  0  0  0  0
  5 11  1  0  0  0  0
  5 30  1  0  0  0  0
  5 38  1  1  0  0  0
  6 21  1  1  0  0  0
  6 42  1  0  0  0  0
  7 15  1  0  0  0  0
  7 44  1  0  0  0  0
  7 32  1  1  0  0  0
  8  9  1  6  0  0  0
  8 17  1  0  0  0  0
 11 12  1  6  0  0  0
 11 20  1  0  0  0  0
 13  6  1  0  0  0  0
 13 14  1  1  0  0  0
 15 16  1  6  0  0  0
 15 24  1  0  0  0  0
 17 26  1  0  0  0  0
 18 10  1  0  0  0  0
 18 19  1  6  0  0  0
 20 21  1  6  0  0  0
 20 29  1  0  0  0  0
 22 13  1  0  0  0  0
 22 23  1  6  0  0  0
 24 25  1  6  0  0  0
 24 33  1  0  0  0  0
 26 27  1  1  0  0  0
 26 35  1  0  0  0  0
 28  2  1  6  0  0  0
 28 18  1  0  0  0  0
 29 30  1  0  0  0  0
 29 39  1  1  0  0  0
 31 22  1  0  0  0  0
 31 32  1  1  0  0  0
 31 41  1  0  0  0  0
 33 34  1  1  0  0  0
 33 43  1  0  0  0  0
 35 36  1  0  0  0  0
 35 45  1  1  0  0  0
 37 28  1  0  0  0  0
 37 38  1  6  0  0  0
 39 40  1  0  0  0  0
 41 42  1  0  0  0  0
 41 49  1  1  0  0  0
 43 44  1  0  0  0  0
 43 51  1  1  0  0  0
 45 46  1  0  0  0  0
 47 37  1  0  0  0  0
 47 48  1  1  0  0  0
 49 50  1  0  0  0  0
 51 52  1  0  0  0  0
M  END
>  <CHROM.1>
163.01021458,175.65300556,161.26761878,-70.60441318,72.85061329,44.40720033
-55.39540249,117.14669409,53.20975241,-87.22033536,-179.15062662,-166.64096973
10.70607501,-39.94787094,14.47926540,-0.59240928,-0.99835376,-2.03272122

>  <Name>
2fd0_lig

>  <RI>
2.85265e+07

>  <Rbt.Current_Directory>
/home/itssahil/PROJECTS/Mol_Feturizer/New_Systems/rnas/2fd0

>  <Rbt.Executable>
rbdock ($Id: //depot/dev/client3/rdock/2013.1/src/exe/rbdock.cxx#4 $)

>  <Rbt.Library>
libRbt.so (2013.1, Build901 2013/11/27)

>  <Rbt.Parameter_File>
/export/apps/rDock/src/rDock_2013.1_src/data/scripts/dock_solv.prm

>  <Rbt.Receptor>
prm/blind_docking_60.prm

>  <SCORE>
-12.4716

>  <SCORE.INTER>
-13.4533

>  <SCORE.INTER.CONST>
1

>  <SCORE.INTER.POLAR>
-0.898796

>  <SCORE.INTER.ROT>
12

>  <SCORE.INTER.SOLV>
26.585

>  <SCORE.INTER.VDW>
-26.4346

>  <SCORE.INTER.norm>
-0.258717

>  <SCORE.INTRA>
-0.329301

>  <SCORE.INTRA.DIHEDRAL>
-6.12313

>  <SCORE.INTRA.DIHEDRAL.0>
23.9727

>  <SCORE.INTRA.POLAR>
0

>  <SCORE.INTRA.POLAR.0>
0

>  <SCORE.INTRA.REPUL>
0

>  <SCORE.INTRA.REPUL.0>
0

>  <SCORE.INTRA.SOLV>
-3.18014

>  <SCORE.INTRA.SOLV.lig_0>
-115.028

>  <SCORE.INTRA.VDW>
4.32233

>  <SCORE.INTRA.VDW.0>
-6.82393

>  <SCORE.INTRA.norm>
-0.00633272

>  <SCORE.RESTR>
1.311

>  <SCORE.RESTR.CAVITY>
1.311

>  <SCORE.RESTR.norm>
0.0252116

>  <SCORE.SYSTEM>
0

>  <SCORE.SYSTEM.CONST>
0

>  <SCORE.SYSTEM.DIHEDRAL>
0

>  <SCORE.SYSTEM.SOLV>
0

>  <SCORE.SYSTEM.norm>
0

>  <SCORE.heavy>
52

>  <SCORE.norm>
-0.239839

>  <RMSD>
14.657

$$$$
2fd0_lig
 OpenBabel11021811433D
libRbt.so/2013.1/901 2013/11/27
 52 56  0  0  0  0  0  0  0  0999 V2000
   11.9212  -35.2241   15.5394 C   0  0  2  0  0  0  0  0  0  0  0  0
   12.3781  -35.6792   16.8204 O   0  0  0  0  0  0  0  0  0  0  0  0
   11.4357  -39.0818   19.3555 C   0  0  2  0  0  0  0  0  0  0  0  0
   10.7168  -39.9919   20.2620 N   0  0  0  0  0  0  0  0  0  0  0  0
   10.1285  -38.8226   15.0527 C   0  0  1  0  0  0  0  0  0  0  0  0
    7.7231  -40.5378   13.6951 C   0  0  1  0  0  0  0  0  0  0  0  0
    8.1722  -45.5206   14.6932 C   0  0  1  0  0  0  0  0  0  0  0  0
   12.9384  -34.1553   14.9966 C   0  0  2  0  0  0  0  0  0  0  0  0
   14.2918  -34.6867   14.9152 N   0  0  0  0  0  0  0  0  0  0  0  0
   11.5714  -37.6395   20.0144 C   0  0  0  0  0  0  0  0  0  0  0  0
    9.1086  -38.2161   14.1065 C   0  0  2  0  0  0  0  0  0  0  0  0
    7.7606  -38.2482   14.6542 O   0  0  0  0  0  0  0  0  0  0  0  0
    8.8405  -41.5323   14.2625 C   0  0  2  0  0  0  0  0  0  0  0  0
    9.3424  -42.4243   13.1819 N   0  0  0  0  0  0  0  0  0  0  0  0
    7.0213  -46.4420   14.2304 C   0  0  1  0  0  0  0  0  0  0  0  0
    6.9919  -46.4695   12.7818 O   0  0  0  0  0  0  0  0  0  0  0  0
   12.8861  -32.8524   15.8776 C   0  0  0  0  0  0  0  0  0  0  0  0
   12.3641  -36.6534   19.0303 C   0  0  2  0  0  0  0  0  0  0  0  0
   12.5010  -35.3113   19.6151 N   0  0  0  0  0  0  0  0  0  0  0  0
    9.3267  -39.0004   12.8235 C   0  0  2  0  0  0  0  0  0  0  0  0
    8.2741  -39.8942   12.5833 O   0  0  0  0  0  0  0  0  0  0  0  0
    8.2101  -42.2823   15.5475 C   0  0  1  0  0  0  0  0  0  0  0  0
    7.7922  -41.2764   16.4880 O   0  0  0  0  0  0  0  0  0  0  0  0
    7.0300  -47.9086   14.7403 C   0  0  1  0  0  0  0  0  0  0  0  0
    7.7045  -48.7116   13.7634 O   0  0  0  0  0  0  0  0  0  0  0  0
   11.4110  -32.3351   15.9121 C   0  0  2  0  0  0  0  0  0  0  0  0
   11.3241  -31.1432   16.6869 O   0  0  0  0  0  0  0  0  0  0  0  0
   11.6087  -36.5712   17.6745 C   0  0  2  0  0  0  0  0  0  0  0  0
   10.5836  -39.8870   12.9925 C   0  0  2  0  0  0  0  0  0  0  0  0
   11.1056  -39.4465   14.2379 O   0  0  0  0  0  0  0  0  0  0  0  0
    6.8874  -43.1286   15.1621 C   0  0  2  0  0  0  0  0  0  0  0  0
    7.3553  -44.1286   14.2376 O   0  0  0  0  0  0  0  0  0  0  0  0
    7.6882  -48.1451   16.1193 C   0  0  2  0  0  0  0  0  0  0  0  0
    6.8387  -49.0936   16.8013 O   0  0  0  0  0  0  0  0  0  0  0  0
   10.4921  -33.4319   16.5222 C   0  0  2  0  0  0  0  0  0  0  0  0
   10.5987  -34.6442   15.6805 O   0  0  0  0  0  0  0  0  0  0  0  0
   11.3989  -37.9682   17.0146 C   0  0  2  0  0  0  0  0  0  0  0  0
   10.6513  -37.7644   15.7917 O   0  0  0  0  0  0  0  0  0  0  0  0
   11.6581  -39.6956   11.9280 C   0  0  0  0  0  0  0  0  0  0  0  0
   12.0144  -38.3049   11.9350 O   0  0  0  0  0  0  0  0  0  0  0  0
    5.9873  -42.1630   14.4145 C   0  0  1  0  0  0  0  0  0  0  0  0
    6.4237  -41.2893   13.3523 O   0  0  0  0  0  0  0  0  0  0  0  0
    7.8653  -46.8307   16.8748 C   0  0  2  0  0  0  0  0  0  0  0  0
    8.5270  -45.7784   16.1196 O   0  0  0  0  0  0  0  0  0  0  0  0
    9.0570  -33.0115   16.5505 C   0  0  0  0  0  0  0  0  0  0  0  0
    8.9742  -31.7976   17.2472 O   0  0  0  0  0  0  0  0  0  0  0  0
   10.6330  -38.9226   18.0021 C   0  0  1  0  0  0  0  0  0  0  0  0
   10.4998  -40.2416   17.3681 O   0  0  0  0  0  0  0  0  0  0  0  0
    4.6544  -42.8224   13.9116 C   0  0  0  0  0  0  0  0  0  0  0  0
    3.7657  -41.8855   13.1823 N   0  0  0  0  0  0  0  0  0  0  0  0
    8.5015  -46.7747   18.2618 C   0  0  0  0  0  0  0  0  0  0  0  0
    8.6316  -45.3889   18.7057 O   0  0  0  0  0  0  0  0  0  0  0  0
  1  2  1  1  0  0  0
  1  8  1  0  0  0  0
  1 36  1  0  0  0  0
  3  4  1  1  0  0  0
  3 10  1  0  0  0  0
  3 47  1  0  0  0  0
  5 11  1  0  0  0  0
  5 30  1  0  0  0  0
  5 38  1  6  0  0  0
  6 21  1  6  0  0  0
  6 42  1  0  0  0  0
  7 15  1  0  0  0  0
  7 44  1  0  0  0  0
  7 32  1  1  0  0  0
  8  9  1  1  0  0  0
  8 17  1  0  0  0  0
 11 12  1  1  0  0  0
 11 20  1  0  0  0  0
 13  6  1  0  0  0  0
 13 14  1  6  0  0  0
 15 16  1  6  0  0  0
 15 24  1  0  0  0  0
 17 26  1  0  0  0  0
 18 10  1  0  0  0  0
 18 19  1  1  0  0  0
 20 21  1  1  0  0  0
 20 29  1  0  0  0  0
 22 13  1  0  0  0  0
 22 23  1  1  0  0  0
 24 25  1  6  0  0  0
 24 33  1  0  0  0  0
 26 27  1  1  0  0  0
 26 35  1  0  0  0  0
 28  2  1  6  0  0  0
 28 18  1  0  0  0  0
 29 30  1  0  0  0  0
 29 39  1  6  0  0  0
 31 22  1  0  0  0  0
 31 32  1  6  0  0  0
 31 41  1  0  0  0  0
 33 34  1  1  0  0  0
 33 43  1  0  0  0  0
 35 36  1  0  0  0  0
 35 45  1  6  0  0  0
 37 28  1  0  0  0  0
 37 38  1  6  0  0  0
 39 40  1  0  0  0  0
 41 42  1  0  0  0  0
 41 49  1  6  0  0  0
 43 44  1  0  0  0  0
 43 51  1  1  0  0  0
 45 46  1  0  0  0  0
 47 37  1  0  0  0  0
 47 48  1  6  0  0  0
 49 50  1  0  0  0  0
 51 52  1  0  0  0  0
M  END
>  <CHROM.1>
173.53903398,164.17444811,-67.81776064,113.95487292,-37.68356757,-172.36689782
56.54287172,77.81975814,-55.65497993,-170.66863114,179.85385188,175.96483326
9.43450296,-40.04030996,15.59500001,0.78347799,-1.07327898,-0.60436496

>  <Name>
2fd0_lig

>  <RI>
0

>  <Rbt.Current_Directory>
/home/itssahil/PROJECTS/Mol_Feturizer/New_Systems/rnas/2fd0

>  <Rbt.Executable>
rbdock ($Id: //depot/dev/client3/rdock/2013.1/src/exe/rbdock.cxx#4 $)

>  <Rbt.Library>
libRbt.so (2013.1, Build901 2013/11/27)

>  <Rbt.Parameter_File>
/export/apps/rDock/src/rDock_2013.1_src/data/scripts/dock_solv.prm

>  <Rbt.Receptor>
prm/blind_docking_100.prm

>  <SCORE>
-8.02051

>  <SCORE.INTER>
-18.687

>  <SCORE.INTER.CONST>
1

>  <SCORE.INTER.POLAR>
-0.8

>  <SCORE.INTER.ROT>
12

>  <SCORE.INTER.SOLV>
21.8905

>  <SCORE.INTER.VDW>
-28.6881

>  <SCORE.INTER.norm>
-0.359365

>  <SCORE.INTRA>
3.22453

>  <SCORE.INTRA.DIHEDRAL>
-9.22085

>  <SCORE.INTRA.DIHEDRAL.0>
23.9727

>  <SCORE.INTRA.POLAR>
0

>  <SCORE.INTRA.POLAR.0>
0

>  <SCORE.INTRA.REPUL>
0

>  <SCORE.INTRA.REPUL.0>
0

>  <SCORE.INTRA.SOLV>
-0.67558

>  <SCORE.INTRA.SOLV.lig_0>
-115.028

>  <SCORE.INTRA.VDW>
8.17275

>  <SCORE.INTRA.VDW.0>
-6.82393

>  <SCORE.INTRA.norm>
0.0620102

>  <SCORE.RESTR>
7.44192

>  <SCORE.RESTR.CAVITY>
7.44192

>  <SCORE.RESTR.norm>
0.143114

>  <SCORE.SYSTEM>
0

>  <SCORE.SYSTEM.CONST>
0

>  <SCORE.SYSTEM.DIHEDRAL>
0

>  <SCORE.SYSTEM.SOLV>
0

>  <SCORE.SYSTEM.norm>
0

>  <SCORE.heavy>
52

>  <SCORE.norm>
-0.154241

>  <RMSD>
14.684

$$$$
2fd0_lig
 OpenBabel11021811433D
libRbt.so/2013.1/901 2013/11/27
 52 56  0  0  0  0  0  0  0  0999 V2000
   13.4656  -33.6081   14.0186 C   0  0  2  0  0  0  0  0  0  0  0  0
   12.1048  -34.0521   13.9294 O   0  0  0  0  0  0  0  0  0  0  0  0
   10.8769  -34.9370   18.0040 C   0  0  2  0  0  0  0  0  0  0  0  0
   10.0534  -35.0735   19.2165 N   0  0  0  0  0  0  0  0  0  0  0  0
   10.3100  -37.8261   14.5557 C   0  0  1  0  0  0  0  0  0  0  0  0
    9.2533  -41.7820   12.5844 C   0  0  1  0  0  0  0  0  0  0  0  0
    8.6844  -46.6151   14.6475 C   0  0  1  0  0  0  0  0  0  0  0  0
   14.2396  -34.1098   12.7455 C   0  0  2  0  0  0  0  0  0  0  0  0
   13.6144  -33.6486   11.5138 N   0  0  0  0  0  0  0  0  0  0  0  0
   10.8838  -33.4245   17.5086 C   0  0  0  0  0  0  0  0  0  0  0  0
    9.4702  -38.1807   13.3422 C   0  0  2  0  0  0  0  0  0  0  0  0
    8.0432  -38.1089   13.6190 O   0  0  0  0  0  0  0  0  0  0  0  0
    7.8362  -42.5240   12.6126 C   0  0  2  0  0  0  0  0  0  0  0  0
    7.3213  -42.6127   14.0062 N   0  0  0  0  0  0  0  0  0  0  0  0
    7.2660  -47.0333   14.1991 C   0  0  1  0  0  0  0  0  0  0  0  0
    7.2897  -47.3392   12.7828 O   0  0  0  0  0  0  0  0  0  0  0  0
   14.3734  -35.6776   12.7682 C   0  0  0  0  0  0  0  0  0  0  0  0
   11.7899  -33.2762   16.1947 C   0  0  2  0  0  0  0  0  0  0  0  0
   11.8110  -31.8868   15.7143 N   0  0  0  0  0  0  0  0  0  0  0  0
   10.0055  -39.5463   12.9457 C   0  0  2  0  0  0  0  0  0  0  0  0
    9.0911  -40.5640   13.2506 O   0  0  0  0  0  0  0  0  0  0  0  0
    8.0158  -43.9349   11.8458 C   0  0  1  0  0  0  0  0  0  0  0  0
    8.5049  -43.6609   10.5204 O   0  0  0  0  0  0  0  0  0  0  0  0
    6.6049  -48.2275   14.9392 C   0  0  1  0  0  0  0  0  0  0  0  0
    6.8971  -49.4208   14.2011 O   0  0  0  0  0  0  0  0  0  0  0  0
   15.0585  -36.0981   14.1093 C   0  0  2  0  0  0  0  0  0  0  0  0
   15.2151  -37.5127   14.1611 O   0  0  0  0  0  0  0  0  0  0  0  0
   11.2386  -34.2167   15.0869 C   0  0  2  0  0  0  0  0  0  0  0  0
   11.2582  -39.8545   13.8002 C   0  0  2  0  0  0  0  0  0  0  0  0
   11.4768  -38.6266   14.4798 O   0  0  0  0  0  0  0  0  0  0  0  0
    9.1238  -44.8716   12.5596 C   0  0  2  0  0  0  0  0  0  0  0  0
    8.5859  -45.1326   13.8697 O   0  0  0  0  0  0  0  0  0  0  0  0
    7.0314  -48.4356   16.4108 C   0  0  2  0  0  0  0  0  0  0  0  0
    5.8222  -48.7733   17.1250 O   0  0  0  0  0  0  0  0  0  0  0  0
   14.1904  -35.6168   15.3070 C   0  0  2  0  0  0  0  0  0  0  0  0
   14.0666  -34.1446   15.2254 O   0  0  0  0  0  0  0  0  0  0  0  0
   11.1575  -35.7052   15.5439 C   0  0  2  0  0  0  0  0  0  0  0  0
   10.5920  -36.4665   14.4500 O   0  0  0  0  0  0  0  0  0  0  0  0
   12.5151  -40.1933   13.0067 C   0  0  0  0  0  0  0  0  0  0  0  0
   12.7299  -41.6064   13.1417 O   0  0  0  0  0  0  0  0  0  0  0  0
   10.3588  -44.0033   12.7087 C   0  0  1  0  0  0  0  0  0  0  0  0
   10.3558  -42.6522   13.2152 O   0  0  0  0  0  0  0  0  0  0  0  0
    7.7377  -47.1977   16.9571 C   0  0  2  0  0  0  0  0  0  0  0  0
    8.8275  -46.7035   16.1303 O   0  0  0  0  0  0  0  0  0  0  0  0
   14.8111  -35.9578   16.6244 C   0  0  0  0  0  0  0  0  0  0  0  0
   15.3072  -37.2667   16.5444 O   0  0  0  0  0  0  0  0  0  0  0  0
   10.2768  -35.8250   16.8410 C   0  0  1  0  0  0  0  0  0  0  0  0
   10.2661  -37.2303   17.2705 O   0  0  0  0  0  0  0  0  0  0  0  0
   11.5452  -44.7335   13.4324 C   0  0  0  0  0  0  0  0  0  0  0  0
   11.5937  -46.1925   13.1708 N   0  0  0  0  0  0  0  0  0  0  0  0
    8.2732  -47.1368   18.3858 C   0  0  0  0  0  0  0  0  0  0  0  0
    8.8824  -45.8344   18.6452 O   0  0  0  0  0  0  0  0  0  0  0  0
  1  2  1  6  0  0  0
  1  8  1  0  0  0  0
  1 36  1  0  0  0  0
  3  4  1  1  0  0  0
  3 10  1  0  0  0  0
  3 47  1  0  0  0  0
  5 11  1  0  0  0  0
  5 30  1  0  0  0  0
  5 38  1  6  0  0  0
  6 21  1  1  0  0  0
  6 42  1  0  0  0  0
  7 15  1  0  0  0  0
  7 44  1  0  0  0  0
  7 32  1  1  0  0  0
  8  9  1  6  0  0  0
  8 17  1  0  0  0  0
 11 12  1  1  0  0  0
 11 20  1  0  0  0  0
 13  6  1  0  0  0  0
 13 14  1  1  0  0  0
 15 16  1  6  0  0  0
 15 24  1  0  0  0  0
 17 26  1  0  0  0  0
 18 10  1  0  0  0  0
 18 19  1  6  0  0  0
 20 21  1  1  0  0  0
 20 29  1  0  0  0  0
 22 13  1  0  0  0  0
 22 23  1  6  0  0  0
 24 25  1  6  0  0  0
 24 33  1  0  0  0  0
 26 27  1  6  0  0  0
 26 35  1  0  0  0  0
 28  2  1  6  0  0  0
 28 18  1  0  0  0  0
 29 30  1  0  0  0  0
 29 39  1  6  0  0  0
 31 22  1  0  0  0  0
 31 32  1  1  0  0  0
 31 41  1  0  0  0  0
 33 34  1  1  0  0  0
 33 43  1  0  0  0  0
 35 36  1  0  0  0  0
 35 45  1  1  0  0  0
 37 28  1  0  0  0  0
 37 38  1  6  0  0  0
 39 40  1  0  0  0  0
 41 42  1  0  0  0  0
 41 49  1  1  0  0  0
 43 44  1  0  0  0  0
 43 51  1  1  0  0  0
 45 46  1  0  0  0  0
 47 37  1  0  0  0  0
 47 48  1  1  0  0  0
 49 50  1  0  0  0  0
 51 52  1  0  0  0  0
M  END
>  <CHROM.1>
156.54844455,168.06249233,-157.18382368,-96.90015522,160.62922963,24.71828950
-106.42333084,140.26029981,-42.78966038,-176.20423437,32.26390243,-179.21920652
10.49725668,-40.34721133,14.61721567,-0.75582705,-1.04049224,-2.37179553

>  <Name>
2fd0_lig

>  <RI>
0

>  <Rbt.Current_Directory>
/home/itssahil/PROJECTS/Mol_Feturizer/New_Systems/rnas/2fd0

>  <Rbt.Executable>
rbdock ($Id: //depot/dev/client3/rdock/2013.1/src/exe/rbdock.cxx#4 $)

>  <Rbt.Library>
libRbt.so (2013.1, Build901 2013/11/27)

>  <Rbt.Parameter_File>
/export/apps/rDock/src/rDock_2013.1_src/data/scripts/dock_solv.prm

>  <Rbt.Receptor>
prm/blind_docking_100.prm

>  <SCORE>
-2.13714

>  <SCORE.INTER>
-12.5462

>  <SCORE.INTER.CONST>
1

>  <SCORE.INTER.POLAR>
-1.29739

>  <SCORE.INTER.ROT>
12

>  <SCORE.INTER.SOLV>
34.8932

>  <SCORE.INTER.VDW>
-27.2706

>  <SCORE.INTER.norm>
-0.241274

>  <SCORE.INTRA>
6.97242

>  <SCORE.INTRA.DIHEDRAL>
6.41868

>  <SCORE.INTRA.DIHEDRAL.0>
23.9727

>  <SCORE.INTRA.POLAR>
0

>  <SCORE.INTRA.POLAR.0>
0

>  <SCORE.INTRA.REPUL>
0

>  <SCORE.INTRA.REPUL.0>
0

>  <SCORE.INTRA.SOLV>
-1.17489

>  <SCORE.INTRA.SOLV.lig_0>
-115.028

>  <SCORE.INTRA.VDW>
4.35052

>  <SCORE.INTRA.VDW.0>
-6.82393

>  <SCORE.INTRA.norm>
0.134085

>  <SCORE.RESTR>
3.43668

>  <SCORE.RESTR.CAVITY>
3.43668

>  <SCORE.RESTR.norm>
0.06609

>  <SCORE.SYSTEM>
0

>  <SCORE.SYSTEM.CONST>
0

>  <SCORE.SYSTEM.DIHEDRAL>
0

>  <SCORE.SYSTEM.SOLV>
0

>  <SCORE.SYSTEM.norm>
0

>  <SCORE.heavy>
52

>  <SCORE.norm>
-0.0410989

>  <RMSD>
14.685

$$$$
2fd0_lig
 OpenBabel11021811433D
libRbt.so/2013.1/901 2013/11/27
 52 56  0  0  0  0  0  0  0  0999 V2000
    3.9161  -47.3646   12.3662 C   0  0  2  0  0  0  0  0  0  0  0  0
    5.2743  -47.7015   12.6803 O   0  0  0  0  0  0  0  0  0  0  0  0
    5.0667  -49.8653   16.4442 C   0  0  2  0  0  0  0  0  0  0  0  0
    5.3718  -50.8096   17.5316 N   0  0  0  0  0  0  0  0  0  0  0  0
    6.9464  -45.6587   14.4421 C   0  0  1  0  0  0  0  0  0  0  0  0
    9.3373  -42.1235   14.5032 C   0  0  1  0  0  0  0  0  0  0  0  0
   10.1919  -36.9817   15.0182 C   0  0  1  0  0  0  0  0  0  0  0  0
    3.7371  -47.4131   10.8051 C   0  0  2  0  0  0  0  0  0  0  0  0
    4.0975  -48.7136   10.2579 N   0  0  0  0  0  0  0  0  0  0  0  0
    4.8150  -50.6523   15.0839 C   0  0  0  0  0  0  0  0  0  0  0  0
    8.2945  -44.9980   14.6649 C   0  0  2  0  0  0  0  0  0  0  0  0
    8.3917  -44.3712   15.9749 O   0  0  0  0  0  0  0  0  0  0  0  0
    8.7269  -40.9958   15.4597 C   0  0  2  0  0  0  0  0  0  0  0  0
    7.8444  -40.0788   14.6880 N   0  0  0  0  0  0  0  0  0  0  0  0
   11.6072  -36.6947   14.4684 C   0  0  1  0  0  0  0  0  0  0  0  0
   11.5529  -36.6579   13.0208 O   0  0  0  0  0  0  0  0  0  0  0  0
    4.5586  -46.2568   10.1234 C   0  0  0  0  0  0  0  0  0  0  0  0
    4.4721  -49.6229   13.9040 C   0  0  2  0  0  0  0  0  0  0  0  0
    4.2375  -50.3252   12.6337 N   0  0  0  0  0  0  0  0  0  0  0  0
    8.4193  -44.0687   13.4693 C   0  0  2  0  0  0  0  0  0  0  0  0
    8.2627  -42.7270   13.8438 O   0  0  0  0  0  0  0  0  0  0  0  0
    9.9639  -40.2915   16.2244 C   0  0  1  0  0  0  0  0  0  0  0  0
   10.6954  -41.3155   16.9225 O   0  0  0  0  0  0  0  0  0  0  0  0
   12.3160  -35.4025   14.9573 C   0  0  1  0  0  0  0  0  0  0  0  0
   12.0324  -34.3601   14.0153 O   0  0  0  0  0  0  0  0  0  0  0  0
    4.1143  -44.8953   10.7508 C   0  0  2  0  0  0  0  0  0  0  0  0
    4.8235  -43.8185   10.1461 O   0  0  0  0  0  0  0  0  0  0  0  0
    5.6459  -48.6159   13.7493 C   0  0  2  0  0  0  0  0  0  0  0  0
    7.2540  -44.3579   12.4932 C   0  0  2  0  0  0  0  0  0  0  0  0
    6.6549  -45.5129   13.0631 O   0  0  0  0  0  0  0  0  0  0  0  0
   11.0023  -39.6097   15.1895 C   0  0  2  0  0  0  0  0  0  0  0  0
   10.2345  -38.5855   14.5298 O   0  0  0  0  0  0  0  0  0  0  0  0
   11.9341  -34.9115   16.3728 C   0  0  2  0  0  0  0  0  0  0  0  0
   13.1696  -34.4807   16.9846 O   0  0  0  0  0  0  0  0  0  0  0  0
    4.3887  -44.9172   12.2819 C   0  0  2  0  0  0  0  0  0  0  0  0
    3.6225  -46.0368   12.8724 O   0  0  0  0  0  0  0  0  0  0  0  0
    5.9705  -47.8592   15.0733 C   0  0  2  0  0  0  0  0  0  0  0  0
    7.1003  -46.9918   14.8136 O   0  0  0  0  0  0  0  0  0  0  0  0
    7.6733  -44.6905   11.0657 C   0  0  0  0  0  0  0  0  0  0  0  0
    8.3079  -43.5194   10.5299 O   0  0  0  0  0  0  0  0  0  0  0  0
   11.3389  -40.6885   14.1774 C   0  0  1  0  0  0  0  0  0  0  0  0
   10.3678  -41.5323   13.5238 O   0  0  0  0  0  0  0  0  0  0  0  0
   11.2137  -36.0053   17.1566 C   0  0  2  0  0  0  0  0  0  0  0  0
   10.0908  -36.6142   16.4610 O   0  0  0  0  0  0  0  0  0  0  0  0
    3.9512  -43.6524   12.9497 C   0  0  0  0  0  0  0  0  0  0  0  0
    4.7312  -42.6027   12.4445 O   0  0  0  0  0  0  0  0  0  0  0  0
    6.2893  -48.8876   16.2193 C   0  0  1  0  0  0  0  0  0  0  0  0
    6.5385  -48.1417   17.4606 O   0  0  0  0  0  0  0  0  0  0  0  0
   12.3129  -40.1963   13.0489 C   0  0  0  0  0  0  0  0  0  0  0  0
   12.4716  -41.1642   11.9365 N   0  0  0  0  0  0  0  0  0  0  0  0
   10.7153  -35.7835   18.5829 C   0  0  0  0  0  0  0  0  0  0  0  0
   11.8402  -35.5349   19.4814 O   0  0  0  0  0  0  0  0  0  0  0  0
  1  2  1  6  0  0  0
  1  8  1  0  0  0  0
  1 36  1  0  0  0  0
  3  4  1  1  0  0  0
  3 10  1  0  0  0  0
  3 47  1  0  0  0  0
  5 11  1  0  0  0  0
  5 30  1  0  0  0  0
  5 38  1  6  0  0  0
  6 21  1  6  0  0  0
  6 42  1  0  0  0  0
  7 15  1  0  0  0  0
  7 44  1  0  0  0  0
  7 32  1  1  0  0  0
  8  9  1  6  0  0  0
  8 17  1  0  0  0  0
 11 12  1  1  0  0  0
 11 20  1  0  0  0  0
 13  6  1  0  0  0  0
 13 14  1  6  0  0  0
 15 16  1  6  0  0  0
 15 24  1  0  0  0  0
 17 26  1  0  0  0  0
 18 10  1  0  0  0  0
 18 19  1  6  0  0  0
 20 21  1  1  0  0  0
 20 29  1  0  0  0  0
 22 13  1  0  0  0  0
 22 23  1  6  0  0  0
 24 25  1  6  0  0  0
 24 33  1  0  0  0  0
 26 27  1  6  0  0  0
 26 35  1  0  0  0  0
 28  2  1  6  0  0  0
 28 18  1  0  0  0  0
 29 30  1  0  0  0  0
 29 39  1  6  0  0  0
 31 22  1  0  0  0  0
 31 32  1  6  0  0  0
 31 41  1  0  0  0  0
 33 34  1  1  0  0  0
 33 43  1  0  0  0  0
 35 36  1  0  0  0  0
 35 45  1  1  0  0  0
 37 28  1  0  0  0  0
 37 38  1  6  0  0  0
 39 40  1  0  0  0  0
 41 42  1  0  0  0  0
 41 49  1  6  0  0  0
 43 44  1  0  0  0  0
 43 51  1  1  0  0  0
 45 46  1  0  0  0  0
 47 37  1  0  0  0  0
 47 48  1  1  0  0  0
 49 50  1  0  0  0  0
 51 52  1  0  0  0  0
M  END
>  <CHROM.1>
-135.46703669,163.57882399,-150.84579910,74.45641453,75.34223500,29.00688377
-64.38219783,94.29646172,-64.20687669,93.85343561,-170.43023844,-63.59223079
7.98849622,-42.91483370,14.17456365,2.77492046,1.01628411,2.20094476

>  <Name>
2fd0_lig

>  <RI>
2.60878e+07

>  <Rbt.Current_Directory>
/home/itssahil/PROJECTS/Mol_Feturizer/New_Systems/rnas/2fd0

>  <Rbt.Executable>
rbdock ($Id: //depot/dev/client3/rdock/2013.1/src/exe/rbdock.cxx#4 $)

>  <Rbt.Library>
libRbt.so (2013.1, Build901 2013/11/27)

>  <Rbt.Parameter_File>
/export/apps/rDock/src/rDock_2013.1_src/data/scripts/dock_solv.prm

>  <Rbt.Receptor>
prm/blind_docking_80.prm

>  <SCORE>
-1.95268

>  <SCORE.INTER>
-14.0662

>  <SCORE.INTER.CONST>
1

>  <SCORE.INTER.POLAR>
-2.58857

>  <SCORE.INTER.ROT>
12

>  <SCORE.INTER.SOLV>
18.3693

>  <SCORE.INTER.VDW>
-18.472

>  <SCORE.INTER.norm>
-0.270503

>  <SCORE.INTRA>
6.27119

>  <SCORE.INTRA.DIHEDRAL>
3.11882

>  <SCORE.INTRA.DIHEDRAL.0>
23.9727

>  <SCORE.INTRA.POLAR>
0

>  <SCORE.INTRA.POLAR.0>
0

>  <SCORE.INTRA.REPUL>
0.35658

>  <SCORE.INTRA.REPUL.0>
0

>  <SCORE.INTRA.SOLV>
0.869762

>  <SCORE.INTRA.SOLV.lig_0>
-115.028

>  <SCORE.INTRA.VDW>
2.49399

>  <SCORE.INTRA.VDW.0>
-6.82393

>  <SCORE.INTRA.norm>
0.1206

>  <SCORE.RESTR>
5.8423

>  <SCORE.RESTR.CAVITY>
5.8423

>  <SCORE.RESTR.norm>
0.112352

>  <SCORE.SYSTEM>
0

>  <SCORE.SYSTEM.CONST>
0

>  <SCORE.SYSTEM.DIHEDRAL>
0

>  <SCORE.SYSTEM.SOLV>
0

>  <SCORE.SYSTEM.norm>
0

>  <SCORE.heavy>
52

>  <SCORE.norm>
-0.0375515

>  <RMSD>
14.693

$$$$
2fd0_lig
 OpenBabel11021811433D
libRbt.so/2013.1/901 2013/11/27
 52 56  0  0  0  0  0  0  0  0999 V2000
    4.5728  -44.0333   10.8566 C   0  0  2  0  0  0  0  0  0  0  0  0
    4.3714  -44.8351   12.0286 O   0  0  0  0  0  0  0  0  0  0  0  0
    6.1824  -48.2167   14.0724 C   0  0  2  0  0  0  0  0  0  0  0  0
    7.1862  -49.1413   14.6243 N   0  0  0  0  0  0  0  0  0  0  0  0
    6.4888  -43.6166   14.2669 C   0  0  1  0  0  0  0  0  0  0  0  0
    9.5881  -41.8481   13.1338 C   0  0  1  0  0  0  0  0  0  0  0  0
   10.2633  -37.3155   15.6430 C   0  0  1  0  0  0  0  0  0  0  0  0
    3.4982  -42.8859   10.8451 C   0  0  2  0  0  0  0  0  0  0  0  0
    3.5563  -42.0760   12.0540 N   0  0  0  0  0  0  0  0  0  0  0  0
    6.3719  -48.0711   12.4989 C   0  0  0  0  0  0  0  0  0  0  0  0
    7.7830  -44.3412   14.5889 C   0  0  2  0  0  0  0  0  0  0  0  0
    8.3222  -43.9574   15.8850 O   0  0  0  0  0  0  0  0  0  0  0  0
   11.0517  -41.2059   13.2041 C   0  0  2  0  0  0  0  0  0  0  0  0
   11.5764  -41.2544   14.5961 N   0  0  0  0  0  0  0  0  0  0  0  0
   11.1804  -36.4254   14.7745 C   0  0  1  0  0  0  0  0  0  0  0  0
   10.4956  -36.1070   13.5377 O   0  0  0  0  0  0  0  0  0  0  0  0
    2.0597  -43.4848   10.6249 C   0  0  0  0  0  0  0  0  0  0  0  0
    5.2710  -47.0726   11.8987 C   0  0  2  0  0  0  0  0  0  0  0  0
    5.4258  -46.9183   10.4447 N   0  0  0  0  0  0  0  0  0  0  0  0
    8.6553  -44.0303   13.3843 C   0  0  2  0  0  0  0  0  0  0  0  0
    9.6709  -43.1200   13.7076 O   0  0  0  0  0  0  0  0  0  0  0  0
   10.9639  -39.7335   12.5443 C   0  0  1  0  0  0  0  0  0  0  0  0
   10.4529  -39.8762   11.2066 O   0  0  0  0  0  0  0  0  0  0  0  0
   11.6890  -35.0980   15.3994 C   0  0  1  0  0  0  0  0  0  0  0  0
   10.7779  -34.0566   15.0259 O   0  0  0  0  0  0  0  0  0  0  0  0
    2.0697  -44.3306    9.3099 C   0  0  2  0  0  0  0  0  0  0  0  0
    0.7775  -44.8766    9.0645 O   0  0  0  0  0  0  0  0  0  0  0  0
    5.3999  -45.6914   12.5996 C   0  0  2  0  0  0  0  0  0  0  0  0
    7.7913  -43.3152   12.3183 C   0  0  2  0  0  0  0  0  0  0  0  0
    6.4839  -43.4152   12.8643 O   0  0  0  0  0  0  0  0  0  0  0  0
    9.9237  -38.7805   13.3342 C   0  0  2  0  0  0  0  0  0  0  0  0
   10.4825  -38.6530   14.6552 O   0  0  0  0  0  0  0  0  0  0  0  0
   11.8520  -35.0890   16.9369 C   0  0  2  0  0  0  0  0  0  0  0  0
   13.0824  -34.3781   17.1962 O   0  0  0  0  0  0  0  0  0  0  0  0
    3.1135  -45.4767    9.4398 C   0  0  2  0  0  0  0  0  0  0  0  0
    4.4410  -44.8676    9.6768 O   0  0  0  0  0  0  0  0  0  0  0  0
    5.2788  -45.7881   14.1510 C   0  0  2  0  0  0  0  0  0  0  0  0
    5.4589  -44.4549   14.6860 O   0  0  0  0  0  0  0  0  0  0  0  0
    7.7873  -43.9716   10.9422 C   0  0  0  0  0  0  0  0  0  0  0  0
    9.1325  -43.9125   10.4440 O   0  0  0  0  0  0  0  0  0  0  0  0
    8.6339  -39.5735   13.4298 C   0  0  1  0  0  0  0  0  0  0  0  0
    8.5485  -40.9555   13.8360 O   0  0  0  0  0  0  0  0  0  0  0  0
   11.8371  -36.5083   17.4981 C   0  0  2  0  0  0  0  0  0  0  0  0
   10.7117  -37.3222   17.0663 O   0  0  0  0  0  0  0  0  0  0  0  0
    3.1979  -46.3040    8.1966 C   0  0  0  0  0  0  0  0  0  0  0  0
    4.4940  -46.8321    8.1141 O   0  0  0  0  0  0  0  0  0  0  0  0
    6.3575  -46.7828   14.7163 C   0  0  1  0  0  0  0  0  0  0  0  0
    6.1796  -46.8879   16.1712 O   0  0  0  0  0  0  0  0  0  0  0  0
    7.5016  -38.8214   14.2151 C   0  0  0  0  0  0  0  0  0  0  0  0
    6.3276  -39.6724   14.5261 N   0  0  0  0  0  0  0  0  0  0  0  0
   11.9700  -36.7880   18.9934 C   0  0  0  0  0  0  0  0  0  0  0  0
   13.2652  -36.3234   19.4843 O   0  0  0  0  0  0  0  0  0  0  0  0
  1  2  1  1  0  0  0
  1  8  1  0  0  0  0
  1 36  1  0  0  0  0
  3  4  1  1  0  0  0
  3 10  1  0  0  0  0
  3 47  1  0  0  0  0
  5 11  1  0  0  0  0
  5 30  1  0  0  0  0
  5 38  1  6  0  0  0
  6 21  1  1  0  0  0
  6 42  1  0  0  0  0
  7 15  1  0  0  0  0
  7 44  1  0  0  0  0
  7 32  1  6  0  0  0
  8  9  1  1  0  0  0
  8 17  1  0  0  0  0
 11 12  1  1  0  0  0
 11 20  1  0  0  0  0
 13  6  1  0  0  0  0
 13 14  1  1  0  0  0
 15 16  1  6  0  0  0
 15 24  1  0  0  0  0
 17 26  1  0  0  0  0
 18 10  1  0  0  0  0
 18 19  1  6  0  0  0
 20 21  1  1  0  0  0
 20 29  1  0  0  0  0
 22 13  1  0  0  0  0
 22 23  1  6  0  0  0
 24 25  1  1  0  0  0
 24 33  1  0  0  0  0
 26 27  1  1  0  0  0
 26 35  1  0  0  0  0
 28  2  1  6  0  0  0
 28 18  1  0  0  0  0
 29 30  1  0  0  0  0
 29 39  1  6  0  0  0
 31 22  1  0  0  0  0
 31 32  1  1  0  0  0
 31 41  1  0  0  0  0
 33 34  1  6  0  0  0
 33 43  1  0  0  0  0
 35 36  1  0  0  0  0
 35 45  1  6  0  0  0
 37 28  1  0  0  0  0
 37 38  1  1  0  0  0
 39 40  1  0  0  0  0
 41 42  1  0  0  0  0
 41 49  1  1  0  0  0
 43 44  1  0  0  0  0
 43 51  1  1  0  0  0
 45 46  1  0  0  0  0
 47 37  1  0  0  0  0
 47 48  1  1  0  0  0
 49 50  1  0  0  0  0
 51 52  1  0  0  0  0
M  END
>  <CHROM.1>
-159.32140016,-60.06583994,-160.00720458,-71.48259208,-112.07179453,-88.68785639
-63.26862980,151.01368775,151.79638915,-46.43161817,-169.63004954,-62.67331002
7.70368227,-42.05346258,13.36951598,2.54935022,0.83799837,2.79443433

>  <Name>
2fd0_lig

>  <RI>
2.60878e+07

>  <Rbt.Current_Directory>
/home/itssahil/PROJECTS/Mol_Feturizer/New_Systems/rnas/2fd0

>  <Rbt.Executable>
rbdock ($Id: //depot/dev/client3/rdock/2013.1/src/exe/rbdock.cxx#4 $)

>  <Rbt.Library>
libRbt.so (2013.1, Build901 2013/11/27)

>  <Rbt.Parameter_File>
/export/apps/rDock/src/rDock_2013.1_src/data/scripts/dock_solv.prm

>  <Rbt.Receptor>
prm/blind_docking_80.prm

>  <SCORE>
5.0529

>  <SCORE.INTER>
-11.8689

>  <SCORE.INTER.CONST>
1

>  <SCORE.INTER.POLAR>
-1.54544

>  <SCORE.INTER.ROT>
12

>  <SCORE.INTER.SOLV>
23.1263

>  <SCORE.INTER.VDW>
-22.0699

>  <SCORE.INTER.norm>
-0.228248

>  <SCORE.INTRA>
14.0147

>  <SCORE.INTRA.DIHEDRAL>
-0.999603

>  <SCORE.INTRA.DIHEDRAL.0>
23.9727

>  <SCORE.INTRA.POLAR>
0

>  <SCORE.INTRA.POLAR.0>
0

>  <SCORE.INTRA.REPUL>
0.0304432

>  <SCORE.INTRA.REPUL.0>
0

>  <SCORE.INTRA.SOLV>
3.57366

>  <SCORE.INTRA.SOLV.lig_0>
-115.028

>  <SCORE.INTRA.VDW>
12.5754

>  <SCORE.INTRA.VDW.0>
-6.82393

>  <SCORE.INTRA.norm>
0.269513

>  <SCORE.RESTR>
2.90713

>  <SCORE.RESTR.CAVITY>
2.90713

>  <SCORE.RESTR.norm>
0.0559064

>  <SCORE.SYSTEM>
0

>  <SCORE.SYSTEM.CONST>
0

>  <SCORE.SYSTEM.DIHEDRAL>
0

>  <SCORE.SYSTEM.SOLV>
0

>  <SCORE.SYSTEM.norm>
0

>  <SCORE.heavy>
52

>  <SCORE.norm>
0.0971712

>  <RMSD>
14.694

$$$$
2fd0_lig
 OpenBabel11021811433D
libRbt.so/2013.1/901 2013/11/27
 52 56  0  0  0  0  0  0  0  0999 V2000
   11.9579  -35.5044   15.6678 C   0  0  2  0  0  0  0  0  0  0  0  0
   12.5345  -35.6503   16.9729 O   0  0  0  0  0  0  0  0  0  0  0  0
   11.5250  -37.6714   20.6862 C   0  0  2  0  0  0  0  0  0  0  0  0
   10.8138  -38.0671   21.9128 N   0  0  0  0  0  0  0  0  0  0  0  0
   10.7216  -38.8014   16.0504 C   0  0  1  0  0  0  0  0  0  0  0  0
    9.6322  -42.8754   14.4534 C   0  0  1  0  0  0  0  0  0  0  0  0
    7.4469  -46.8221   16.2806 C   0  0  1  0  0  0  0  0  0  0  0  0
   12.9107  -34.6061   14.7979 C   0  0  2  0  0  0  0  0  0  0  0  0
   14.2561  -35.1582   14.7209 N   0  0  0  0  0  0  0  0  0  0  0  0
   11.8549  -36.1147   20.7169 C   0  0  0  0  0  0  0  0  0  0  0  0
   10.2351  -40.0472   16.7679 C   0  0  2  0  0  0  0  0  0  0  0  0
   11.3128  -40.7450   17.4534 O   0  0  0  0  0  0  0  0  0  0  0  0
    8.3045  -43.3373   15.2172 C   0  0  2  0  0  0  0  0  0  0  0  0
    8.6298  -43.8055   16.5921 N   0  0  0  0  0  0  0  0  0  0  0  0
    8.4273  -47.3656   17.3442 C   0  0  1  0  0  0  0  0  0  0  0  0
    9.0397  -46.2493   18.0361 O   0  0  0  0  0  0  0  0  0  0  0  0
   12.9267  -33.1318   15.3479 C   0  0  0  0  0  0  0  0  0  0  0  0
   12.6390  -35.6885   19.3854 C   0  0  2  0  0  0  0  0  0  0  0  0
   12.9539  -34.2523   19.3875 N   0  0  0  0  0  0  0  0  0  0  0  0
    9.5331  -40.8220   15.6654 C   0  0  2  0  0  0  0  0  0  0  0  0
   10.2751  -41.9454   15.2754 O   0  0  0  0  0  0  0  0  0  0  0  0
    7.5562  -44.4148   14.2739 C   0  0  1  0  0  0  0  0  0  0  0  0
    7.3100  -43.7937   12.9992 O   0  0  0  0  0  0  0  0  0  0  0  0
    7.8576  -48.3399   18.4106 C   0  0  1  0  0  0  0  0  0  0  0  0
    7.4707  -47.5663   19.5534 O   0  0  0  0  0  0  0  0  0  0  0  0
   11.4561  -32.6028   15.3939 C   0  0  2  0  0  0  0  0  0  0  0  0
   11.4289  -31.2611   15.8704 O   0  0  0  0  0  0  0  0  0  0  0  0
   11.7699  -36.0435   18.1467 C   0  0  2  0  0  0  0  0  0  0  0  0
    9.4539  -39.9282   14.4048 C   0  0  2  0  0  0  0  0  0  0  0  0
    9.9257  -38.6773   14.8846 O   0  0  0  0  0  0  0  0  0  0  0  0
    8.4829  -45.7075   13.9835 C   0  0  2  0  0  0  0  0  0  0  0  0
    8.6875  -46.3032   15.2785 O   0  0  0  0  0  0  0  0  0  0  0  0
    6.6568  -49.2070   17.9669 C   0  0  2  0  0  0  0  0  0  0  0  0
    6.8966  -50.5201   18.5191 O   0  0  0  0  0  0  0  0  0  0  0  0
   10.6075  -33.5138   16.3265 C   0  0  2  0  0  0  0  0  0  0  0  0
   10.6483  -34.8915   15.7883 O   0  0  0  0  0  0  0  0  0  0  0  0
   11.3707  -37.5500   18.1011 C   0  0  2  0  0  0  0  0  0  0  0  0
   10.5331  -37.7436   16.9362 O   0  0  0  0  0  0  0  0  0  0  0  0
    8.0516  -39.7272   13.8413 C   0  0  0  0  0  0  0  0  0  0  0  0
    7.4409  -38.6718   14.5991 O   0  0  0  0  0  0  0  0  0  0  0  0
    9.8080  -45.1583   13.4897 C   0  0  1  0  0  0  0  0  0  0  0  0
   10.5322  -44.0775   14.1138 O   0  0  0  0  0  0  0  0  0  0  0  0
    6.5082  -49.2014   16.4479 C   0  0  2  0  0  0  0  0  0  0  0  0
    6.4886  -47.8789   15.8427 O   0  0  0  0  0  0  0  0  0  0  0  0
    9.1770  -33.0810   16.3857 C   0  0  0  0  0  0  0  0  0  0  0  0
    8.5484  -33.7995   17.4125 O   0  0  0  0  0  0  0  0  0  0  0  0
   10.6165  -37.9493   19.4219 C   0  0  1  0  0  0  0  0  0  0  0  0
   10.3028  -39.3838   19.3654 O   0  0  0  0  0  0  0  0  0  0  0  0
   10.8699  -46.2762   13.1943 C   0  0  0  0  0  0  0  0  0  0  0  0
   12.2712  -45.7933   13.2437 N   0  0  0  0  0  0  0  0  0  0  0  0
    5.3938  -49.9703   15.7415 C   0  0  0  0  0  0  0  0  0  0  0  0
    5.8406  -50.4171   14.4243 O   0  0  0  0  0  0  0  0  0  0  0  0
  1  2  1  1  0  0  0
  1  8  1  0  0  0  0
  1 36  1  0  0  0  0
  3  4  1  1  0  0  0
  3 10  1  0  0  0  0
  3 47  1  0  0  0  0
  5 11  1  0  0  0  0
  5 30  1  0  0  0  0
  5 38  1  1  0  0  0
  6 21  1  1  0  0  0
  6 42  1  0  0  0  0
  7 15  1  0  0  0  0
  7 44  1  0  0  0  0
  7 32  1  6  0  0  0
  8  9  1  1  0  0  0
  8 17  1  0  0  0  0
 11 12  1  6  0  0  0
 11 20  1  0  0  0  0
 13  6  1  0  0  0  0
 13 14  1  1  0  0  0
 15 16  1  1  0  0  0
 15 24  1  0  0  0  0
 17 26  1  0  0  0  0
 18 10  1  0  0  0  0
 18 19  1  1  0  0  0
 20 21  1  6  0  0  0
 20 29  1  0  0  0  0
 22 13  1  0  0  0  0
 22 23  1  6  0  0  0
 24 25  1  1  0  0  0
 24 33  1  0  0  0  0
 26 27  1  1  0  0  0
 26 35  1  0  0  0  0
 28  2  1  6  0  0  0
 28 18  1  0  0  0  0
 29 30  1  0  0  0  0
 29 39  1  1  0  0  0
 31 22  1  0  0  0  0
 31 32  1  1  0  0  0
 31 41  1  0  0  0  0
 33 34  1  6  0  0  0
 33 43  1  0  0  0  0
 35 36  1  0  0  0  0
 35 45  1  6  0  0  0
 37 28  1  0  0  0  0
 37 38  1  6  0  0  0
 39 40  1  0  0  0  0
 41 42  1  0  0  0  0
 41 49  1  1  0  0  0
 43 44  1  0  0  0  0
 43 51  1  1  0  0  0
 45 46  1  0  0  0  0
 47 37  1  0  0  0  0
 47 48  1  6  0  0  0
 49 50  1  0  0  0  0
 51 52  1  0  0  0  0
M  END
>  <CHROM.1>
160.09229965,73.17672263,-56.23604609,177.04064295,168.40244901,-163.96490804
82.83917545,58.05354829,-169.88567085,133.73053229,-156.88299228,-149.07012091
9.73758697,-40.95723143,16.39843952,0.06025392,-1.28147511,-1.43565670

>  <Name>
2fd0_lig

>  <RI>
0

>  <Rbt.Current_Directory>
/home/itssahil/PROJECTS/Mol_Feturizer/New_Systems/rnas/2fd0

>  <Rbt.Executable>
rbdock ($Id: //depot/dev/client3/rdock/2013.1/src/exe/rbdock.cxx#4 $)

>  <Rbt.Library>
libRbt.so (2013.1, Build901 2013/11/27)

>  <Rbt.Parameter_File>
/export/apps/rDock/src/rDock_2013.1_src/data/scripts/dock_solv.prm

>  <Rbt.Receptor>
prm/blind_docking_100.prm

>  <SCORE>
-16.4149

>  <SCORE.INTER>
-21.4109

>  <SCORE.INTER.CONST>
1

>  <SCORE.INTER.POLAR>
-1.0504

>  <SCORE.INTER.ROT>
12

>  <SCORE.INTER.SOLV>
28.0728

>  <SCORE.INTER.VDW>
-31.7302

>  <SCORE.INTER.norm>
-0.411748

>  <SCORE.INTRA>
-0.314995

>  <SCORE.INTRA.DIHEDRAL>
-5.97056

>  <SCORE.INTRA.DIHEDRAL.0>
23.9727

>  <SCORE.INTRA.POLAR>
0

>  <SCORE.INTRA.POLAR.0>
0

>  <SCORE.INTRA.REPUL>
0.111813

>  <SCORE.INTRA.REPUL.0>
0

>  <SCORE.INTRA.SOLV>
-1.54026

>  <SCORE.INTRA.SOLV.lig_0>
-115.028

>  <SCORE.INTRA.VDW>
2.88135

>  <SCORE.INTRA.VDW.0>
-6.82393

>  <SCORE.INTRA.norm>
-0.0060576

>  <SCORE.RESTR>
5.31101

>  <SCORE.RESTR.CAVITY>
5.31101

>  <SCORE.RESTR.norm>
0.102135

>  <SCORE.SYSTEM>
0

>  <SCORE.SYSTEM.CONST>
0

>  <SCORE.SYSTEM.DIHEDRAL>
0

>  <SCORE.SYSTEM.SOLV>
0

>  <SCORE.SYSTEM.norm>
0

>  <SCORE.heavy>
52

>  <SCORE.norm>
-0.315671

>  <RMSD>
14.722

$$$$
2fd0_lig
 OpenBabel11021811433D
libRbt.so/2013.1/901 2013/11/27
 52 56  0  0  0  0  0  0  0  0999 V2000
    4.7301  -46.6108   13.0802 C   0  0  2  0  0  0  0  0  0  0  0  0
    5.5080  -46.3682   14.2604 O   0  0  0  0  0  0  0  0  0  0  0  0
    6.7268  -48.6309   17.7657 C   0  0  2  0  0  0  0  0  0  0  0  0
    7.2706  -49.7003   18.6186 N   0  0  0  0  0  0  0  0  0  0  0  0
    8.7211  -45.0891   14.9872 C   0  0  1  0  0  0  0  0  0  0  0  0
    9.3966  -41.1609   12.8943 C   0  0  1  0  0  0  0  0  0  0  0  0
   10.5305  -36.5776   15.3517 C   0  0  1  0  0  0  0  0  0  0  0  0
    5.5557  -47.5425   12.1200 C   0  0  2  0  0  0  0  0  0  0  0  0
    5.9336  -48.7907   12.7680 N   0  0  0  0  0  0  0  0  0  0  0  0
    5.5593  -49.1987   16.8451 C   0  0  0  0  0  0  0  0  0  0  0  0
    9.1767  -44.7984   13.5689 C   0  0  2  0  0  0  0  0  0  0  0  0
   10.6089  -44.9934   13.3988 O   0  0  0  0  0  0  0  0  0  0  0  0
   10.7678  -40.3375   12.8599 C   0  0  2  0  0  0  0  0  0  0  0  0
   11.4688  -40.4365   14.1691 N   0  0  0  0  0  0  0  0  0  0  0  0
   11.7288  -36.3755   14.3972 C   0  0  1  0  0  0  0  0  0  0  0  0
   11.2317  -36.0061   13.0871 O   0  0  0  0  0  0  0  0  0  0  0  0
    6.8158  -46.7796   11.5663 C   0  0  0  0  0  0  0  0  0  0  0  0
    4.9613  -48.0300   15.9253 C   0  0  2  0  0  0  0  0  0  0  0  0
    3.8811  -48.5295   15.0619 N   0  0  0  0  0  0  0  0  0  0  0  0
    8.6615  -43.3894   13.3285 C   0  0  2  0  0  0  0  0  0  0  0  0
    9.7067  -42.4554   13.3207 O   0  0  0  0  0  0  0  0  0  0  0  0
   10.4173  -38.8383   12.3697 C   0  0  1  0  0  0  0  0  0  0  0  0
    9.7600  -38.9309   11.0928 O   0  0  0  0  0  0  0  0  0  0  0  0
   12.8078  -35.3393   14.8132 C   0  0  1  0  0  0  0  0  0  0  0  0
   12.4664  -34.0822   14.2153 O   0  0  0  0  0  0  0  0  0  0  0  0
    6.3350  -45.4601   10.8788 C   0  0  2  0  0  0  0  0  0  0  0  0
    7.4473  -44.7473   10.3469 O   0  0  0  0  0  0  0  0  0  0  0  0
    6.1032  -47.4286   15.0593 C   0  0  2  0  0  0  0  0  0  0  0  0
    7.7599  -42.9819   14.5182 C   0  0  2  0  0  0  0  0  0  0  0  0
    7.6579  -44.1917   15.2554 O   0  0  0  0  0  0  0  0  0  0  0  0
    9.3788  -38.1052   13.3688 C   0  0  2  0  0  0  0  0  0  0  0  0
   10.0828  -38.0197   14.6221 O   0  0  0  0  0  0  0  0  0  0  0  0
   13.0005  -35.1314   16.3332 C   0  0  2  0  0  0  0  0  0  0  0  0
   14.4268  -35.0272   16.5365 O   0  0  0  0  0  0  0  0  0  0  0  0
    5.5880  -44.5771   11.9191 C   0  0  2  0  0  0  0  0  0  0  0  0
    4.4334  -45.3463   12.4334 O   0  0  0  0  0  0  0  0  0  0  0  0
    7.2995  -46.9094   15.9138 C   0  0  2  0  0  0  0  0  0  0  0  0
    8.3083  -46.4190   14.9984 O   0  0  0  0  0  0  0  0  0  0  0  0
    6.3534  -42.5316   14.1394 C   0  0  0  0  0  0  0  0  0  0  0  0
    5.6535  -42.2630   15.3638 O   0  0  0  0  0  0  0  0  0  0  0  0
    8.2183  -39.0687   13.5314 C   0  0  1  0  0  0  0  0  0  0  0  0
    8.3547  -40.4797   13.8005 O   0  0  0  0  0  0  0  0  0  0  0  0
   12.3515  -36.2615   17.1277 C   0  0  2  0  0  0  0  0  0  0  0  0
   10.9662  -36.5342   16.7784 O   0  0  0  0  0  0  0  0  0  0  0  0
    5.0697  -43.3115   11.3135 C   0  0  0  0  0  0  0  0  0  0  0  0
    6.1686  -42.5004   10.9967 O   0  0  0  0  0  0  0  0  0  0  0  0
    7.8605  -48.0672   16.8179 C   0  0  1  0  0  0  0  0  0  0  0  0
    8.9497  -47.5288   17.6445 O   0  0  0  0  0  0  0  0  0  0  0  0
    7.1130  -38.5459   14.5161 C   0  0  0  0  0  0  0  0  0  0  0  0
    5.9845  -39.4906   14.6991 N   0  0  0  0  0  0  0  0  0  0  0  0
   12.3838  -36.2992   18.6539 C   0  0  0  0  0  0  0  0  0  0  0  0
   11.7281  -35.1158   19.2055 O   0  0  0  0  0  0  0  0  0  0  0  0
  1  2  1  1  0  0  0
  1  8  1  0  0  0  0
  1 36  1  0  0  0  0
  3  4  1  6  0  0  0
  3 10  1  0  0  0  0
  3 47  1  0  0  0  0
  5 11  1  0  0  0  0
  5 30  1  0  0  0  0
  5 38  1  6  0  0  0
  6 21  1  1  0  0  0
  6 42  1  0  0  0  0
  7 15  1  0  0  0  0
  7 44  1  0  0  0  0
  7 32  1  6  0  0  0
  8  9  1  1  0  0  0
  8 17  1  0  0  0  0
 11 12  1  1  0  0  0
 11 20  1  0  0  0  0
 13  6  1  0  0  0  0
 13 14  1  1  0  0  0
 15 16  1  6  0  0  0
 15 24  1  0  0  0  0
 17 26  1  0  0  0  0
 18 10  1  0  0  0  0
 18 19  1  6  0  0  0
 20 21  1  1  0  0  0
 20 29  1  0  0  0  0
 22 13  1  0  0  0  0
 22 23  1  6  0  0  0
 24 25  1  6  0  0  0
 24 33  1  0  0  0  0
 26 27  1  1  0  0  0
 26 35  1  0  0  0  0
 28  2  1  1  0  0  0
 28 18  1  0  0  0  0
 29 30  1  0  0  0  0
 29 39  1  6  0  0  0
 31 22  1  0  0  0  0
 31 32  1  1  0  0  0
 31 41  1  0  0  0  0
 33 34  1  6  0  0  0
 33 43  1  0  0  0  0
 35 36  1  0  0  0  0
 35 45  1  6  0  0  0
 37 28  1  0  0  0  0
 37 38  1  6  0  0  0
 39 40  1  0  0  0  0
 41 42  1  0  0  0  0
 41 49  1  1  0  0  0
 43 44  1  0  0  0  0
 43 51  1  1  0  0  0
 45 46  1  0  0  0  0
 47 37  1  0  0  0  0
 47 48  1  1  0  0  0
 49 50  1  0  0  0  0
 51 52  1  0  0  0  0
M  END
>  <CHROM.1>
-52.08405934,-151.87305637,-175.28040519,-77.48959945,169.81822775,-78.19125319
177.14012615,115.62098140,-69.02272418,118.15148457,-179.05240755,60.08857745
8.47478714,-42.27296722,14.39503218,2.53205866,0.99799366,2.34539416

>  <Name>
2fd0_lig

>  <RI>
2.85265e+07

>  <Rbt.Current_Directory>
/home/itssahil/PROJECTS/Mol_Feturizer/New_Systems/rnas/2fd0

>  <Rbt.Executable>
rbdock ($Id: //depot/dev/client3/rdock/2013.1/src/exe/rbdock.cxx#4 $)

>  <Rbt.Library>
libRbt.so (2013.1, Build901 2013/11/27)

>  <Rbt.Parameter_File>
/export/apps/rDock/src/rDock_2013.1_src/data/scripts/dock_solv.prm

>  <Rbt.Receptor>
prm/blind_docking_60.prm

>  <SCORE>
-10.6196

>  <SCORE.INTER>
-14.2987

>  <SCORE.INTER.CONST>
1

>  <SCORE.INTER.POLAR>
-1.12777

>  <SCORE.INTER.ROT>
12

>  <SCORE.INTER.SOLV>
19.2049

>  <SCORE.INTER.VDW>
-23.7749

>  <SCORE.INTER.norm>
-0.274975

>  <SCORE.INTRA>
2.41413

>  <SCORE.INTRA.DIHEDRAL>
-1.00876

>  <SCORE.INTRA.DIHEDRAL.0>
23.9727

>  <SCORE.INTRA.POLAR>
0

>  <SCORE.INTRA.POLAR.0>
0

>  <SCORE.INTRA.REPUL>
0

>  <SCORE.INTRA.REPUL.0>
0

>  <SCORE.INTRA.SOLV>
4.64761

>  <SCORE.INTRA.SOLV.lig_0>
-115.028

>  <SCORE.INTRA.VDW>
0.594707

>  <SCORE.INTRA.VDW.0>
-6.82393

>  <SCORE.INTRA.norm>
0.0464256

>  <SCORE.RESTR>
1.26501

>  <SCORE.RESTR.CAVITY>
1.26501

>  <SCORE.RESTR.norm>
0.0243271

>  <SCORE.SYSTEM>
0

>  <SCORE.SYSTEM.CONST>
0

>  <SCORE.SYSTEM.DIHEDRAL>
0

>  <SCORE.SYSTEM.SOLV>
0

>  <SCORE.SYSTEM.norm>
0

>  <SCORE.heavy>
52

>  <SCORE.norm>
-0.204223

>  <RMSD>
14.752

$$$$
2fd0_lig
 OpenBabel11021811433D
libRbt.so/2013.1/901 2013/11/27
 52 56  0  0  0  0  0  0  0  0999 V2000
    6.3638  -47.0752   16.3639 C   0  0  2  0  0  0  0  0  0  0  0  0
    6.7508  -47.4167   15.0258 O   0  0  0  0  0  0  0  0  0  0  0  0
    6.0474  -46.2454   10.8996 C   0  0  2  0  0  0  0  0  0  0  0  0
    5.3689  -45.8211    9.6640 N   0  0  0  0  0  0  0  0  0  0  0  0
    7.3861  -43.7318   14.8145 C   0  0  1  0  0  0  0  0  0  0  0  0
    9.0522  -40.9778   15.4634 C   0  0  1  0  0  0  0  0  0  0  0  0
   12.8584  -37.3691   14.6189 C   0  0  1  0  0  0  0  0  0  0  0  0
    7.0217  -48.1050   17.3530 C   0  0  2  0  0  0  0  0  0  0  0  0
    8.4711  -48.1389   17.2159 N   0  0  0  0  0  0  0  0  0  0  0  0
    5.4174  -47.6047   11.4367 C   0  0  0  0  0  0  0  0  0  0  0  0
    6.6950  -42.6676   15.6471 C   0  0  2  0  0  0  0  0  0  0  0  0
    6.3279  -41.5015   14.8572 O   0  0  0  0  0  0  0  0  0  0  0  0
   10.6023  -41.0292   15.8557 C   0  0  2  0  0  0  0  0  0  0  0  0
   10.8899  -40.0861   16.9707 N   0  0  0  0  0  0  0  0  0  0  0  0
   12.3853  -36.4150   15.7386 C   0  0  1  0  0  0  0  0  0  0  0  0
   12.5811  -37.0592   17.0218 O   0  0  0  0  0  0  0  0  0  0  0  0
    6.3935  -49.5340   17.1535 C   0  0  0  0  0  0  0  0  0  0  0  0
    6.1651  -48.0704   12.7759 C   0  0  2  0  0  0  0  0  0  0  0  0
    5.5995  -49.3244   13.2950 N   0  0  0  0  0  0  0  0  0  0  0  0
    7.6823  -42.4252   16.7762 C   0  0  2  0  0  0  0  0  0  0  0  0
    8.3251  -41.1872   16.6387 O   0  0  0  0  0  0  0  0  0  0  0  0
   11.4502  -40.7856   14.5019 C   0  0  1  0  0  0  0  0  0  0  0  0
   11.0567  -41.7864   13.5454 O   0  0  0  0  0  0  0  0  0  0  0  0
   13.0370  -35.0071   15.8014 C   0  0  1  0  0  0  0  0  0  0  0  0
   14.1502  -35.0757   16.7016 O   0  0  0  0  0  0  0  0  0  0  0  0
    4.8432  -49.4231   17.3233 C   0  0  2  0  0  0  0  0  0  0  0  0
    4.2370  -50.7024   17.1678 O   0  0  0  0  0  0  0  0  0  0  0  0
    6.0446  -46.9473   13.8434 C   0  0  2  0  0  0  0  0  0  0  0  0
    8.8090  -43.4818   16.6845 C   0  0  2  0  0  0  0  0  0  0  0  0
    8.3333  -44.3513   15.6671 O   0  0  0  0  0  0  0  0  0  0  0  0
   11.1158  -39.3528   13.8314 C   0  0  2  0  0  0  0  0  0  0  0  0
   11.5401  -38.3875   14.8121 O   0  0  0  0  0  0  0  0  0  0  0  0
   13.5213  -34.4213   14.4549 C   0  0  2  0  0  0  0  0  0  0  0  0
   13.1566  -33.0239   14.4820 O   0  0  0  0  0  0  0  0  0  0  0  0
    4.2759  -48.4355   16.2638 C   0  0  2  0  0  0  0  0  0  0  0  0
    4.9174  -47.1182   16.4702 O   0  0  0  0  0  0  0  0  0  0  0  0
    6.5967  -45.5775   13.3436 C   0  0  2  0  0  0  0  0  0  0  0  0
    6.3887  -44.6117   14.4019 O   0  0  0  0  0  0  0  0  0  0  0  0
    9.0313  -44.3019   17.9504 C   0  0  0  0  0  0  0  0  0  0  0  0
    8.9974  -45.6850   17.5670 O   0  0  0  0  0  0  0  0  0  0  0  0
    9.6039  -39.2960   13.7202 C   0  0  1  0  0  0  0  0  0  0  0  0
    8.6894  -39.6468   14.7797 O   0  0  0  0  0  0  0  0  0  0  0  0
   12.9224  -35.1859   13.2775 C   0  0  2  0  0  0  0  0  0  0  0  0
   13.0852  -36.6297   13.3426 O   0  0  0  0  0  0  0  0  0  0  0  0
    2.7968  -48.2571   16.3964 C   0  0  0  0  0  0  0  0  0  0  0  0
    2.2108  -49.5290   16.4653 O   0  0  0  0  0  0  0  0  0  0  0  0
    5.8601  -45.1476   12.0226 C   0  0  1  0  0  0  0  0  0  0  0  0
    6.4412  -43.8817   11.5543 O   0  0  0  0  0  0  0  0  0  0  0  0
    9.0775  -37.9419   13.1255 C   0  0  0  0  0  0  0  0  0  0  0  0
    9.8749  -36.7614   13.5376 N   0  0  0  0  0  0  0  0  0  0  0  0
   13.2435  -34.8219   11.8296 C   0  0  0  0  0  0  0  0  0  0  0  0
   14.6324  -35.1518   11.5187 O   0  0  0  0  0  0  0  0  0  0  0  0
  1  2  1  6  0  0  0
  1  8  1  0  0  0  0
  1 36  1  0  0  0  0
  3  4  1  6  0  0  0
  3 10  1  0  0  0  0
  3 47  1  0  0  0  0
  5 11  1  0  0  0  0
  5 30  1  0  0  0  0
  5 38  1  1  0  0  0
  6 21  1  1  0  0  0
  6 42  1  0  0  0  0
  7 15  1  0  0  0  0
  7 44  1  0  0  0  0
  7 32  1  6  0  0  0
  8  9  1  6  0  0  0
  8 17  1  0  0  0  0
 11 12  1  6  0  0  0
 11 20  1  0  0  0  0
 13  6  1  0  0  0  0
 13 14  1  1  0  0  0
 15 16  1  1  0  0  0
 15 24  1  0  0  0  0
 17 26  1  0  0  0  0
 18 10  1  0  0  0  0
 18 19  1  1  0  0  0
 20 21  1  6  0  0  0
 20 29  1  0  0  0  0
 22 13  1  0  0  0  0
 22 23  1  6  0  0  0
 24 25  1  1  0  0  0
 24 33  1  0  0  0  0
 26 27  1  6  0  0  0
 26 35  1  0  0  0  0
 28  2  1  1  0  0  0
 28 18  1  0  0  0  0
 29 30  1  0  0  0  0
 29 39  1  1  0  0  0
 31 22  1  0  0  0  0
 31 32  1  1  0  0  0
 31 41  1  0  0  0  0
 33 34  1  6  0  0  0
 33 43  1  0  0  0  0
 35 36  1  0  0  0  0
 35 45  1  1  0  0  0
 37 28  1  0  0  0  0
 37 38  1  1  0  0  0
 39 40  1  0  0  0  0
 41 42  1  0  0  0  0
 41 49  1  1  0  0  0
 43 44  1  0  0  0  0
 43 51  1  6  0  0  0
 45 46  1  0  0  0  0
 47 37  1  0  0  0  0
 47 48  1  6  0  0  0
 49 50  1  0  0  0  0
 51 52  1  0  0  0  0
M  END
>  <CHROM.1>
161.49008272,165.33378034,-107.69831859,162.44108378,-58.86135516,-147.66378173
127.92305071,110.65924103,-49.40293393,133.32303453,-35.59226260,69.39287917
8.63658845,-42.51515531,14.85853495,-2.73948792,-0.96929862,-1.17308102

>  <Name>
2fd0_lig

>  <RI>
2.85265e+07

>  <Rbt.Current_Directory>
/home/itssahil/PROJECTS/Mol_Feturizer/New_Systems/rnas/2fd0

>  <Rbt.Executable>
rbdock ($Id: //depot/dev/client3/rdock/2013.1/src/exe/rbdock.cxx#4 $)

>  <Rbt.Library>
libRbt.so (2013.1, Build901 2013/11/27)

>  <Rbt.Parameter_File>
/export/apps/rDock/src/rDock_2013.1_src/data/scripts/dock_solv.prm

>  <Rbt.Receptor>
prm/blind_docking_60.prm

>  <SCORE>
6.86913

>  <SCORE.INTER>
-5.40342

>  <SCORE.INTER.CONST>
1

>  <SCORE.INTER.POLAR>
-0.937769

>  <SCORE.INTER.ROT>
12

>  <SCORE.INTER.SOLV>
30.1568

>  <SCORE.INTER.VDW>
-22.1286

>  <SCORE.INTER.norm>
-0.103912

>  <SCORE.INTRA>
11.3208

>  <SCORE.INTRA.DIHEDRAL>
11.6665

>  <SCORE.INTRA.DIHEDRAL.0>
23.9727

>  <SCORE.INTRA.POLAR>
0

>  <SCORE.INTRA.POLAR.0>
0

>  <SCORE.INTRA.REPUL>
0

>  <SCORE.INTRA.REPUL.0>
0

>  <SCORE.INTRA.SOLV>
5.57009

>  <SCORE.INTRA.SOLV.lig_0>
-115.028

>  <SCORE.INTRA.VDW>
2.70247

>  <SCORE.INTRA.VDW.0>
-6.82393

>  <SCORE.INTRA.norm>
0.217707

>  <SCORE.RESTR>
0.951791

>  <SCORE.RESTR.CAVITY>
0.951791

>  <SCORE.RESTR.norm>
0.0183037

>  <SCORE.SYSTEM>
0

>  <SCORE.SYSTEM.CONST>
0

>  <SCORE.SYSTEM.DIHEDRAL>
0

>  <SCORE.SYSTEM.SOLV>
0

>  <SCORE.SYSTEM.norm>
0

>  <SCORE.heavy>
52

>  <SCORE.norm>
0.132099

>  <RMSD>
14.800

$$$$
2fd0_lig
 OpenBabel11021811433D
libRbt.so/2013.1/901 2013/11/27
 52 56  0  0  0  0  0  0  0  0999 V2000
   15.1693  -37.0417   14.6695 C   0  0  2  0  0  0  0  0  0  0  0  0
   14.8762  -36.3865   15.9112 O   0  0  0  0  0  0  0  0  0  0  0  0
   11.6577  -34.2756   17.9305 C   0  0  2  0  0  0  0  0  0  0  0  0
   10.5287  -33.3668   18.1882 N   0  0  0  0  0  0  0  0  0  0  0  0
   10.9646  -37.9715   15.4417 C   0  0  1  0  0  0  0  0  0  0  0  0
    8.8364  -41.4006   13.2813 C   0  0  1  0  0  0  0  0  0  0  0  0
    7.5024  -45.7327   15.3059 C   0  0  1  0  0  0  0  0  0  0  0  0
   16.5157  -36.4603   14.1031 C   0  0  2  0  0  0  0  0  0  0  0  0
   17.6121  -36.6102   15.0497 N   0  0  0  0  0  0  0  0  0  0  0  0
   12.9225  -33.4544   17.4215 C   0  0  0  0  0  0  0  0  0  0  0  0
   10.9615  -38.7276   14.1257 C   0  0  2  0  0  0  0  0  0  0  0  0
   10.2430  -38.0131   13.0809 O   0  0  0  0  0  0  0  0  0  0  0  0
    7.5603  -42.1154   13.9292 C   0  0  2  0  0  0  0  0  0  0  0  0
    7.7694  -42.3355   15.3863 N   0  0  0  0  0  0  0  0  0  0  0  0
    8.5343  -46.2192   16.3480 C   0  0  1  0  0  0  0  0  0  0  0  0
    8.8886  -45.1126   17.2139 O   0  0  0  0  0  0  0  0  0  0  0  0
   16.3271  -34.9570   13.6776 C   0  0  0  0  0  0  0  0  0  0  0  0
   14.1539  -34.4447   17.1523 C   0  0  2  0  0  0  0  0  0  0  0  0
   15.3360  -33.7104   16.6778 N   0  0  0  0  0  0  0  0  0  0  0  0
   10.3991  -40.0845   14.5145 C   0  0  2  0  0  0  0  0  0  0  0  0
    9.0917  -40.2536   14.0382 O   0  0  0  0  0  0  0  0  0  0  0  0
    7.2598  -43.4444   13.0607 C   0  0  1  0  0  0  0  0  0  0  0  0
    7.0727  -43.0464   11.6904 O   0  0  0  0  0  0  0  0  0  0  0  0
    8.1335  -47.4228   17.2435 C   0  0  1  0  0  0  0  0  0  0  0  0
    7.5618  -46.9036   18.4509 O   0  0  0  0  0  0  0  0  0  0  0  0
   15.1446  -34.8740   12.6580 C   0  0  2  0  0  0  0  0  0  0  0  0
   14.9529  -33.5283   12.2332 O   0  0  0  0  0  0  0  0  0  0  0  0
   13.7303  -35.5108   16.1036 C   0  0  2  0  0  0  0  0  0  0  0  0
   10.2827  -40.1491   16.0562 C   0  0  2  0  0  0  0  0  0  0  0  0
   10.9295  -38.9521   16.4640 O   0  0  0  0  0  0  0  0  0  0  0  0
    8.5107  -44.4688   13.0747 C   0  0  2  0  0  0  0  0  0  0  0  0
    8.6486  -44.8513   14.4561 O   0  0  0  0  0  0  0  0  0  0  0  0
    7.1449  -48.4348   16.6198 C   0  0  2  0  0  0  0  0  0  0  0  0
    7.6219  -49.7407   17.0116 O   0  0  0  0  0  0  0  0  0  0  0  0
   13.8460  -35.4088   13.3269 C   0  0  2  0  0  0  0  0  0  0  0  0
   14.0816  -36.8107   13.7374 O   0  0  0  0  0  0  0  0  0  0  0  0
   12.4583  -36.3052   16.5303 C   0  0  2  0  0  0  0  0  0  0  0  0
   12.1417  -37.2278   15.4604 O   0  0  0  0  0  0  0  0  0  0  0  0
   10.9972  -41.3266   16.7100 C   0  0  0  0  0  0  0  0  0  0  0  0
   11.7561  -41.9816   15.6823 O   0  0  0  0  0  0  0  0  0  0  0  0
    9.7202  -43.6429   12.6792 C   0  0  1  0  0  0  0  0  0  0  0  0
   10.0473  -42.3503   13.2308 O   0  0  0  0  0  0  0  0  0  0  0  0
    7.0500  -48.2478   15.1079 C   0  0  2  0  0  0  0  0  0  0  0  0
    6.7887  -46.8831   14.6781 O   0  0  0  0  0  0  0  0  0  0  0  0
   12.6812  -35.3895   12.3889 C   0  0  0  0  0  0  0  0  0  0  0  0
   12.9593  -36.2698   11.3337 O   0  0  0  0  0  0  0  0  0  0  0  0
   11.2684  -35.3140   16.8030 C   0  0  1  0  0  0  0  0  0  0  0  0
   10.1054  -36.0922   17.2517 O   0  0  0  0  0  0  0  0  0  0  0  0
   11.0580  -44.4644   12.6806 C   0  0  0  0  0  0  0  0  0  0  0  0
   11.0040  -45.6874   13.5177 N   0  0  0  0  0  0  0  0  0  0  0  0
    6.1355  -49.1115   14.2421 C   0  0  0  0  0  0  0  0  0  0  0  0
    6.4360  -50.5274   14.4407 O   0  0  0  0  0  0  0  0  0  0  0  0
  1  2  1  1  0  0  0
  1  8  1  0  0  0  0
  1 36  1  0  0  0  0
  3  4  1  6  0  0  0
  3 10  1  0  0  0  0
  3 47  1  0  0  0  0
  5 11  1  0  0  0  0
  5 30  1  0  0  0  0
  5 38  1  1  0  0  0
  6 21  1  1  0  0  0
  6 42  1  0  0  0  0
  7 15  1  0  0  0  0
  7 44  1  0  0  0  0
  7 32  1  6  0  0  0
  8  9  1  1  0  0  0
  8 17  1  0  0  0  0
 11 12  1  6  0  0  0
 11 20  1  0  0  0  0
 13  6  1  0  0  0  0
 13 14  1  1  0  0  0
 15 16  1  1  0  0  0
 15 24  1  0  0  0  0
 17 26  1  0  0  0  0
 18 10  1  0  0  0  0
 18 19  1  6  0  0  0
 20 21  1  6  0  0  0
 20 29  1  0  0  0  0
 22 13  1  0  0  0  0
 22 23  1  6  0  0  0
 24 25  1  1  0  0  0
 24 33  1  0  0  0  0
 26 27  1  1  0  0  0
 26 35  1  0  0  0  0
 28  2  1  1  0  0  0
 28 18  1  0  0  0  0
 29 30  1  0  0  0  0
 29 39  1  1  0  0  0
 31 22  1  0  0  0  0
 31 32  1  1  0  0  0
 31 41  1  0  0  0  0
 33 34  1  6  0  0  0
 33 43  1  0  0  0  0
 35 36  1  0  0  0  0
 35 45  1  6  0  0  0
 37 28  1  0  0  0  0
 37 38  1  6  0  0  0
 39 40  1  0  0  0  0
 41 42  1  0  0  0  0
 41 49  1  1  0  0  0
 43 44  1  0  0  0  0
 43 51  1  1  0  0  0
 45 46  1  0  0  0  0
 47 37  1  0  0  0  0
 47 48  1  1  0  0  0
 49 50  1  0  0  0  0
 51 52  1  0  0  0  0
M  END
>  <CHROM.1>
114.20325253,175.97460321,128.23837029,157.83366157,126.71543715,-148.74125718
7.55495769,65.55356582,63.75055427,-171.63276536,-21.50072435,-55.51110057
10.80847438,-40.49190075,14.95797385,-0.51957617,-0.99910362,-2.17817077

>  <Name>
2fd0_lig

>  <RI>
0

>  <Rbt.Current_Directory>
/home/itssahil/PROJECTS/Mol_Feturizer/New_Systems/rnas/2fd0

>  <Rbt.Executable>
rbdock ($Id: //depot/dev/client3/rdock/2013.1/src/exe/rbdock.cxx#4 $)

>  <Rbt.Library>
libRbt.so (2013.1, Build901 2013/11/27)

>  <Rbt.Parameter_File>
/export/apps/rDock/src/rDock_2013.1_src/data/scripts/dock_solv.prm

>  <Rbt.Receptor>
prm/blind_docking_100.prm

>  <SCORE>
4.31439

>  <SCORE.INTER>
-9.02468

>  <SCORE.INTER.CONST>
1

>  <SCORE.INTER.POLAR>
-0.43641

>  <SCORE.INTER.ROT>
12

>  <SCORE.INTER.SOLV>
28.1602

>  <SCORE.INTER.VDW>
-25.5485

>  <SCORE.INTER.norm>
-0.173552

>  <SCORE.INTRA>
10.5209

>  <SCORE.INTRA.DIHEDRAL>
12.4983

>  <SCORE.INTRA.DIHEDRAL.0>
23.9727

>  <SCORE.INTRA.POLAR>
0

>  <SCORE.INTRA.POLAR.0>
0

>  <SCORE.INTRA.REPUL>
0

>  <SCORE.INTRA.REPUL.0>
0

>  <SCORE.INTRA.SOLV>
3.55326

>  <SCORE.INTRA.SOLV.lig_0>
-115.028

>  <SCORE.INTRA.VDW>
2.49509

>  <SCORE.INTRA.VDW.0>
-6.82393

>  <SCORE.INTRA.norm>
0.202324

>  <SCORE.RESTR>
2.8182

>  <SCORE.RESTR.CAVITY>
2.8182

>  <SCORE.RESTR.norm>
0.0541962

>  <SCORE.SYSTEM>
0

>  <SCORE.SYSTEM.CONST>
0

>  <SCORE.SYSTEM.DIHEDRAL>
0

>  <SCORE.SYSTEM.SOLV>
0

>  <SCORE.SYSTEM.norm>
0

>  <SCORE.heavy>
52

>  <SCORE.norm>
0.082969

>  <RMSD>
14.816

$$$$
2fd0_lig
 OpenBabel11021811433D
libRbt.so/2013.1/901 2013/11/27
 52 56  0  0  0  0  0  0  0  0999 V2000
    6.3047  -49.8909   17.0676 C   0  0  2  0  0  0  0  0  0  0  0  0
    6.7189  -48.5178   17.0614 O   0  0  0  0  0  0  0  0  0  0  0  0
    8.6198  -46.0352   20.0806 C   0  0  2  0  0  0  0  0  0  0  0  0
    9.6150  -45.4953   21.0213 N   0  0  0  0  0  0  0  0  0  0  0  0
    8.2838  -45.5270   15.3054 C   0  0  1  0  0  0  0  0  0  0  0  0
    9.3544  -41.4243   13.5524 C   0  0  1  0  0  0  0  0  0  0  0  0
   11.6316  -37.4868   16.1465 C   0  0  1  0  0  0  0  0  0  0  0  0
    6.4029  -50.4494   15.6013 C   0  0  2  0  0  0  0  0  0  0  0  0
    7.7453  -50.3064   15.0551 N   0  0  0  0  0  0  0  0  0  0  0  0
    8.3189  -47.5626   20.4114 C   0  0  0  0  0  0  0  0  0  0  0  0
    8.9856  -44.2570   15.7504 C   0  0  2  0  0  0  0  0  0  0  0  0
    8.1385  -43.4246   16.5916 O   0  0  0  0  0  0  0  0  0  0  0  0
   10.7377  -41.2786   14.3429 C   0  0  2  0  0  0  0  0  0  0  0  0
   10.4948  -41.1991   15.8092 N   0  0  0  0  0  0  0  0  0  0  0  0
   10.7529  -36.2247   15.9957 C   0  0  1  0  0  0  0  0  0  0  0  0
    9.5714  -36.3705   16.8220 O   0  0  0  0  0  0  0  0  0  0  0  0
    5.3320  -49.7576   14.6788 C   0  0  0  0  0  0  0  0  0  0  0  0
    7.2269  -48.1451   19.3929 C   0  0  2  0  0  0  0  0  0  0  0  0
    6.9325  -49.5577   19.6755 N   0  0  0  0  0  0  0  0  0  0  0  0
    9.4355  -43.6392   14.4372 C   0  0  2  0  0  0  0  0  0  0  0  0
    8.6735  -42.5078   14.1148 O   0  0  0  0  0  0  0  0  0  0  0  0
   11.5304  -40.0261   13.6998 C   0  0  1  0  0  0  0  0  0  0  0  0
   11.6867  -40.2754   12.2911 O   0  0  0  0  0  0  0  0  0  0  0  0
   11.4058  -34.8550   16.3253 C   0  0  1  0  0  0  0  0  0  0  0  0
   11.1297  -34.5536   17.6990 O   0  0  0  0  0  0  0  0  0  0  0  0
    3.9201  -49.9589   15.3198 C   0  0  2  0  0  0  0  0  0  0  0  0
    2.9178  -49.3613   14.5034 O   0  0  0  0  0  0  0  0  0  0  0  0
    7.7525  -47.9892   17.9385 C   0  0  2  0  0  0  0  0  0  0  0  0
    9.1669  -44.6498   13.2966 C   0  0  2  0  0  0  0  0  0  0  0  0
    8.7681  -45.8145   14.0051 O   0  0  0  0  0  0  0  0  0  0  0  0
   10.6916  -38.6501   13.8324 C   0  0  2  0  0  0  0  0  0  0  0  0
   10.5756  -38.4334   15.2512 O   0  0  0  0  0  0  0  0  0  0  0  0
   12.9307  -34.7546   16.0904 C   0  0  2  0  0  0  0  0  0  0  0  0
   13.1515  -33.4541   15.5018 O   0  0  0  0  0  0  0  0  0  0  0  0
    3.8996  -49.3193   16.7376 C   0  0  2  0  0  0  0  0  0  0  0  0
    4.9414  -49.9779   17.5564 O   0  0  0  0  0  0  0  0  0  0  0  0
    8.1171  -46.5155   17.5831 C   0  0  2  0  0  0  0  0  0  0  0  0
    8.6319  -46.5084   16.2299 O   0  0  0  0  0  0  0  0  0  0  0  0
   10.3810  -45.0001   12.4435 C   0  0  0  0  0  0  0  0  0  0  0  0
   11.3189  -45.6684   13.3008 O   0  0  0  0  0  0  0  0  0  0  0  0
    9.3137  -38.9558   13.2762 C   0  0  1  0  0  0  0  0  0  0  0  0
    8.5339  -40.1228   13.6110 O   0  0  0  0  0  0  0  0  0  0  0  0
   13.4292  -35.9090   15.2252 C   0  0  2  0  0  0  0  0  0  0  0  0
   13.0260  -37.2300   15.6808 O   0  0  0  0  0  0  0  0  0  0  0  0
    2.5830  -49.5095   17.4214 C   0  0  0  0  0  0  0  0  0  0  0  0
    1.6558  -48.6425   16.8261 O   0  0  0  0  0  0  0  0  0  0  0  0
    9.1777  -45.9603   18.6026 C   0  0  1  0  0  0  0  0  0  0  0  0
    9.4571  -44.5569   18.2684 O   0  0  0  0  0  0  0  0  0  0  0  0
    8.3272  -37.7376   13.3622 C   0  0  0  0  0  0  0  0  0  0  0  0
    7.2239  -37.9333   14.3337 N   0  0  0  0  0  0  0  0  0  0  0  0
   14.9011  -36.0591   14.8472 C   0  0  0  0  0  0  0  0  0  0  0  0
   15.0262  -36.6136   13.5013 O   0  0  0  0  0  0  0  0  0  0  0  0
  1  2  1  6  0  0  0
  1  8  1  0  0  0  0
  1 36  1  0  0  0  0
  3  4  1  1  0  0  0
  3 10  1  0  0  0  0
  3 47  1  0  0  0  0
  5 11  1  0  0  0  0
  5 30  1  0  0  0  0
  5 38  1  1  0  0  0
  6 21  1  1  0  0  0
  6 42  1  0  0  0  0
  7 15  1  0  0  0  0
  7 44  1  0  0  0  0
  7 32  1  6  0  0  0
  8  9  1  6  0  0  0
  8 17  1  0  0  0  0
 11 12  1  6  0  0  0
 11 20  1  0  0  0  0
 13  6  1  0  0  0  0
 13 14  1  1  0  0  0
 15 16  1  1  0  0  0
 15 24  1  0  0  0  0
 17 26  1  0  0  0  0
 18 10  1  0  0  0  0
 18 19  1  1  0  0  0
 20 21  1  6  0  0  0
 20 29  1  0  0  0  0
 22 13  1  0  0  0  0
 22 23  1  6  0  0  0
 24 25  1  1  0  0  0
 24 33  1  0  0  0  0
 26 27  1  6  0  0  0
 26 35  1  0  0  0  0
 28  2  1  6  0  0  0
 28 18  1  0  0  0  0
 29 30  1  0  0  0  0
 29 39  1  1  0  0  0
 31 22  1  0  0  0  0
 31 32  1  1  0  0  0
 31 41  1  0  0  0  0
 33 34  1  6  0  0  0
 33 43  1  0  0  0  0
 35 36  1  0  0  0  0
 35 45  1  1  0  0  0
 37 28  1  0  0  0  0
 37 38  1  6  0  0  0
 39 40  1  0  0  0  0
 41 42  1  0  0  0  0
 41 49  1  1  0  0  0
 43 44  1  0  0  0  0
 43 51  1  1  0  0  0
 45 46  1  0  0  0  0
 47 37  1  0  0  0  0
 47 48  1  6  0  0  0
 49 50  1  0  0  0  0
 51 52  1  0  0  0  0
M  END
>  <CHROM.1>
-126.59838767,71.67352532,-41.01575842,93.05754433,140.62423837,-63.56812849
64.41454989,94.07427491,-74.16764616,137.92717124,-111.17131890,-145.18616374
8.94277726,-43.11628819,15.81745026,-2.82346584,-1.08869013,-1.35971936

>  <Name>
2fd0_lig

>  <RI>
0

>  <Rbt.Current_Directory>
/home/itssahil/PROJECTS/Mol_Feturizer/New_Systems/rnas/2fd0

>  <Rbt.Executable>
rbdock ($Id: //depot/dev/client3/rdock/2013.1/src/exe/rbdock.cxx#4 $)

>  <Rbt.Library>
libRbt.so (2013.1, Build901 2013/11/27)

>  <Rbt.Parameter_File>
/export/apps/rDock/src/rDock_2013.1_src/data/scripts/dock_solv.prm

>  <Rbt.Receptor>
prm/blind_docking_100.prm

>  <SCORE>
11.9154

>  <SCORE.INTER>
-7.43513

>  <SCORE.INTER.CONST>
1

>  <SCORE.INTER.POLAR>
-0.0794737

>  <SCORE.INTER.ROT>
12

>  <SCORE.INTER.SOLV>
30.5505

>  <SCORE.INTER.VDW>
-26.4753

>  <SCORE.INTER.norm>
-0.142983

>  <SCORE.INTRA>
12.8858

>  <SCORE.INTRA.DIHEDRAL>
13.3366

>  <SCORE.INTRA.DIHEDRAL.0>
23.9727

>  <SCORE.INTRA.POLAR>
0

>  <SCORE.INTRA.POLAR.0>
0

>  <SCORE.INTRA.REPUL>
0.0266185

>  <SCORE.INTRA.REPUL.0>
0

>  <SCORE.INTRA.SOLV>
1.12912

>  <SCORE.INTRA.SOLV.lig_0>
-115.028

>  <SCORE.INTRA.VDW>
5.51985

>  <SCORE.INTRA.VDW.0>
-6.82393

>  <SCORE.INTRA.norm>
0.247804

>  <SCORE.RESTR>
6.46472

>  <SCORE.RESTR.CAVITY>
6.46472

>  <SCORE.RESTR.norm>
0.124321

>  <SCORE.SYSTEM>
0

>  <SCORE.SYSTEM.CONST>
0

>  <SCORE.SYSTEM.DIHEDRAL>
0

>  <SCORE.SYSTEM.SOLV>
0

>  <SCORE.SYSTEM.norm>
0

>  <SCORE.heavy>
52

>  <SCORE.norm>
0.229142

>  <RMSD>
14.828

$$$$
2fd0_lig
 OpenBabel11021811433D
libRbt.so/2013.1/901 2013/11/27
 52 56  0  0  0  0  0  0  0  0999 V2000
    5.3998  -47.8760   14.3782 C   0  0  2  0  0  0  0  0  0  0  0  0
    6.7907  -48.2073   14.4905 O   0  0  0  0  0  0  0  0  0  0  0  0
    7.7926  -47.0574   18.5607 C   0  0  2  0  0  0  0  0  0  0  0  0
    8.4867  -46.9645   19.8555 N   0  0  0  0  0  0  0  0  0  0  0  0
    8.5516  -45.2916   13.9952 C   0  0  1  0  0  0  0  0  0  0  0  0
    8.5055  -41.0480   13.8528 C   0  0  1  0  0  0  0  0  0  0  0  0
   11.5592  -36.7692   13.7609 C   0  0  1  0  0  0  0  0  0  0  0  0
    4.7131  -48.9184   13.4225 C   0  0  2  0  0  0  0  0  0  0  0  0
    4.8931  -50.2853   13.8917 N   0  0  0  0  0  0  0  0  0  0  0  0
    7.3827  -48.5658   18.2610 C   0  0  0  0  0  0  0  0  0  0  0  0
    8.9304  -43.9596   14.6164 C   0  0  2  0  0  0  0  0  0  0  0  0
    7.8155  -43.3417   15.3188 O   0  0  0  0  0  0  0  0  0  0  0  0
    8.5413  -39.7612   12.9029 C   0  0  2  0  0  0  0  0  0  0  0  0
    9.7358  -39.8006   12.0158 N   0  0  0  0  0  0  0  0  0  0  0  0
   12.8744  -37.1828   14.4586 C   0  0  1  0  0  0  0  0  0  0  0  0
   13.5585  -38.1597   13.6356 O   0  0  0  0  0  0  0  0  0  0  0  0
    5.2417  -48.7433   11.9507 C   0  0  0  0  0  0  0  0  0  0  0  0
    6.6173  -48.6628   16.8559 C   0  0  2  0  0  0  0  0  0  0  0  0
    6.2293  -50.0484   16.5535 N   0  0  0  0  0  0  0  0  0  0  0  0
    9.4903  -43.1817   13.4374 C   0  0  2  0  0  0  0  0  0  0  0  0
    8.6113  -42.1702   13.0262 O   0  0  0  0  0  0  0  0  0  0  0  0
    8.4217  -38.4586   13.8516 C   0  0  1  0  0  0  0  0  0  0  0  0
    7.2131  -38.5809   14.6232 O   0  0  0  0  0  0  0  0  0  0  0  0
   13.8836  -36.0557   14.8085 C   0  0  1  0  0  0  0  0  0  0  0  0
   14.8118  -35.9415   13.7224 O   0  0  0  0  0  0  0  0  0  0  0  0
    5.0083  -47.2607   11.5122 C   0  0  2  0  0  0  0  0  0  0  0  0
    5.4579  -47.0649   10.1752 O   0  0  0  0  0  0  0  0  0  0  0  0
    7.5395  -48.1089   15.7342 C   0  0  2  0  0  0  0  0  0  0  0  0
    9.6086  -44.1363   12.2253 C   0  0  2  0  0  0  0  0  0  0  0  0
    9.3008  -45.3994   12.7973 O   0  0  0  0  0  0  0  0  0  0  0  0
    9.6379  -38.3731   14.9135 C   0  0  2  0  0  0  0  0  0  0  0  0
   10.8182  -38.2349   14.1001 O   0  0  0  0  0  0  0  0  0  0  0  0
   13.2756  -34.6627   15.0922 C   0  0  2  0  0  0  0  0  0  0  0  0
   14.0125  -34.1355   16.2171 O   0  0  0  0  0  0  0  0  0  0  0  0
    5.7761  -46.3096   12.4743 C   0  0  2  0  0  0  0  0  0  0  0  0
    5.2686  -46.5325   13.8463 O   0  0  0  0  0  0  0  0  0  0  0  0
    8.0166  -46.6504   16.0102 C   0  0  2  0  0  0  0  0  0  0  0  0
    8.8969  -46.2675   14.9264 O   0  0  0  0  0  0  0  0  0  0  0  0
   10.9967  -44.2188   11.6000 C   0  0  0  0  0  0  0  0  0  0  0  0
   11.2744  -42.9347   11.0211 O   0  0  0  0  0  0  0  0  0  0  0  0
    9.6789  -39.7261   15.5984 C   0  0  1  0  0  0  0  0  0  0  0  0
    9.6203  -40.9947   14.9134 O   0  0  0  0  0  0  0  0  0  0  0  0
   11.7725  -34.7605   15.3387 C   0  0  2  0  0  0  0  0  0  0  0  0
   11.0341  -35.4886   14.3189 O   0  0  0  0  0  0  0  0  0  0  0  0
    5.5640  -44.8698   12.1294 C   0  0  0  0  0  0  0  0  0  0  0  0
    6.1522  -44.0913   13.1362 O   0  0  0  0  0  0  0  0  0  0  0  0
    8.7511  -46.5757   17.3986 C   0  0  1  0  0  0  0  0  0  0  0  0
    9.1393  -45.1805   17.6475 O   0  0  0  0  0  0  0  0  0  0  0  0
   10.8405  -39.8543   16.6467 C   0  0  0  0  0  0  0  0  0  0  0  0
   10.6686  -38.9828   17.8343 N   0  0  0  0  0  0  0  0  0  0  0  0
   10.9195  -33.5286   15.6333 C   0  0  0  0  0  0  0  0  0  0  0  0
    9.7753  -33.8901   16.4667 O   0  0  0  0  0  0  0  0  0  0  0  0
  1  2  1  6  0  0  0
  1  8  1  0  0  0  0
  1 36  1  0  0  0  0
  3  4  1  1  0  0  0
  3 10  1  0  0  0  0
  3 47  1  0  0  0  0
  5 11  1  0  0  0  0
  5 30  1  0  0  0  0
  5 38  1  1  0  0  0
  6 21  1  6  0  0  0
  6 42  1  0  0  0  0
  7 15  1  0  0  0  0
  7 44  1  0  0  0  0
  7 32  1  1  0  0  0
  8  9  1  1  0  0  0
  8 17  1  0  0  0  0
 11 12  1  6  0  0  0
 11 20  1  0  0  0  0
 13  6  1  0  0  0  0
 13 14  1  1  0  0  0
 15 16  1  6  0  0  0
 15 24  1  0  0  0  0
 17 26  1  0  0  0  0
 18 10  1  0  0  0  0
 18 19  1  6  0  0  0
 20 21  1  6  0  0  0
 20 29  1  0  0  0  0
 22 13  1  0  0  0  0
 22 23  1  1  0  0  0
 24 25  1  6  0  0  0
 24 33  1  0  0  0  0
 26 27  1  6  0  0  0
 26 35  1  0  0  0  0
 28  2  1  6  0  0  0
 28 18  1  0  0  0  0
 29 30  1  0  0  0  0
 29 39  1  1  0  0  0
 31 22  1  0  0  0  0
 31 32  1  6  0  0  0
 31 41  1  0  0  0  0
 33 34  1  1  0  0  0
 33 43  1  0  0  0  0
 35 36  1  0  0  0  0
 35 45  1  6  0  0  0
 37 28  1  0  0  0  0
 37 38  1  6  0  0  0
 39 40  1  0  0  0  0
 41 42  1  0  0  0  0
 41 49  1  6  0  0  0
 43 44  1  0  0  0  0
 43 51  1  6  0  0  0
 45 46  1  0  0  0  0
 47 37  1  0  0  0  0
 47 48  1  1  0  0  0
 49 50  1  0  0  0  0
 51 52  1  0  0  0  0
M  END
>  <CHROM.1>
-140.88931080,84.89846347,135.48623300,118.00714647,73.06776634,41.94464445
-66.48621178,97.54528793,172.89316143,111.88854593,67.38082007,-150.91532059
8.96436226,-42.50801082,14.51684238,2.69339772,1.08490739,2.09809454

>  <Name>
2fd0_lig

>  <RI>
2.60878e+07

>  <Rbt.Current_Directory>
/home/itssahil/PROJECTS/Mol_Feturizer/New_Systems/rnas/2fd0

>  <Rbt.Executable>
rbdock ($Id: //depot/dev/client3/rdock/2013.1/src/exe/rbdock.cxx#4 $)

>  <Rbt.Library>
libRbt.so (2013.1, Build901 2013/11/27)

>  <Rbt.Parameter_File>
/export/apps/rDock/src/rDock_2013.1_src/data/scripts/dock_solv.prm

>  <Rbt.Receptor>
prm/blind_docking_80.prm

>  <SCORE>
-3.70713

>  <SCORE.INTER>
-12.6851

>  <SCORE.INTER.CONST>
1

>  <SCORE.INTER.POLAR>
-1.10066

>  <SCORE.INTER.ROT>
12

>  <SCORE.INTER.SOLV>
22.4737

>  <SCORE.INTER.VDW>
-23.8791

>  <SCORE.INTER.norm>
-0.243945

>  <SCORE.INTRA>
8.02698

>  <SCORE.INTRA.DIHEDRAL>
15.3216

>  <SCORE.INTRA.DIHEDRAL.0>
23.9727

>  <SCORE.INTRA.POLAR>
0

>  <SCORE.INTRA.POLAR.0>
0

>  <SCORE.INTRA.REPUL>
0.0102177

>  <SCORE.INTRA.REPUL.0>
0

>  <SCORE.INTRA.SOLV>
0.684309

>  <SCORE.INTRA.SOLV.lig_0>
-115.028

>  <SCORE.INTRA.VDW>
-0.0270678

>  <SCORE.INTRA.VDW.0>
-6.82393

>  <SCORE.INTRA.norm>
0.154365

>  <SCORE.RESTR>
0.951001

>  <SCORE.RESTR.CAVITY>
0.951001

>  <SCORE.RESTR.norm>
0.0182885

>  <SCORE.SYSTEM>
0

>  <SCORE.SYSTEM.CONST>
0

>  <SCORE.SYSTEM.DIHEDRAL>
0

>  <SCORE.SYSTEM.SOLV>
0

>  <SCORE.SYSTEM.norm>
0

>  <SCORE.heavy>
52

>  <SCORE.norm>
-0.071291

>  <RMSD>
14.846

$$$$
2fd0_lig
 OpenBabel11021811433D
libRbt.so/2013.1/901 2013/11/27
 52 56  0  0  0  0  0  0  0  0999 V2000
    8.3480  -45.5819   15.4993 C   0  0  2  0  0  0  0  0  0  0  0  0
    6.9223  -45.6397   15.3541 O   0  0  0  0  0  0  0  0  0  0  0  0
    6.2277  -46.2839   11.1120 C   0  0  2  0  0  0  0  0  0  0  0  0
    5.5703  -46.3346    9.7959 N   0  0  0  0  0  0  0  0  0  0  0  0
    7.9842  -42.4479   13.2440 C   0  0  1  0  0  0  0  0  0  0  0  0
   10.4837  -40.2187   13.2706 C   0  0  1  0  0  0  0  0  0  0  0  0
   10.9993  -36.8632   16.4644 C   0  0  1  0  0  0  0  0  0  0  0  0
    8.9485  -46.9782   15.0977 C   0  0  2  0  0  0  0  0  0  0  0  0
    8.5717  -47.3617   13.7442 N   0  0  0  0  0  0  0  0  0  0  0  0
    5.4125  -47.1492   12.1701 C   0  0  0  0  0  0  0  0  0  0  0  0
    9.1889  -42.8225   14.0879 C   0  0  2  0  0  0  0  0  0  0  0  0
    9.2352  -42.0842   15.3413 O   0  0  0  0  0  0  0  0  0  0  0  0
   11.4849  -39.1025   13.8284 C   0  0  2  0  0  0  0  0  0  0  0  0
   11.8629  -39.3978   15.2374 N   0  0  0  0  0  0  0  0  0  0  0  0
   10.4048  -35.4641   16.1871 C   0  0  1  0  0  0  0  0  0  0  0  0
    9.2794  -35.2452   17.0734 O   0  0  0  0  0  0  0  0  0  0  0  0
    8.5274  -48.0767   16.1429 C   0  0  0  0  0  0  0  0  0  0  0  0
    6.1362  -47.1015   13.5996 C   0  0  2  0  0  0  0  0  0  0  0  0
    5.4006  -47.8920   14.5975 N   0  0  0  0  0  0  0  0  0  0  0  0
   10.3527  -42.5978   13.1374 C   0  0  2  0  0  0  0  0  0  0  0  0
   11.0902  -41.4589   13.4894 O   0  0  0  0  0  0  0  0  0  0  0  0
   10.7897  -37.6649   13.5811 C   0  0  1  0  0  0  0  0  0  0  0  0
   10.5064  -37.5448   12.1752 O   0  0  0  0  0  0  0  0  0  0  0  0
   11.3585  -34.2448   16.3086 C   0  0  1  0  0  0  0  0  0  0  0  0
   11.2491  -33.7299   17.6417 O   0  0  0  0  0  0  0  0  0  0  0  0
    8.9701  -47.6037   17.5660 C   0  0  2  0  0  0  0  0  0  0  0  0
    8.6225  -48.5816   18.5413 O   0  0  0  0  0  0  0  0  0  0  0  0
    6.2473  -45.6228   14.0652 C   0  0  2  0  0  0  0  0  0  0  0  0
    9.7902  -42.2992   11.7271 C   0  0  2  0  0  0  0  0  0  0  0  0
    8.4004  -42.5413   11.8928 O   0  0  0  0  0  0  0  0  0  0  0  0
    9.3714  -37.5419   14.3476 C   0  0  2  0  0  0  0  0  0  0  0  0
    9.7052  -37.6500   15.7442 O   0  0  0  0  0  0  0  0  0  0  0  0
   12.8494  -34.5143   16.0000 C   0  0  2  0  0  0  0  0  0  0  0  0
   13.3041  -33.3741   15.2387 O   0  0  0  0  0  0  0  0  0  0  0  0
    8.2774  -46.2518   17.9007 C   0  0  2  0  0  0  0  0  0  0  0  0
    8.6768  -45.2620   16.8758 O   0  0  0  0  0  0  0  0  0  0  0  0
    6.9891  -44.7191   13.0337 C   0  0  2  0  0  0  0  0  0  0  0  0
    6.9882  -43.3693   13.5571 O   0  0  0  0  0  0  0  0  0  0  0  0
   10.3064  -43.2097   10.6186 C   0  0  0  0  0  0  0  0  0  0  0  0
   10.1873  -44.5594   11.0931 O   0  0  0  0  0  0  0  0  0  0  0  0
    8.5800  -38.7715   13.9435 C   0  0  1  0  0  0  0  0  0  0  0  0
    9.1003  -40.1173   13.9388 O   0  0  0  0  0  0  0  0  0  0  0  0
   13.0269  -35.8443   15.2725 C   0  0  2  0  0  0  0  0  0  0  0  0
   12.3808  -36.9795   15.9122 O   0  0  0  0  0  0  0  0  0  0  0  0
    8.6883  -45.7255   19.2390 C   0  0  0  0  0  0  0  0  0  0  0  0
    9.8718  -44.9924   19.0722 O   0  0  0  0  0  0  0  0  0  0  0  0
    6.2714  -44.7925   11.6365 C   0  0  1  0  0  0  0  0  0  0  0  0
    7.0265  -43.9718   10.6796 O   0  0  0  0  0  0  0  0  0  0  0  0
    7.1717  -38.8551   14.6322 C   0  0  0  0  0  0  0  0  0  0  0  0
    6.4109  -37.5829   14.5866 N   0  0  0  0  0  0  0  0  0  0  0  0
   14.4023  -36.3614   14.8568 C   0  0  0  0  0  0  0  0  0  0  0  0
   14.3050  -37.7397   14.3823 O   0  0  0  0  0  0  0  0  0  0  0  0
  1  2  1  1  0  0  0
  1  8  1  0  0  0  0
  1 36  1  0  0  0  0
  3  4  1  6  0  0  0
  3 10  1  0  0  0  0
  3 47  1  0  0  0  0
  5 11  1  0  0  0  0
  5 30  1  0  0  0  0
  5 38  1  6  0  0  0
  6 21  1  1  0  0  0
  6 42  1  0  0  0  0
  7 15  1  0  0  0  0
  7 44  1  0  0  0  0
  7 32  1  6  0  0  0
  8  9  1  6  0  0  0
  8 17  1  0  0  0  0
 11 12  1  1  0  0  0
 11 20  1  0  0  0  0
 13  6  1  0  0  0  0
 13 14  1  1  0  0  0
 15 16  1  1  0  0  0
 15 24  1  0  0  0  0
 17 26  1  0  0  0  0
 18 10  1  0  0  0  0
 18 19  1  1  0  0  0
 20 21  1  1  0  0  0
 20 29  1  0  0  0  0
 22 13  1  0  0  0  0
 22 23  1  6  0  0  0
 24 25  1  1  0  0  0
 24 33  1  0  0  0  0
 26 27  1  1  0  0  0
 26 35  1  0  0  0  0
 28  2  1  1  0  0  0
 28 18  1  0  0  0  0
 29 30  1  0  0  0  0
 29 39  1  6  0  0  0
 31 22  1  0  0  0  0
 31 32  1  1  0  0  0
 31 41  1  0  0  0  0
 33 34  1  6  0  0  0
 33 43  1  0  0  0  0
 35 36  1  0  0  0  0
 35 45  1  1  0  0  0
 37 28  1  0  0  0  0
 37 38  1  1  0  0  0
 39 40  1  0  0  0  0
 41 42  1  0  0  0  0
 41 49  1  1  0  0  0
 43 44  1  0  0  0  0
 43 51  1  1  0  0  0
 45 46  1  0  0  0  0
 47 37  1  0  0  0  0
 47 48  1  6  0  0  0
 49 50  1  0  0  0  0
 51 52  1  0  0  0  0
M  END
>  <CHROM.1>
-74.32951116,-77.23671268,176.76646384,64.22947459,-71.06365990,88.67551793
48.22067778,43.87567479,85.86911702,152.03611352,46.67413453,170.73844481
9.30109383,-41.65764537,14.53239457,-2.59852606,-1.12704202,-0.87659954

>  <Name>
2fd0_lig

>  <RI>
0

>  <Rbt.Current_Directory>
/home/itssahil/PROJECTS/Mol_Feturizer/New_Systems/rnas/2fd0

>  <Rbt.Executable>
rbdock ($Id: //depot/dev/client3/rdock/2013.1/src/exe/rbdock.cxx#4 $)

>  <Rbt.Library>
libRbt.so (2013.1, Build901 2013/11/27)

>  <Rbt.Parameter_File>
/export/apps/rDock/src/rDock_2013.1_src/data/scripts/dock_solv.prm

>  <Rbt.Receptor>
prm/blind_docking_100.prm

>  <SCORE>
52.456

>  <SCORE.INTER>
31.9048

>  <SCORE.INTER.CONST>
1

>  <SCORE.INTER.POLAR>
-1.24959

>  <SCORE.INTER.ROT>
12

>  <SCORE.INTER.SOLV>
34.503

>  <SCORE.INTER.VDW>
2.33418

>  <SCORE.INTER.norm>
0.613554

>  <SCORE.INTRA>
9.16131

>  <SCORE.INTRA.DIHEDRAL>
-8.27853

>  <SCORE.INTRA.DIHEDRAL.0>
23.9727

>  <SCORE.INTRA.POLAR>
0

>  <SCORE.INTRA.POLAR.0>
0

>  <SCORE.INTRA.REPUL>
0

>  <SCORE.INTRA.REPUL.0>
0

>  <SCORE.INTRA.SOLV>
8.70894

>  <SCORE.INTRA.SOLV.lig_0>
-115.028

>  <SCORE.INTRA.VDW>
8.9461

>  <SCORE.INTRA.VDW.0>
-6.82393

>  <SCORE.INTRA.norm>
0.176179

>  <SCORE.RESTR>
11.3899

>  <SCORE.RESTR.CAVITY>
11.3899

>  <SCORE.RESTR.norm>
0.219037

>  <SCORE.SYSTEM>
0

>  <SCORE.SYSTEM.CONST>
0

>  <SCORE.SYSTEM.DIHEDRAL>
0

>  <SCORE.SYSTEM.SOLV>
0

>  <SCORE.SYSTEM.norm>
0

>  <SCORE.heavy>
52

>  <SCORE.norm>
1.00877

>  <RMSD>
14.851

$$$$
2fd0_lig
 OpenBabel11021811433D
libRbt.so/2013.1/901 2013/11/27
 52 56  0  0  0  0  0  0  0  0999 V2000
   13.4050  -34.2423   18.0660 C   0  0  2  0  0  0  0  0  0  0  0  0
   13.5354  -35.5553   17.5038 O   0  0  0  0  0  0  0  0  0  0  0  0
   13.9434  -34.7976   13.2433 C   0  0  2  0  0  0  0  0  0  0  0  0
   14.2505  -34.9792   11.8151 N   0  0  0  0  0  0  0  0  0  0  0  0
   11.6062  -37.9873   15.2069 C   0  0  1  0  0  0  0  0  0  0  0  0
    9.7800  -41.9205   14.2437 C   0  0  1  0  0  0  0  0  0  0  0  0
    8.6725  -46.8880   15.3526 C   0  0  1  0  0  0  0  0  0  0  0  0
   12.5249  -34.3397   19.3649 C   0  0  2  0  0  0  0  0  0  0  0  0
   13.0857  -35.2735   20.3315 N   0  0  0  0  0  0  0  0  0  0  0  0
   15.2540  -35.0086   14.1211 C   0  0  0  0  0  0  0  0  0  0  0  0
   10.5617  -38.7460   16.0050 C   0  0  2  0  0  0  0  0  0  0  0  0
   11.1320  -39.4130   17.1660 O   0  0  0  0  0  0  0  0  0  0  0  0
    8.3086  -42.2829   14.7566 C   0  0  2  0  0  0  0  0  0  0  0  0
    8.3425  -42.7034   16.1839 N   0  0  0  0  0  0  0  0  0  0  0  0
    7.4602  -47.2836   14.4798 C   0  0  1  0  0  0  0  0  0  0  0  0
    7.8232  -47.1574   13.0826 O   0  0  0  0  0  0  0  0  0  0  0  0
   11.0429  -34.7184   18.9953 C   0  0  0  0  0  0  0  0  0  0  0  0
   14.9196  -34.7995   15.6748 C   0  0  2  0  0  0  0  0  0  0  0  0
   16.1148  -34.9918   16.5092 N   0  0  0  0  0  0  0  0  0  0  0  0
    9.9265  -39.6492   14.9613 C   0  0  2  0  0  0  0  0  0  0  0  0
   10.3076  -40.9863   15.1396 O   0  0  0  0  0  0  0  0  0  0  0  0
    7.6923  -43.3647   13.7267 C   0  0  1  0  0  0  0  0  0  0  0  0
    7.7256  -42.7909   12.4073 O   0  0  0  0  0  0  0  0  0  0  0  0
    6.8549  -48.6971   14.6950 C   0  0  1  0  0  0  0  0  0  0  0  0
    7.4755  -49.5900   13.7612 O   0  0  0  0  0  0  0  0  0  0  0  0
   10.5050  -33.6720   17.9655 C   0  0  2  0  0  0  0  0  0  0  0  0
    9.1563  -33.9697   17.6182 O   0  0  0  0  0  0  0  0  0  0  0  0
   13.8072  -35.8001   16.0955 C   0  0  2  0  0  0  0  0  0  0  0  0
   10.4691  -39.2534   13.5672 C   0  0  2  0  0  0  0  0  0  0  0  0
   11.2108  -38.0753   13.8490 O   0  0  0  0  0  0  0  0  0  0  0  0
    8.5834  -44.7124   13.6640 C   0  0  2  0  0  0  0  0  0  0  0  0
    8.5069  -45.2580   14.9945 O   0  0  0  0  0  0  0  0  0  0  0  0
    6.9954  -49.2877   16.1170 C   0  0  2  0  0  0  0  0  0  0  0  0
    5.7325  -49.9284   16.4016 O   0  0  0  0  0  0  0  0  0  0  0  0
   11.3975  -33.6937   16.6917 C   0  0  2  0  0  0  0  0  0  0  0  0
   12.7830  -33.3640   17.0929 O   0  0  0  0  0  0  0  0  0  0  0  0
   12.5198  -35.6725   15.2254 C   0  0  2  0  0  0  0  0  0  0  0  0
   11.5840  -36.6785   15.6819 O   0  0  0  0  0  0  0  0  0  0  0  0
    9.4037  -38.9126   12.5313 C   0  0  0  0  0  0  0  0  0  0  0  0
    8.5045  -40.0301   12.4692 O   0  0  0  0  0  0  0  0  0  0  0  0
   10.0064  -44.2506   13.4124 C   0  0  1  0  0  0  0  0  0  0  0  0
   10.6593  -43.1788   14.1244 O   0  0  0  0  0  0  0  0  0  0  0  0
    7.3719  -48.2055   17.1253 C   0  0  2  0  0  0  0  0  0  0  0  0
    8.5183  -47.3938   16.7481 O   0  0  0  0  0  0  0  0  0  0  0  0
   10.9557  -32.6862   15.6783 C   0  0  0  0  0  0  0  0  0  0  0  0
   11.1330  -31.4095   16.2299 O   0  0  0  0  0  0  0  0  0  0  0  0
   12.8733  -35.8665   13.7056 C   0  0  1  0  0  0  0  0  0  0  0  0
   11.6480  -35.6883   12.9143 O   0  0  0  0  0  0  0  0  0  0  0  0
   11.0408  -45.4305   13.3644 C   0  0  0  0  0  0  0  0  0  0  0  0
   12.3678  -45.0368   12.8321 N   0  0  0  0  0  0  0  0  0  0  0  0
    7.5846  -48.5176   18.6049 C   0  0  0  0  0  0  0  0  0  0  0  0
    7.7729  -47.2829   19.3628 O   0  0  0  0  0  0  0  0  0  0  0  0
  1  2  1  6  0  0  0
  1  8  1  0  0  0  0
  1 36  1  0  0  0  0
  3  4  1  6  0  0  0
  3 10  1  0  0  0  0
  3 47  1  0  0  0  0
  5 11  1  0  0  0  0
  5 30  1  0  0  0  0
  5 38  1  1  0  0  0
  6 21  1  1  0  0  0
  6 42  1  0  0  0  0
  7 15  1  0  0  0  0
  7 44  1  0  0  0  0
  7 32  1  1  0  0  0
  8  9  1  1  0  0  0
  8 17  1  0  0  0  0
 11 12  1  1  0  0  0
 11 20  1  0  0  0  0
 13  6  1  0  0  0  0
 13 14  1  1  0  0  0
 15 16  1  6  0  0  0
 15 24  1  0  0  0  0
 17 26  1  0  0  0  0
 18 10  1  0  0  0  0
 18 19  1  1  0  0  0
 20 21  1  1  0  0  0
 20 29  1  0  0  0  0
 22 13  1  0  0  0  0
 22 23  1  6  0  0  0
 24 25  1  6  0  0  0
 24 33  1  0  0  0  0
 26 27  1  6  0  0  0
 26 35  1  0  0  0  0
 28  2  1  1  0  0  0
 28 18  1  0  0  0  0
 29 30  1  0  0  0  0
 29 39  1  6  0  0  0
 31 22  1  0  0  0  0
 31 32  1  1  0  0  0
 31 41  1  0  0  0  0
 33 34  1  1  0  0  0
 33 43  1  0  0  0  0
 35 36  1  0  0  0  0
 35 45  1  6  0  0  0
 37 28  1  0  0  0  0
 37 38  1  1  0  0  0
 39 40  1  0  0  0  0
 41 42  1  0  0  0  0
 41 49  1  1  0  0  0
 43 44  1  0  0  0  0
 43 51  1  1  0  0  0
 45 46  1  0  0  0  0
 47 37  1  0  0  0  0
 47 48  1  6  0  0  0
 49 50  1  0  0  0  0
 51 52  1  0  0  0  0
M  END
>  <CHROM.1>
155.25481536,175.34027684,-81.49570255,-60.15855633,179.59311184,43.87317606
-54.39334978,153.20850267,64.54769490,-85.67598836,167.39661785,-173.09107598
10.44277894,-40.25607457,15.40054594,0.50964293,1.16105410,1.09576982

>  <Name>
2fd0_lig

>  <RI>
0

>  <Rbt.Current_Directory>
/home/itssahil/PROJECTS/Mol_Feturizer/New_Systems/rnas/2fd0

>  <Rbt.Executable>
rbdock ($Id: //depot/dev/client3/rdock/2013.1/src/exe/rbdock.cxx#4 $)

>  <Rbt.Library>
libRbt.so (2013.1, Build901 2013/11/27)

>  <Rbt.Parameter_File>
/export/apps/rDock/src/rDock_2013.1_src/data/scripts/dock_solv.prm

>  <Rbt.Receptor>
prm/blind_docking_100.prm

>  <SCORE>
-11.616

>  <SCORE.INTER>
-13.176

>  <SCORE.INTER.CONST>
1

>  <SCORE.INTER.POLAR>
-0.228007

>  <SCORE.INTER.ROT>
12

>  <SCORE.INTER.SOLV>
27.0182

>  <SCORE.INTER.VDW>
-28.6301

>  <SCORE.INTER.norm>
-0.253385

>  <SCORE.INTRA>
-0.234035

>  <SCORE.INTRA.DIHEDRAL>
-9.88038

>  <SCORE.INTRA.DIHEDRAL.0>
23.9727

>  <SCORE.INTRA.POLAR>
0

>  <SCORE.INTRA.POLAR.0>
0

>  <SCORE.INTRA.REPUL>
0

>  <SCORE.INTRA.REPUL.0>
0

>  <SCORE.INTRA.SOLV>
-2.70604

>  <SCORE.INTRA.SOLV.lig_0>
-115.028

>  <SCORE.INTRA.VDW>
6.05917

>  <SCORE.INTRA.VDW.0>
-6.82393

>  <SCORE.INTRA.norm>
-0.00450067

>  <SCORE.RESTR>
1.79406

>  <SCORE.RESTR.CAVITY>
1.79406

>  <SCORE.RESTR.norm>
0.0345012

>  <SCORE.SYSTEM>
0

>  <SCORE.SYSTEM.CONST>
0

>  <SCORE.SYSTEM.DIHEDRAL>
0

>  <SCORE.SYSTEM.SOLV>
0

>  <SCORE.SYSTEM.norm>
0

>  <SCORE.heavy>
52

>  <SCORE.norm>
-0.223384

>  <RMSD>
14.857

$$$$
2fd0_lig
 OpenBabel11021811433D
libRbt.so/2013.1/901 2013/11/27
 52 56  0  0  0  0  0  0  0  0999 V2000
    6.7114  -47.1071   16.1196 C   0  0  2  0  0  0  0  0  0  0  0  0
    7.2875  -46.8102   14.8401 O   0  0  0  0  0  0  0  0  0  0  0  0
    5.2410  -45.3449   11.2965 C   0  0  2  0  0  0  0  0  0  0  0  0
    4.5903  -44.4438   10.3313 N   0  0  0  0  0  0  0  0  0  0  0  0
    9.1737  -44.1065   12.9102 C   0  0  1  0  0  0  0  0  0  0  0  0
   10.5105  -41.0153   13.5485 C   0  0  1  0  0  0  0  0  0  0  0  0
   11.0215  -36.0024   15.0809 C   0  0  1  0  0  0  0  0  0  0  0  0
    7.8756  -47.3396   17.1502 C   0  0  2  0  0  0  0  0  0  0  0  0
    8.7686  -46.1918   17.2278 N   0  0  0  0  0  0  0  0  0  0  0  0
    4.4993  -45.2758   12.7030 C   0  0  0  0  0  0  0  0  0  0  0  0
   10.6908  -44.0698   12.9333 C   0  0  2  0  0  0  0  0  0  0  0  0
   11.2222  -44.0793   14.2881 O   0  0  0  0  0  0  0  0  0  0  0  0
   10.1256  -39.8142   12.5643 C   0  0  2  0  0  0  0  0  0  0  0  0
   11.3478  -39.0856   12.1274 N   0  0  0  0  0  0  0  0  0  0  0  0
   12.3211  -35.8156   14.2661 C   0  0  1  0  0  0  0  0  0  0  0  0
   11.9773  -35.4584   12.9044 O   0  0  0  0  0  0  0  0  0  0  0  0
    8.6632  -48.6560   16.7992 C   0  0  0  0  0  0  0  0  0  0  0  0
    5.2027  -46.2659   13.7491 C   0  0  2  0  0  0  0  0  0  0  0  0
    4.5373  -46.2191   15.0594 N   0  0  0  0  0  0  0  0  0  0  0  0
   11.0138  -42.8423   12.0980 C   0  0  2  0  0  0  0  0  0  0  0  0
   11.4763  -41.7864   12.8955 O   0  0  0  0  0  0  0  0  0  0  0  0
    9.0105  -38.9162   13.3132 C   0  0  1  0  0  0  0  0  0  0  0  0
    7.9038  -39.7723   13.6498 O   0  0  0  0  0  0  0  0  0  0  0  0
   13.3516  -34.7793   14.7908 C   0  0  1  0  0  0  0  0  0  0  0  0
   13.0867  -33.5275   14.1452 O   0  0  0  0  0  0  0  0  0  0  0  0
    7.6467  -49.8427   16.7423 C   0  0  2  0  0  0  0  0  0  0  0  0
    8.3246  -51.0592   16.4444 O   0  0  0  0  0  0  0  0  0  0  0  0
    6.6994  -45.8730   13.8952 C   0  0  2  0  0  0  0  0  0  0  0  0
    9.7062  -42.3236   11.4534 C   0  0  2  0  0  0  0  0  0  0  0  0
    8.7742  -43.3428   11.7855 O   0  0  0  0  0  0  0  0  0  0  0  0
    9.5621  -38.3094   14.7067 C   0  0  2  0  0  0  0  0  0  0  0  0
   10.6515  -37.4505   14.3203 O   0  0  0  0  0  0  0  0  0  0  0  0
   13.3723  -34.5558   16.3206 C   0  0  2  0  0  0  0  0  0  0  0  0
   14.7670  -34.4552   16.6829 O   0  0  0  0  0  0  0  0  0  0  0  0
    6.5739  -49.5534   15.6537 C   0  0  2  0  0  0  0  0  0  0  0  0
    5.8837  -48.2936   16.0088 O   0  0  0  0  0  0  0  0  0  0  0  0
    7.4583  -45.8695   12.5332 C   0  0  2  0  0  0  0  0  0  0  0  0
    8.8186  -45.4479   12.7936 O   0  0  0  0  0  0  0  0  0  0  0  0
    9.7440  -42.1850    9.9356 C   0  0  0  0  0  0  0  0  0  0  0  0
    8.4546  -41.7058    9.5246 O   0  0  0  0  0  0  0  0  0  0  0  0
   10.1269  -39.4910   15.4723 C   0  0  1  0  0  0  0  0  0  0  0  0
   11.0025  -40.4906   14.9098 O   0  0  0  0  0  0  0  0  0  0  0  0
   12.6316  -35.6745   17.0482 C   0  0  2  0  0  0  0  0  0  0  0  0
   11.2933  -35.9453   16.5472 O   0  0  0  0  0  0  0  0  0  0  0  0
    5.5474  -50.6382   15.5734 C   0  0  0  0  0  0  0  0  0  0  0  0
    4.5546  -50.2301   14.6715 O   0  0  0  0  0  0  0  0  0  0  0  0
    6.7434  -44.9038   11.5188 C   0  0  1  0  0  0  0  0  0  0  0  0
    7.4542  -44.9660   10.2342 O   0  0  0  0  0  0  0  0  0  0  0  0
   10.7593  -39.0896   16.8519 C   0  0  0  0  0  0  0  0  0  0  0  0
   10.9522  -40.2353   17.7736 N   0  0  0  0  0  0  0  0  0  0  0  0
   12.4908  -35.6957   18.5686 C   0  0  0  0  0  0  0  0  0  0  0  0
   11.6601  -36.8226   18.9864 O   0  0  0  0  0  0  0  0  0  0  0  0
  1  2  1  6  0  0  0
  1  8  1  0  0  0  0
  1 36  1  0  0  0  0
  3  4  1  6  0  0  0
  3 10  1  0  0  0  0
  3 47  1  0  0  0  0
  5 11  1  0  0  0  0
  5 30  1  0  0  0  0
  5 38  1  6  0  0  0
  6 21  1  6  0  0  0
  6 42  1  0  0  0  0
  7 15  1  0  0  0  0
  7 44  1  0  0  0  0
  7 32  1  1  0  0  0
  8  9  1  6  0  0  0
  8 17  1  0  0  0  0
 11 12  1  1  0  0  0
 11 20  1  0  0  0  0
 13  6  1  0  0  0  0
 13 14  1  1  0  0  0
 15 16  1  6  0  0  0
 15 24  1  0  0  0  0
 17 26  1  0  0  0  0
 18 10  1  0  0  0  0
 18 19  1  1  0  0  0
 20 21  1  1  0  0  0
 20 29  1  0  0  0  0
 22 13  1  0  0  0  0
 22 23  1  1  0  0  0
 24 25  1  6  0  0  0
 24 33  1  0  0  0  0
 26 27  1  6  0  0  0
 26 35  1  0  0  0  0
 28  2  1  1  0  0  0
 28 18  1  0  0  0  0
 29 30  1  0  0  0  0
 29 39  1  6  0  0  0
 31 22  1  0  0  0  0
 31 32  1  6  0  0  0
 31 41  1  0  0  0  0
 33 34  1  1  0  0  0
 33 43  1  0  0  0  0
 35 36  1  0  0  0  0
 35 45  1  1  0  0  0
 37 28  1  0  0  0  0
 37 38  1  1  0  0  0
 39 40  1  0  0  0  0
 41 42  1  0  0  0  0
 41 49  1  1  0  0  0
 43 44  1  0  0  0  0
 43 51  1  1  0  0  0
 45 46  1  0  0  0  0
 47 37  1  0  0  0  0
 47 48  1  6  0  0  0
 49 50  1  0  0  0  0
 51 52  1  0  0  0  0
M  END
>  <CHROM.1>
-144.60371288,-170.27365237,-90.22473910,173.14829123,-81.40732934,-50.05516701
179.61457515,144.12668487,174.02786529,-82.30603857,163.14908423,176.03346407
9.23881751,-42.27007875,14.30316174,-2.69125563,-1.07351540,-0.99140645

>  <Name>
2fd0_lig

>  <RI>
2.60878e+07

>  <Rbt.Current_Directory>
/home/itssahil/PROJECTS/Mol_Feturizer/New_Systems/rnas/2fd0

>  <Rbt.Executable>
rbdock ($Id: //depot/dev/client3/rdock/2013.1/src/exe/rbdock.cxx#4 $)

>  <Rbt.Library>
libRbt.so (2013.1, Build901 2013/11/27)

>  <Rbt.Parameter_File>
/export/apps/rDock/src/rDock_2013.1_src/data/scripts/dock_solv.prm

>  <Rbt.Receptor>
prm/blind_docking_80.prm

>  <SCORE>
-10.5486

>  <SCORE.INTER>
-19.2739

>  <SCORE.INTER.CONST>
1

>  <SCORE.INTER.POLAR>
-1.85158

>  <SCORE.INTER.ROT>
12

>  <SCORE.INTER.SOLV>
25.0999

>  <SCORE.INTER.VDW>
-26.644

>  <SCORE.INTER.norm>
-0.370652

>  <SCORE.INTRA>
6.99399

>  <SCORE.INTRA.DIHEDRAL>
-3.33795

>  <SCORE.INTRA.DIHEDRAL.0>
23.9727

>  <SCORE.INTRA.POLAR>
0

>  <SCORE.INTRA.POLAR.0>
0

>  <SCORE.INTRA.REPUL>
0

>  <SCORE.INTRA.REPUL.0>
0

>  <SCORE.INTRA.SOLV>
0.041095

>  <SCORE.INTRA.SOLV.lig_0>
-115.028

>  <SCORE.INTRA.VDW>
8.64242

>  <SCORE.INTRA.VDW.0>
-6.82393

>  <SCORE.INTRA.norm>
0.1345

>  <SCORE.RESTR>
1.73128

>  <SCORE.RESTR.CAVITY>
1.73128

>  <SCORE.RESTR.norm>
0.0332938

>  <SCORE.SYSTEM>
0

>  <SCORE.SYSTEM.CONST>
0

>  <SCORE.SYSTEM.DIHEDRAL>
0

>  <SCORE.SYSTEM.SOLV>
0

>  <SCORE.SYSTEM.norm>
0

>  <SCORE.heavy>
52

>  <SCORE.norm>
-0.202858

>  <RMSD>
14.869

$$$$
2fd0_lig
 OpenBabel11021811433D
libRbt.so/2013.1/901 2013/11/27
 52 56  0  0  0  0  0  0  0  0999 V2000
    4.6078  -46.3227   14.5335 C   0  0  2  0  0  0  0  0  0  0  0  0
    4.7265  -44.9760   15.0125 O   0  0  0  0  0  0  0  0  0  0  0  0
    3.5465  -42.5346   11.6155 C   0  0  2  0  0  0  0  0  0  0  0  0
    3.3313  -41.3726   10.7378 N   0  0  0  0  0  0  0  0  0  0  0  0
    7.6437  -43.0738   13.0701 C   0  0  1  0  0  0  0  0  0  0  0  0
    9.9242  -40.9024   13.9681 C   0  0  1  0  0  0  0  0  0  0  0  0
   11.5384  -36.0322   14.5660 C   0  0  1  0  0  0  0  0  0  0  0  0
    4.3313  -47.2669   15.7596 C   0  0  2  0  0  0  0  0  0  0  0  0
    3.1427  -46.8634   16.4980 N   0  0  0  0  0  0  0  0  0  0  0  0
    2.8304  -42.3070   13.0185 C   0  0  0  0  0  0  0  0  0  0  0  0
    8.9496  -43.5972   13.6395 C   0  0  2  0  0  0  0  0  0  0  0  0
    9.0755  -43.3316   15.0649 O   0  0  0  0  0  0  0  0  0  0  0  0
    9.6104  -39.8711   12.7860 C   0  0  2  0  0  0  0  0  0  0  0  0
   10.8689  -39.4550   12.1088 N   0  0  0  0  0  0  0  0  0  0  0  0
   12.3344  -35.8466   13.2546 C   0  0  1  0  0  0  0  0  0  0  0  0
   11.4592  -35.2823   12.2469 O   0  0  0  0  0  0  0  0  0  0  0  0
    5.5939  -47.3315   16.6968 C   0  0  0  0  0  0  0  0  0  0  0  0
    3.0566  -43.5781   13.9684 C   0  0  2  0  0  0  0  0  0  0  0  0
    2.4064  -43.3920   15.2739 N   0  0  0  0  0  0  0  0  0  0  0  0
    9.9938  -42.9505   12.7451 C   0  0  2  0  0  0  0  0  0  0  0  0
   10.6881  -41.9357   13.4181 O   0  0  0  0  0  0  0  0  0  0  0  0
    8.7289  -38.6716   13.4145 C   0  0  1  0  0  0  0  0  0  0  0  0
    7.5541  -39.2498   14.0118 O   0  0  0  0  0  0  0  0  0  0  0  0
   13.6213  -34.9800   13.3156 C   0  0  1  0  0  0  0  0  0  0  0  0
   13.2644  -33.6350   12.9723 O   0  0  0  0  0  0  0  0  0  0  0  0
    6.8245  -47.7785   15.8421 C   0  0  2  0  0  0  0  0  0  0  0  0
    7.9872  -47.8671   16.6597 O   0  0  0  0  0  0  0  0  0  0  0  0
    4.5822  -43.8067   14.1588 C   0  0  2  0  0  0  0  0  0  0  0  0
    9.2725  -42.2427   11.5733 C   0  0  2  0  0  0  0  0  0  0  0  0
    7.9254  -42.6589   11.7449 O   0  0  0  0  0  0  0  0  0  0  0  0
    9.5157  -37.9029   14.5996 C   0  0  2  0  0  0  0  0  0  0  0  0
   10.6682  -37.3289   13.9547 O   0  0  0  0  0  0  0  0  0  0  0  0
   14.3685  -34.9665   14.6692 C   0  0  2  0  0  0  0  0  0  0  0  0
   15.7737  -35.0323   14.3415 O   0  0  0  0  0  0  0  0  0  0  0  0
    7.0590  -46.7524   14.6967 C   0  0  2  0  0  0  0  0  0  0  0  0
    5.8372  -46.7032   13.8635 O   0  0  0  0  0  0  0  0  0  0  0  0
    5.3402  -43.9781   12.8071 C   0  0  2  0  0  0  0  0  0  0  0  0
    6.7462  -44.1376   13.1134 O   0  0  0  0  0  0  0  0  0  0  0  0
    9.7310  -42.6650   10.1819 C   0  0  0  0  0  0  0  0  0  0  0  0
    9.2204  -43.9873    9.9539 O   0  0  0  0  0  0  0  0  0  0  0  0
    9.9846  -38.9881   15.5504 C   0  0  1  0  0  0  0  0  0  0  0  0
   10.6367  -40.2095   15.1440 O   0  0  0  0  0  0  0  0  0  0  0  0
   13.8968  -36.1071   15.5670 C   0  0  2  0  0  0  0  0  0  0  0  0
   12.4545  -36.1955   15.7326 O   0  0  0  0  0  0  0  0  0  0  0  0
    8.2045  -47.1429   13.8177 C   0  0  0  0  0  0  0  0  0  0  0  0
    8.3442  -46.1620   12.8258 O   0  0  0  0  0  0  0  0  0  0  0  0
    5.0926  -42.7277   11.8864 C   0  0  1  0  0  0  0  0  0  0  0  0
    5.7779  -42.9477   10.6052 O   0  0  0  0  0  0  0  0  0  0  0  0
   10.8193  -38.4339   16.7589 C   0  0  0  0  0  0  0  0  0  0  0  0
   11.1436  -39.4610   17.7784 N   0  0  0  0  0  0  0  0  0  0  0  0
   14.4643  -36.3207   16.9685 C   0  0  0  0  0  0  0  0  0  0  0  0
   13.4362  -36.0725   17.9764 O   0  0  0  0  0  0  0  0  0  0  0  0
  1  2  1  1  0  0  0
  1  8  1  0  0  0  0
  1 36  1  0  0  0  0
  3  4  1  6  0  0  0
  3 10  1  0  0  0  0
  3 47  1  0  0  0  0
  5 11  1  0  0  0  0
  5 30  1  0  0  0  0
  5 38  1  6  0  0  0
  6 21  1  6  0  0  0
  6 42  1  0  0  0  0
  7 15  1  0  0  0  0
  7 44  1  0  0  0  0
  7 32  1  6  0  0  0
  8  9  1  1  0  0  0
  8 17  1  0  0  0  0
 11 12  1  1  0  0  0
 11 20  1  0  0  0  0
 13  6  1  0  0  0  0
 13 14  1  1  0  0  0
 15 16  1  6  0  0  0
 15 24  1  0  0  0  0
 17 26  1  0  0  0  0
 18 10  1  0  0  0  0
 18 19  1  1  0  0  0
 20 21  1  1  0  0  0
 20 29  1  0  0  0  0
 22 13  1  0  0  0  0
 22 23  1  1  0  0  0
 24 25  1  1  0  0  0
 24 33  1  0  0  0  0
 26 27  1  1  0  0  0
 26 35  1  0  0  0  0
 28  2  1  1  0  0  0
 28 18  1  0  0  0  0
 29 30  1  0  0  0  0
 29 39  1  6  0  0  0
 31 22  1  0  0  0  0
 31 32  1  6  0  0  0
 31 41  1  0  0  0  0
 33 34  1  6  0  0  0
 33 43  1  0  0  0  0
 35 36  1  0  0  0  0
 35 45  1  6  0  0  0
 37 28  1  0  0  0  0
 37 38  1  1  0  0  0
 39 40  1  0  0  0  0
 41 42  1  0  0  0  0
 41 49  1  1  0  0  0
 43 44  1  0  0  0  0
 43 51  1  1  0  0  0
 45 46  1  0  0  0  0
 47 37  1  0  0  0  0
 47 48  1  6  0  0  0
 49 50  1  0  0  0  0
 51 52  1  0  0  0  0
M  END
>  <CHROM.1>
-160.87287640,172.10113496,-82.03866258,-168.89109552,-56.44558940,79.74737019
72.54920755,158.64151129,-179.67119687,-96.78891765,173.06341178,113.10836977
8.66426904,-41.39192749,13.96748776,-2.50504667,-0.68024960,-0.64443960

>  <Name>
2fd0_lig

>  <RI>
2.85265e+07

>  <Rbt.Current_Directory>
/home/itssahil/PROJECTS/Mol_Feturizer/New_Systems/rnas/2fd0

>  <Rbt.Executable>
rbdock ($Id: //depot/dev/client3/rdock/2013.1/src/exe/rbdock.cxx#4 $)

>  <Rbt.Library>
libRbt.so (2013.1, Build901 2013/11/27)

>  <Rbt.Parameter_File>
/export/apps/rDock/src/rDock_2013.1_src/data/scripts/dock_solv.prm

>  <Rbt.Receptor>
prm/blind_docking_60.prm

>  <SCORE>
-2.33106

>  <SCORE.INTER>
-8.1346

>  <SCORE.INTER.CONST>
1

>  <SCORE.INTER.POLAR>
-1.32433

>  <SCORE.INTER.ROT>
12

>  <SCORE.INTER.SOLV>
25.5498

>  <SCORE.INTER.VDW>
-21.1252

>  <SCORE.INTER.norm>
-0.156435

>  <SCORE.INTRA>
4.46455

>  <SCORE.INTRA.DIHEDRAL>
-3.92434

>  <SCORE.INTRA.DIHEDRAL.0>
23.9727

>  <SCORE.INTRA.POLAR>
0

>  <SCORE.INTRA.POLAR.0>
0

>  <SCORE.INTRA.REPUL>
0.00238651

>  <SCORE.INTRA.REPUL.0>
0

>  <SCORE.INTRA.SOLV>
0.877295

>  <SCORE.INTRA.SOLV.lig_0>
-115.028

>  <SCORE.INTRA.VDW>
5.97614

>  <SCORE.INTRA.VDW.0>
-6.82393

>  <SCORE.INTRA.norm>
0.0858567

>  <SCORE.RESTR>
1.33898

>  <SCORE.RESTR.CAVITY>
1.33898

>  <SCORE.RESTR.norm>
0.0257497

>  <SCORE.SYSTEM>
0

>  <SCORE.SYSTEM.CONST>
0

>  <SCORE.SYSTEM.DIHEDRAL>
0

>  <SCORE.SYSTEM.SOLV>
0

>  <SCORE.SYSTEM.norm>
0

>  <SCORE.heavy>
52

>  <SCORE.norm>
-0.0448282

>  <RMSD>
14.931

$$$$
2fd0_lig
 OpenBabel11021811433D
libRbt.so/2013.1/901 2013/11/27
 52 56  0  0  0  0  0  0  0  0999 V2000
    3.7453  -44.0376   14.9836 C   0  0  2  0  0  0  0  0  0  0  0  0
    4.4013  -44.8420   13.9939 O   0  0  0  0  0  0  0  0  0  0  0  0
    6.9712  -47.4918   16.2889 C   0  0  2  0  0  0  0  0  0  0  0  0
    7.7806  -48.6561   16.6842 N   0  0  0  0  0  0  0  0  0  0  0  0
    7.5031  -43.6603   13.1823 C   0  0  1  0  0  0  0  0  0  0  0  0
    8.9500  -40.6488   12.9640 C   0  0  1  0  0  0  0  0  0  0  0  0
   12.1685  -37.3476   15.5980 C   0  0  1  0  0  0  0  0  0  0  0  0
    2.5266  -43.3093   14.3083 C   0  0  2  0  0  0  0  0  0  0  0  0
    1.6008  -44.2533   13.6981 N   0  0  0  0  0  0  0  0  0  0  0  0
    5.4743  -47.9380   15.9836 C   0  0  0  0  0  0  0  0  0  0  0  0
    8.6974  -43.5712   12.2499 C   0  0  2  0  0  0  0  0  0  0  0  0
    9.9597  -43.5279   12.9731 O   0  0  0  0  0  0  0  0  0  0  0  0
    9.1894  -39.0804   12.7590 C   0  0  2  0  0  0  0  0  0  0  0  0
   10.5289  -38.8311   12.1599 N   0  0  0  0  0  0  0  0  0  0  0  0
   10.9351  -36.5265   16.0366 C   0  0  1  0  0  0  0  0  0  0  0  0
   10.2765  -37.2117   17.1306 O   0  0  0  0  0  0  0  0  0  0  0  0
    3.0337  -42.2470   13.2638 C   0  0  0  0  0  0  0  0  0  0  0  0
    4.5922  -46.6670   15.5641 C   0  0  2  0  0  0  0  0  0  0  0  0
    3.2035  -47.0529   15.2736 N   0  0  0  0  0  0  0  0  0  0  0  0
    8.3738  -42.3552   11.3984 C   0  0  2  0  0  0  0  0  0  0  0  0
    9.1881  -41.2641   11.7317 O   0  0  0  0  0  0  0  0  0  0  0  0
    8.9181  -38.3617   14.1806 C   0  0  1  0  0  0  0  0  0  0  0  0
    7.5835  -38.6983   14.6007 O   0  0  0  0  0  0  0  0  0  0  0  0
   11.1720  -35.0526   16.4638 C   0  0  1  0  0  0  0  0  0  0  0  0
   11.3560  -35.0290   17.8850 O   0  0  0  0  0  0  0  0  0  0  0  0
    4.0116  -41.2655   13.9885 C   0  0  2  0  0  0  0  0  0  0  0  0
    4.4800  -40.2747   13.0790 O   0  0  0  0  0  0  0  0  0  0  0  0
    5.2313  -45.9922   14.3184 C   0  0  2  0  0  0  0  0  0  0  0  0
    6.9299  -41.8982   11.7157 C   0  0  2  0  0  0  0  0  0  0  0  0
    6.4555  -42.9397   12.5570 O   0  0  0  0  0  0  0  0  0  0  0  0
    9.9135  -38.9084   15.3315 C   0  0  2  0  0  0  0  0  0  0  0  0
   11.2286  -38.5355   14.8784 O   0  0  0  0  0  0  0  0  0  0  0  0
   12.3671  -34.3347   15.7952 C   0  0  2  0  0  0  0  0  0  0  0  0
   11.9046  -32.9992   15.4969 O   0  0  0  0  0  0  0  0  0  0  0  0
    5.2140  -42.0657   14.5661 C   0  0  2  0  0  0  0  0  0  0  0  0
    4.6867  -43.0703   15.5158 O   0  0  0  0  0  0  0  0  0  0  0  0
    6.7194  -45.5875   14.5478 C   0  0  2  0  0  0  0  0  0  0  0  0
    7.2108  -45.0156   13.3119 O   0  0  0  0  0  0  0  0  0  0  0  0
    6.0034  -41.7972   10.5091 C   0  0  0  0  0  0  0  0  0  0  0  0
    5.6332  -43.1370   10.1497 O   0  0  0  0  0  0  0  0  0  0  0  0
    9.7982  -40.4204   15.2878 C   0  0  1  0  0  0  0  0  0  0  0  0
    9.8453  -41.2125   14.0826 O   0  0  0  0  0  0  0  0  0  0  0  0
   12.8504  -35.1019   14.5674 C   0  0  2  0  0  0  0  0  0  0  0  0
   13.1114  -36.5145   14.7956 O   0  0  0  0  0  0  0  0  0  0  0  0
    6.1717  -41.1862   15.3053 C   0  0  0  0  0  0  0  0  0  0  0  0
    7.2599  -41.9727   15.7089 O   0  0  0  0  0  0  0  0  0  0  0  0
    7.5622  -46.8454   14.9720 C   0  0  1  0  0  0  0  0  0  0  0  0
    8.9441  -46.4170   15.2293 O   0  0  0  0  0  0  0  0  0  0  0  0
   10.7383  -41.1429   16.3168 C   0  0  0  0  0  0  0  0  0  0  0  0
   10.5409  -40.6972   17.7174 N   0  0  0  0  0  0  0  0  0  0  0  0
   14.0280  -34.6188   13.7238 C   0  0  0  0  0  0  0  0  0  0  0  0
   13.6052  -33.5438   12.8293 O   0  0  0  0  0  0  0  0  0  0  0  0
  1  2  1  6  0  0  0
  1  8  1  0  0  0  0
  1 36  1  0  0  0  0
  3  4  1  6  0  0  0
  3 10  1  0  0  0  0
  3 47  1  0  0  0  0
  5 11  1  0  0  0  0
  5 30  1  0  0  0  0
  5 38  1  6  0  0  0
  6 21  1  6  0  0  0
  6 42  1  0  0  0  0
  7 15  1  0  0  0  0
  7 44  1  0  0  0  0
  7 32  1  6  0  0  0
  8  9  1  6  0  0  0
  8 17  1  0  0  0  0
 11 12  1  1  0  0  0
 11 20  1  0  0  0  0
 13  6  1  0  0  0  0
 13 14  1  1  0  0  0
 15 16  1  1  0  0  0
 15 24  1  0  0  0  0
 17 26  1  0  0  0  0
 18 10  1  0  0  0  0
 18 19  1  6  0  0  0
 20 21  1  1  0  0  0
 20 29  1  0  0  0  0
 22 13  1  0  0  0  0
 22 23  1  1  0  0  0
 24 25  1  1  0  0  0
 24 33  1  0  0  0  0
 26 27  1  6  0  0  0
 26 35  1  0  0  0  0
 28  2  1  1  0  0  0
 28 18  1  0  0  0  0
 29 30  1  0  0  0  0
 29 39  1  6  0  0  0
 31 22  1  0  0  0  0
 31 32  1  6  0  0  0
 31 41  1  0  0  0  0
 33 34  1  6  0  0  0
 33 43  1  0  0  0  0
 35 36  1  0  0  0  0
 35 45  1  1  0  0  0
 37 28  1  0  0  0  0
 37 38  1  6  0  0  0
 39 40  1  0  0  0  0
 41 42  1  0  0  0  0
 41 49  1  1  0  0  0
 43 44  1  0  0  0  0
 43 51  1  1  0  0  0
 45 46  1  0  0  0  0
 47 37  1  0  0  0  0
 47 48  1  1  0  0  0
 49 50  1  0  0  0  0
 51 52  1  0  0  0  0
M  END
>  <CHROM.1>
-157.09419294,145.09007824,-143.70035391,-30.99830235,-70.89323693,34.89776734
75.91605028,109.71705409,-176.08425222,110.20582229,55.67060539,-78.88960306
8.12116471,-41.20683399,14.36974340,2.29520253,0.51782172,2.80531226

>  <Name>
2fd0_lig

>  <RI>
2.85265e+07

>  <Rbt.Current_Directory>
/home/itssahil/PROJECTS/Mol_Feturizer/New_Systems/rnas/2fd0

>  <Rbt.Executable>
rbdock ($Id: //depot/dev/client3/rdock/2013.1/src/exe/rbdock.cxx#4 $)

>  <Rbt.Library>
libRbt.so (2013.1, Build901 2013/11/27)

>  <Rbt.Parameter_File>
/export/apps/rDock/src/rDock_2013.1_src/data/scripts/dock_solv.prm

>  <Rbt.Receptor>
prm/blind_docking_60.prm

>  <SCORE>
-3.09532

>  <SCORE.INTER>
-16.7359

>  <SCORE.INTER.CONST>
1

>  <SCORE.INTER.POLAR>
-1.0702

>  <SCORE.INTER.ROT>
12

>  <SCORE.INTER.SOLV>
18.1937

>  <SCORE.INTER.VDW>
-25.2545

>  <SCORE.INTER.norm>
-0.321844

>  <SCORE.INTRA>
12.0827

>  <SCORE.INTRA.DIHEDRAL>
10.8001

>  <SCORE.INTRA.DIHEDRAL.0>
23.9727

>  <SCORE.INTRA.POLAR>
0

>  <SCORE.INTRA.POLAR.0>
0

>  <SCORE.INTRA.REPUL>
0.0142456

>  <SCORE.INTRA.REPUL.0>
0

>  <SCORE.INTRA.SOLV>
2.40128

>  <SCORE.INTRA.SOLV.lig_0>
-115.028

>  <SCORE.INTRA.VDW>
5.41072

>  <SCORE.INTRA.VDW.0>
-6.82393

>  <SCORE.INTRA.norm>
0.232359

>  <SCORE.RESTR>
1.5579

>  <SCORE.RESTR.CAVITY>
1.5579

>  <SCORE.RESTR.norm>
0.0299595

>  <SCORE.SYSTEM>
0

>  <SCORE.SYSTEM.CONST>
0

>  <SCORE.SYSTEM.DIHEDRAL>
0

>  <SCORE.SYSTEM.SOLV>
0

>  <SCORE.SYSTEM.norm>
0

>  <SCORE.heavy>
52

>  <SCORE.norm>
-0.0595253

>  <RMSD>
14.940

$$$$
2fd0_lig
 OpenBabel11021811433D
libRbt.so/2013.1/901 2013/11/27
 52 56  0  0  0  0  0  0  0  0999 V2000
    5.9646  -48.5974   14.4182 C   0  0  2  0  0  0  0  0  0  0  0  0
    7.1075  -47.7466   14.2538 O   0  0  0  0  0  0  0  0  0  0  0  0
    8.1573  -44.8716   11.1675 C   0  0  2  0  0  0  0  0  0  0  0  0
    8.1457  -43.6740   10.3116 N   0  0  0  0  0  0  0  0  0  0  0  0
    8.8096  -44.0498   15.3987 C   0  0  1  0  0  0  0  0  0  0  0  0
    8.6863  -40.8026   15.2858 C   0  0  1  0  0  0  0  0  0  0  0  0
   12.5712  -37.2597   15.8756 C   0  0  1  0  0  0  0  0  0  0  0  0
    5.1155  -48.0654   15.6296 C   0  0  2  0  0  0  0  0  0  0  0  0
    4.7167  -46.6771   15.4445 N   0  0  0  0  0  0  0  0  0  0  0  0
    6.7598  -45.6279   11.0780 C   0  0  0  0  0  0  0  0  0  0  0  0
    7.4778  -43.3290   15.2974 C   0  0  2  0  0  0  0  0  0  0  0  0
    7.3139  -42.6502   14.0205 O   0  0  0  0  0  0  0  0  0  0  0  0
   10.0647  -40.8827   16.0939 C   0  0  2  0  0  0  0  0  0  0  0  0
   10.0099  -40.0204   17.3058 N   0  0  0  0  0  0  0  0  0  0  0  0
   11.8221  -36.3784   16.9003 C   0  0  1  0  0  0  0  0  0  0  0  0
   11.5728  -37.1551   18.0980 O   0  0  0  0  0  0  0  0  0  0  0  0
    5.9028  -48.2607   16.9781 C   0  0  0  0  0  0  0  0  0  0  0  0
    6.7786  -46.9375   12.0021 C   0  0  2  0  0  0  0  0  0  0  0  0
    5.4963  -47.6541   11.9394 N   0  0  0  0  0  0  0  0  0  0  0  0
    7.4773  -42.4411   16.5304 C   0  0  2  0  0  0  0  0  0  0  0  0
    7.6627  -41.0934   16.1922 O   0  0  0  0  0  0  0  0  0  0  0  0
   11.2537  -40.5453   15.0529 C   0  0  1  0  0  0  0  0  0  0  0  0
   11.1635  -41.4761   13.9591 O   0  0  0  0  0  0  0  0  0  0  0  0
   12.4942  -35.0438   17.3225 C   0  0  1  0  0  0  0  0  0  0  0  0
   13.2647  -35.2923   18.5052 O   0  0  0  0  0  0  0  0  0  0  0  0
    6.2888  -49.7698   17.1137 C   0  0  2  0  0  0  0  0  0  0  0  0
    6.9891  -49.9924   18.3337 O   0  0  0  0  0  0  0  0  0  0  0  0
    7.0880  -46.5224   13.4676 C   0  0  2  0  0  0  0  0  0  0  0  0
    8.6961  -42.8122   17.4086 C   0  0  2  0  0  0  0  0  0  0  0  0
    9.2043  -43.9675   16.7571 O   0  0  0  0  0  0  0  0  0  0  0  0
   11.0938  -39.0687   14.4139 C   0  0  2  0  0  0  0  0  0  0  0  0
   11.2073  -38.1749   15.5373 O   0  0  0  0  0  0  0  0  0  0  0  0
   13.4052  -34.3773   16.2659 C   0  0  2  0  0  0  0  0  0  0  0  0
   13.1240  -32.9626   16.3426 O   0  0  0  0  0  0  0  0  0  0  0  0
    7.1789  -50.1867   15.9081 C   0  0  2  0  0  0  0  0  0  0  0  0
    6.4102  -49.9560   14.6650 O   0  0  0  0  0  0  0  0  0  0  0  0
    8.4219  -45.7261   13.6008 C   0  0  2  0  0  0  0  0  0  0  0  0
    8.5741  -45.3611   14.9935 O   0  0  0  0  0  0  0  0  0  0  0  0
    8.3659  -43.1814   18.8505 C   0  0  0  0  0  0  0  0  0  0  0  0
    9.6146  -43.3808   19.5303 O   0  0  0  0  0  0  0  0  0  0  0  0
    9.6731  -39.0030   13.8860 C   0  0  1  0  0  0  0  0  0  0  0  0
    8.5047  -39.4266   14.6193 O   0  0  0  0  0  0  0  0  0  0  0  0
   13.1656  -34.9732   14.8813 C   0  0  2  0  0  0  0  0  0  0  0  0
   13.2242  -36.4254   14.8246 O   0  0  0  0  0  0  0  0  0  0  0  0
    7.5542  -51.6336   15.9597 C   0  0  0  0  0  0  0  0  0  0  0  0
    7.8697  -51.9528   17.2880 O   0  0  0  0  0  0  0  0  0  0  0  0
    8.3871  -44.4550   12.6758 C   0  0  1  0  0  0  0  0  0  0  0  0
    9.6770  -43.7600   12.7878 O   0  0  0  0  0  0  0  0  0  0  0  0
    9.3090  -37.6101   13.2602 C   0  0  0  0  0  0  0  0  0  0  0  0
   10.2136  -36.5135   13.6829 N   0  0  0  0  0  0  0  0  0  0  0  0
   13.9421  -34.5032   13.6532 C   0  0  0  0  0  0  0  0  0  0  0  0
   13.3182  -35.0095   12.4330 O   0  0  0  0  0  0  0  0  0  0  0  0
  1  2  1  1  0  0  0
  1  8  1  0  0  0  0
  1 36  1  0  0  0  0
  3  4  1  6  0  0  0
  3 10  1  0  0  0  0
  3 47  1  0  0  0  0
  5 11  1  0  0  0  0
  5 30  1  0  0  0  0
  5 38  1  1  0  0  0
  6 21  1  1  0  0  0
  6 42  1  0  0  0  0
  7 15  1  0  0  0  0
  7 44  1  0  0  0  0
  7 32  1  6  0  0  0
  8  9  1  6  0  0  0
  8 17  1  0  0  0  0
 11 12  1  6  0  0  0
 11 20  1  0  0  0  0
 13  6  1  0  0  0  0
 13 14  1  1  0  0  0
 15 16  1  1  0  0  0
 15 24  1  0  0  0  0
 17 26  1  0  0  0  0
 18 10  1  0  0  0  0
 18 19  1  1  0  0  0
 20 21  1  6  0  0  0
 20 29  1  0  0  0  0
 22 13  1  0  0  0  0
 22 23  1  6  0  0  0
 24 25  1  1  0  0  0
 24 33  1  0  0  0  0
 26 27  1  1  0  0  0
 26 35  1  0  0  0  0
 28  2  1  1  0  0  0
 28 18  1  0  0  0  0
 29 30  1  0  0  0  0
 29 39  1  1  0  0  0
 31 22  1  0  0  0  0
 31 32  1  1  0  0  0
 31 41  1  0  0  0  0
 33 34  1  6  0  0  0
 33 43  1  0  0  0  0
 35 36  1  0  0  0  0
 35 45  1  1  0  0  0
 37 28  1  0  0  0  0
 37 38  1  1  0  0  0
 39 40  1  0  0  0  0
 41 42  1  0  0  0  0
 41 49  1  1  0  0  0
 43 44  1  0  0  0  0
 43 51  1  6  0  0  0
 45 46  1  0  0  0  0
 47 37  1  0  0  0  0
 47 48  1  6  0  0  0
 49 50  1  0  0  0  0
 51 52  1  0  0  0  0
M  END
>  <CHROM.1>
-86.33711710,76.72270850,-77.19614254,166.56221946,-46.52077549,-62.67072558
-175.22344644,104.28102172,-41.41038355,-127.40700852,-18.88689018,-167.27609216
9.18951061,-42.42508820,15.18808173,2.85432159,1.13779224,1.91621742

>  <Name>
2fd0_lig

>  <RI>
0

>  <Rbt.Current_Directory>
/home/itssahil/PROJECTS/Mol_Feturizer/New_Systems/rnas/2fd0

>  <Rbt.Executable>
rbdock ($Id: //depot/dev/client3/rdock/2013.1/src/exe/rbdock.cxx#4 $)

>  <Rbt.Library>
libRbt.so (2013.1, Build901 2013/11/27)

>  <Rbt.Parameter_File>
/export/apps/rDock/src/rDock_2013.1_src/data/scripts/dock_solv.prm

>  <Rbt.Receptor>
prm/blind_docking_100.prm

>  <SCORE>
13.9509

>  <SCORE.INTER>
-10.6901

>  <SCORE.INTER.CONST>
1

>  <SCORE.INTER.POLAR>
-1.66725

>  <SCORE.INTER.ROT>
12

>  <SCORE.INTER.SOLV>
25.4996

>  <SCORE.INTER.VDW>
-21.6691

>  <SCORE.INTER.norm>
-0.205578

>  <SCORE.INTRA>
19.4225

>  <SCORE.INTRA.DIHEDRAL>
2.05209

>  <SCORE.INTRA.DIHEDRAL.0>
23.9727

>  <SCORE.INTRA.POLAR>
0

>  <SCORE.INTRA.POLAR.0>
0

>  <SCORE.INTRA.REPUL>
0.768114

>  <SCORE.INTRA.REPUL.0>
0

>  <SCORE.INTRA.SOLV>
7.84772

>  <SCORE.INTRA.SOLV.lig_0>
-115.028

>  <SCORE.INTRA.VDW>
10.632

>  <SCORE.INTRA.VDW.0>
-6.82393

>  <SCORE.INTRA.norm>
0.373509

>  <SCORE.RESTR>
5.21849

>  <SCORE.RESTR.CAVITY>
5.21849

>  <SCORE.RESTR.norm>
0.100356

>  <SCORE.SYSTEM>
0

>  <SCORE.SYSTEM.CONST>
0

>  <SCORE.SYSTEM.DIHEDRAL>
0

>  <SCORE.SYSTEM.SOLV>
0

>  <SCORE.SYSTEM.norm>
0

>  <SCORE.heavy>
52

>  <SCORE.norm>
0.268286

>  <RMSD>
14.952

$$$$
2fd0_lig
 OpenBabel11021811433D
libRbt.so/2013.1/901 2013/11/27
 52 56  0  0  0  0  0  0  0  0999 V2000
    4.2290  -44.6244   14.0788 C   0  0  2  0  0  0  0  0  0  0  0  0
    5.6009  -44.9519   14.3384 O   0  0  0  0  0  0  0  0  0  0  0  0
    7.0829  -48.2139   16.7992 C   0  0  2  0  0  0  0  0  0  0  0  0
    7.5001  -49.5563   17.2362 N   0  0  0  0  0  0  0  0  0  0  0  0
    8.4043  -44.5363   13.5790 C   0  0  1  0  0  0  0  0  0  0  0  0
    9.4254  -41.4317   13.1333 C   0  0  1  0  0  0  0  0  0  0  0  0
   10.8830  -36.7386   15.1848 C   0  0  1  0  0  0  0  0  0  0  0  0
    3.7948  -45.3178   12.7363 C   0  0  2  0  0  0  0  0  0  0  0  0
    3.9929  -46.7598   12.7817 N   0  0  0  0  0  0  0  0  0  0  0  0
    5.5677  -48.2376   16.3129 C   0  0  0  0  0  0  0  0  0  0  0  0
    9.8017  -44.3422   13.0193 C   0  0  2  0  0  0  0  0  0  0  0  0
   10.7362  -43.8587   14.0248 O   0  0  0  0  0  0  0  0  0  0  0  0
    9.0636  -39.9741   12.5821 C   0  0  2  0  0  0  0  0  0  0  0  0
   10.2652  -39.3284   11.9866 N   0  0  0  0  0  0  0  0  0  0  0  0
   12.0564  -36.5874   14.1908 C   0  0  1  0  0  0  0  0  0  0  0  0
   11.5239  -36.3402   12.8659 O   0  0  0  0  0  0  0  0  0  0  0  0
    4.5525  -44.6732   11.5169 C   0  0  0  0  0  0  0  0  0  0  0  0
    5.1124  -46.7727   15.8480 C   0  0  2  0  0  0  0  0  0  0  0  0
    3.7150  -46.7675   15.3908 N   0  0  0  0  0  0  0  0  0  0  0  0
    9.5673  -43.4259   11.8302 C   0  0  2  0  0  0  0  0  0  0  0  0
   10.0314  -42.1278   12.0835 O   0  0  0  0  0  0  0  0  0  0  0  0
    8.3642  -39.1617   13.7911 C   0  0  1  0  0  0  0  0  0  0  0  0
    7.2226  -39.9186   14.2327 O   0  0  0  0  0  0  0  0  0  0  0  0
   13.1162  -35.4945   14.4961 C   0  0  1  0  0  0  0  0  0  0  0  0
   12.7305  -34.3000   13.8042 O   0  0  0  0  0  0  0  0  0  0  0  0
    4.2880  -43.1322   11.5262 C   0  0  2  0  0  0  0  0  0  0  0  0
    4.9436  -42.5123   10.4244 O   0  0  0  0  0  0  0  0  0  0  0  0
    6.0498  -46.2858   14.7079 C   0  0  2  0  0  0  0  0  0  0  0  0
    8.0426  -43.2781   11.6116 C   0  0  2  0  0  0  0  0  0  0  0  0
    7.5075  -44.2225   12.5277 O   0  0  0  0  0  0  0  0  0  0  0  0
    9.3446  -39.0216   15.0692 C   0  0  2  0  0  0  0  0  0  0  0  0
   10.4583  -38.2467   14.5866 O   0  0  0  0  0  0  0  0  0  0  0  0
   13.3337  -35.1566   15.9891 C   0  0  2  0  0  0  0  0  0  0  0  0
   14.7606  -35.0015   16.1518 O   0  0  0  0  0  0  0  0  0  0  0  0
    4.8076  -42.5261   12.8613 C   0  0  2  0  0  0  0  0  0  0  0  0
    4.0913  -43.1836   13.9767 O   0  0  0  0  0  0  0  0  0  0  0  0
    7.5544  -46.2991   15.1162 C   0  0  2  0  0  0  0  0  0  0  0  0
    8.3219  -45.8716   13.9655 O   0  0  0  0  0  0  0  0  0  0  0  0
    7.5518  -43.6359   10.2132 C   0  0  0  0  0  0  0  0  0  0  0  0
    7.6730  -42.4526    9.4092 O   0  0  0  0  0  0  0  0  0  0  0  0
    9.8286  -40.4277   15.3696 C   0  0  1  0  0  0  0  0  0  0  0  0
   10.3250  -41.3536   14.3804 O   0  0  0  0  0  0  0  0  0  0  0  0
   12.7301  -36.2323   16.8882 C   0  0  2  0  0  0  0  0  0  0  0  0
   11.3457  -36.5664   16.5931 O   0  0  0  0  0  0  0  0  0  0  0  0
    4.5513  -41.0551   12.9485 C   0  0  0  0  0  0  0  0  0  0  0  0
    3.1763  -40.8432   12.7748 O   0  0  0  0  0  0  0  0  0  0  0  0
    7.9751  -47.7409   15.5820 C   0  0  1  0  0  0  0  0  0  0  0  0
    9.3813  -47.7029   16.0072 O   0  0  0  0  0  0  0  0  0  0  0  0
   10.8413  -40.4910   16.5674 C   0  0  0  0  0  0  0  0  0  0  0  0
   10.2126  -40.2600   17.8906 N   0  0  0  0  0  0  0  0  0  0  0  0
   12.7937  -36.1424   18.4113 C   0  0  0  0  0  0  0  0  0  0  0  0
   12.2487  -34.8662   18.8683 O   0  0  0  0  0  0  0  0  0  0  0  0
  1  2  1  6  0  0  0
  1  8  1  0  0  0  0
  1 36  1  0  0  0  0
  3  4  1  6  0  0  0
  3 10  1  0  0  0  0
  3 47  1  0  0  0  0
  5 11  1  0  0  0  0
  5 30  1  0  0  0  0
  5 38  1  6  0  0  0
  6 21  1  6  0  0  0
  6 42  1  0  0  0  0
  7 15  1  0  0  0  0
  7 44  1  0  0  0  0
  7 32  1  1  0  0  0
  8  9  1  1  0  0  0
  8 17  1  0  0  0  0
 11 12  1  1  0  0  0
 11 20  1  0  0  0  0
 13  6  1  0  0  0  0
 13 14  1  1  0  0  0
 15 16  1  6  0  0  0
 15 24  1  0  0  0  0
 17 26  1  0  0  0  0
 18 10  1  0  0  0  0
 18 19  1  6  0  0  0
 20 21  1  1  0  0  0
 20 29  1  0  0  0  0
 22 13  1  0  0  0  0
 22 23  1  1  0  0  0
 24 25  1  6  0  0  0
 24 33  1  0  0  0  0
 26 27  1  6  0  0  0
 26 35  1  0  0  0  0
 28  2  1  1  0  0  0
 28 18  1  0  0  0  0
 29 30  1  0  0  0  0
 29 39  1  6  0  0  0
 31 22  1  0  0  0  0
 31 32  1  6  0  0  0
 31 41  1  0  0  0  0
 33 34  1  6  0  0  0
 33 43  1  0  0  0  0
 35 36  1  0  0  0  0
 35 45  1  6  0  0  0
 37 28  1  0  0  0  0
 37 38  1  6  0  0  0
 39 40  1  0  0  0  0
 41 42  1  0  0  0  0
 41 49  1  1  0  0  0
 43 44  1  0  0  0  0
 43 51  1  1  0  0  0
 45 46  1  0  0  0  0
 47 37  1  0  0  0  0
 47 48  1  1  0  0  0
 49 50  1  0  0  0  0
 51 52  1  0  0  0  0
M  END
>  <CHROM.1>
-69.49494255,145.61844780,-132.32313868,-178.58768820,-62.22846802,-48.41030306
-86.70955153,117.71827472,56.10575777,76.73442717,71.93475997,53.94669698
8.45860896,-41.82655281,14.18589127,2.44414852,0.77256948,2.61290864

>  <Name>
2fd0_lig

>  <RI>
2.85265e+07

>  <Rbt.Current_Directory>
/home/itssahil/PROJECTS/Mol_Feturizer/New_Systems/rnas/2fd0

>  <Rbt.Executable>
rbdock ($Id: //depot/dev/client3/rdock/2013.1/src/exe/rbdock.cxx#4 $)

>  <Rbt.Library>
libRbt.so (2013.1, Build901 2013/11/27)

>  <Rbt.Parameter_File>
/export/apps/rDock/src/rDock_2013.1_src/data/scripts/dock_solv.prm

>  <Rbt.Receptor>
prm/blind_docking_60.prm

>  <SCORE>
-8.17748

>  <SCORE.INTER>
-15.7317

>  <SCORE.INTER.CONST>
1

>  <SCORE.INTER.POLAR>
-1.79409

>  <SCORE.INTER.ROT>
12

>  <SCORE.INTER.SOLV>
16.4395

>  <SCORE.INTER.VDW>
-21.5873

>  <SCORE.INTER.norm>
-0.302533

>  <SCORE.INTRA>
5.97486

>  <SCORE.INTRA.DIHEDRAL>
0.30735

>  <SCORE.INTRA.DIHEDRAL.0>
23.9727

>  <SCORE.INTRA.POLAR>
0

>  <SCORE.INTRA.POLAR.0>
0

>  <SCORE.INTRA.REPUL>
0.239863

>  <SCORE.INTRA.REPUL.0>
0

>  <SCORE.INTRA.SOLV>
3.933

>  <SCORE.INTRA.SOLV.lig_0>
-115.028

>  <SCORE.INTRA.VDW>
2.65537

>  <SCORE.INTRA.VDW.0>
-6.82393

>  <SCORE.INTRA.norm>
0.114901

>  <SCORE.RESTR>
1.57936

>  <SCORE.RESTR.CAVITY>
1.57936

>  <SCORE.RESTR.norm>
0.0303722

>  <SCORE.SYSTEM>
0

>  <SCORE.SYSTEM.CONST>
0

>  <SCORE.SYSTEM.DIHEDRAL>
0

>  <SCORE.SYSTEM.SOLV>
0

>  <SCORE.SYSTEM.norm>
0

>  <SCORE.heavy>
52

>  <SCORE.norm>
-0.157259

>  <RMSD>
14.956

$$$$
2fd0_lig
 OpenBabel11021811433D
libRbt.so/2013.1/901 2013/11/27
 52 56  0  0  0  0  0  0  0  0999 V2000
   14.1376  -36.2417   14.0324 C   0  0  2  0  0  0  0  0  0  0  0  0
   13.8939  -35.4495   15.2028 O   0  0  0  0  0  0  0  0  0  0  0  0
   10.7673  -33.7256   17.6817 C   0  0  2  0  0  0  0  0  0  0  0  0
    9.4482  -33.2722   18.1523 N   0  0  0  0  0  0  0  0  0  0  0  0
   11.0038  -37.9945   16.8550 C   0  0  1  0  0  0  0  0  0  0  0  0
    9.2339  -41.3239   14.8904 C   0  0  1  0  0  0  0  0  0  0  0  0
    7.4483  -45.7216   14.5294 C   0  0  1  0  0  0  0  0  0  0  0  0
   15.6655  -36.6090   13.9866 C   0  0  2  0  0  0  0  0  0  0  0  0
   16.0926  -37.3050   15.1924 N   0  0  0  0  0  0  0  0  0  0  0  0
   11.1278  -33.0309   16.2959 C   0  0  0  0  0  0  0  0  0  0  0  0
   11.1005  -39.1078   15.8279 C   0  0  2  0  0  0  0  0  0  0  0  0
   10.4068  -38.7791   14.5914 O   0  0  0  0  0  0  0  0  0  0  0  0
    7.8650  -42.1514   14.8612 C   0  0  2  0  0  0  0  0  0  0  0  0
    7.7713  -43.0468   16.0464 N   0  0  0  0  0  0  0  0  0  0  0  0
    8.1629  -46.7823   15.3966 C   0  0  1  0  0  0  0  0  0  0  0  0
    8.5434  -46.1814   16.6592 O   0  0  0  0  0  0  0  0  0  0  0  0
   16.5314  -35.3199   13.7317 C   0  0  0  0  0  0  0  0  0  0  0  0
   12.5692  -33.5176   15.7910 C   0  0  2  0  0  0  0  0  0  0  0  0
   12.9257  -32.8917   14.5092 N   0  0  0  0  0  0  0  0  0  0  0  0
   10.5772  -40.3161   16.5860 C   0  0  2  0  0  0  0  0  0  0  0  0
    9.3044  -40.6926   16.1356 O   0  0  0  0  0  0  0  0  0  0  0  0
    7.7770  -42.8864   13.4249 C   0  0  1  0  0  0  0  0  0  0  0  0
    7.8708  -41.8772   12.4032 O   0  0  0  0  0  0  0  0  0  0  0  0
    7.3918  -48.0953   15.7005 C   0  0  1  0  0  0  0  0  0  0  0  0
    6.7082  -47.9269   16.9490 O   0  0  0  0  0  0  0  0  0  0  0  0
   16.0251  -34.6325   12.4218 C   0  0  2  0  0  0  0  0  0  0  0  0
   16.7973  -33.4683   12.1452 O   0  0  0  0  0  0  0  0  0  0  0  0
   12.5626  -35.0651   15.6467 C   0  0  2  0  0  0  0  0  0  0  0  0
   10.3846  -39.9242   18.0705 C   0  0  2  0  0  0  0  0  0  0  0  0
   10.9580  -38.6257   18.1228 O   0  0  0  0  0  0  0  0  0  0  0  0
    9.0172  -43.8964   13.1881 C   0  0  2  0  0  0  0  0  0  0  0  0
    8.8726  -44.8931   14.2173 O   0  0  0  0  0  0  0  0  0  0  0  0
    6.3706  -48.5472   14.6311 C   0  0  2  0  0  0  0  0  0  0  0  0
    6.5226  -49.9797   14.5250 O   0  0  0  0  0  0  0  0  0  0  0  0
   14.5266  -34.2482   12.5851 C   0  0  2  0  0  0  0  0  0  0  0  0
   13.7594  -35.4845   12.8539 O   0  0  0  0  0  0  0  0  0  0  0  0
   12.1582  -35.7927   16.9651 C   0  0  2  0  0  0  0  0  0  0  0  0
   12.1456  -37.2144   16.6919 O   0  0  0  0  0  0  0  0  0  0  0  0
   11.1141  -40.8109   19.0735 C   0  0  0  0  0  0  0  0  0  0  0  0
   10.4504  -42.0839   19.0704 O   0  0  0  0  0  0  0  0  0  0  0  0
   10.2664  -43.0844   13.4741 C   0  0  1  0  0  0  0  0  0  0  0  0
   10.4469  -42.2346   14.6262 O   0  0  0  0  0  0  0  0  0  0  0  0
    6.5945  -47.8102   13.3134 C   0  0  2  0  0  0  0  0  0  0  0  0
    6.6684  -46.3623   13.4302 O   0  0  0  0  0  0  0  0  0  0  0  0
   13.9701  -33.6163   11.3489 C   0  0  0  0  0  0  0  0  0  0  0  0
   14.0988  -34.5342   10.2969 O   0  0  0  0  0  0  0  0  0  0  0  0
   10.7492  -35.2898   17.4494 C   0  0  1  0  0  0  0  0  0  0  0  0
   10.4255  -35.9571   18.7180 O   0  0  0  0  0  0  0  0  0  0  0  0
   11.5903  -43.9174   13.3398 C   0  0  0  0  0  0  0  0  0  0  0  0
   12.8093  -43.1615   13.7166 N   0  0  0  0  0  0  0  0  0  0  0  0
    5.7168  -48.0586   12.0887 C   0  0  0  0  0  0  0  0  0  0  0  0
    5.5414  -49.4926   11.8715 O   0  0  0  0  0  0  0  0  0  0  0  0
  1  2  1  1  0  0  0
  1  8  1  0  0  0  0
  1 36  1  0  0  0  0
  3  4  1  6  0  0  0
  3 10  1  0  0  0  0
  3 47  1  0  0  0  0
  5 11  1  0  0  0  0
  5 30  1  0  0  0  0
  5 38  1  1  0  0  0
  6 21  1  1  0  0  0
  6 42  1  0  0  0  0
  7 15  1  0  0  0  0
  7 44  1  0  0  0  0
  7 32  1  6  0  0  0
  8  9  1  1  0  0  0
  8 17  1  0  0  0  0
 11 12  1  6  0  0  0
 11 20  1  0  0  0  0
 13  6  1  0  0  0  0
 13 14  1  1  0  0  0
 15 16  1  1  0  0  0
 15 24  1  0  0  0  0
 17 26  1  0  0  0  0
 18 10  1  0  0  0  0
 18 19  1  6  0  0  0
 20 21  1  6  0  0  0
 20 29  1  0  0  0  0
 22 13  1  0  0  0  0
 22 23  1  6  0  0  0
 24 25  1  1  0  0  0
 24 33  1  0  0  0  0
 26 27  1  1  0  0  0
 26 35  1  0  0  0  0
 28  2  1  1  0  0  0
 28 18  1  0  0  0  0
 29 30  1  0  0  0  0
 29 39  1  1  0  0  0
 31 22  1  0  0  0  0
 31 32  1  1  0  0  0
 31 41  1  0  0  0  0
 33 34  1  6  0  0  0
 33 43  1  0  0  0  0
 35 36  1  0  0  0  0
 35 45  1  6  0  0  0
 37 28  1  0  0  0  0
 37 38  1  6  0  0  0
 39 40  1  0  0  0  0
 41 42  1  0  0  0  0
 41 49  1  1  0  0  0
 43 44  1  0  0  0  0
 43 51  1  6  0  0  0
 45 46  1  0  0  0  0
 47 37  1  0  0  0  0
 47 48  1  1  0  0  0
 49 50  1  0  0  0  0
 51 52  1  0  0  0  0
M  END
>  <CHROM.1>
-172.50761509,149.36299023,157.78572898,165.62001736,73.62063429,-125.71632256
-70.18520666,50.45397553,59.64386933,-120.76976392,-175.62866646,-46.50248361
10.65150911,-40.21250358,14.97986120,-0.69012275,-0.93447529,-2.34972218

>  <Name>
2fd0_lig

>  <RI>
2.60878e+07

>  <Rbt.Current_Directory>
/home/itssahil/PROJECTS/Mol_Feturizer/New_Systems/rnas/2fd0

>  <Rbt.Executable>
rbdock ($Id: //depot/dev/client3/rdock/2013.1/src/exe/rbdock.cxx#4 $)

>  <Rbt.Library>
libRbt.so (2013.1, Build901 2013/11/27)

>  <Rbt.Parameter_File>
/export/apps/rDock/src/rDock_2013.1_src/data/scripts/dock_solv.prm

>  <Rbt.Receptor>
prm/blind_docking_80.prm

>  <SCORE>
-15.4648

>  <SCORE.INTER>
-21.9702

>  <SCORE.INTER.CONST>
1

>  <SCORE.INTER.POLAR>
-2.10153

>  <SCORE.INTER.ROT>
12

>  <SCORE.INTER.SOLV>
28.9056

>  <SCORE.INTER.VDW>
-28.877

>  <SCORE.INTER.norm>
-0.422505

>  <SCORE.INTRA>
3.33918

>  <SCORE.INTRA.DIHEDRAL>
1.237

>  <SCORE.INTRA.DIHEDRAL.0>
23.9727

>  <SCORE.INTRA.POLAR>
0

>  <SCORE.INTRA.POLAR.0>
0

>  <SCORE.INTRA.REPUL>
0

>  <SCORE.INTRA.REPUL.0>
0

>  <SCORE.INTRA.SOLV>
-0.135149

>  <SCORE.INTRA.SOLV.lig_0>
-115.028

>  <SCORE.INTRA.VDW>
2.78825

>  <SCORE.INTRA.VDW.0>
-6.82393

>  <SCORE.INTRA.norm>
0.064215

>  <SCORE.RESTR>
3.16622

>  <SCORE.RESTR.CAVITY>
3.16622

>  <SCORE.RESTR.norm>
0.0608889

>  <SCORE.SYSTEM>
0

>  <SCORE.SYSTEM.CONST>
0

>  <SCORE.SYSTEM.DIHEDRAL>
0

>  <SCORE.SYSTEM.SOLV>
0

>  <SCORE.SYSTEM.norm>
0

>  <SCORE.heavy>
52

>  <SCORE.norm>
-0.297401

>  <RMSD>
14.963

$$$$
2fd0_lig
 OpenBabel11021811433D
libRbt.so/2013.1/901 2013/11/27
 52 56  0  0  0  0  0  0  0  0999 V2000
    6.7802  -47.2743   16.2666 C   0  0  2  0  0  0  0  0  0  0  0  0
    6.9801  -47.6332   14.8925 O   0  0  0  0  0  0  0  0  0  0  0  0
    6.3074  -45.9201   10.9548 C   0  0  2  0  0  0  0  0  0  0  0  0
    5.6423  -45.3122    9.7907 N   0  0  0  0  0  0  0  0  0  0  0  0
    7.5841  -43.6729   14.8876 C   0  0  1  0  0  0  0  0  0  0  0  0
    8.9377  -40.6567   14.9967 C   0  0  1  0  0  0  0  0  0  0  0  0
   12.4892  -37.0218   14.2403 C   0  0  1  0  0  0  0  0  0  0  0  0
    7.5488  -48.3064   17.1697 C   0  0  2  0  0  0  0  0  0  0  0  0
    8.9663  -48.3647   16.8411 N   0  0  0  0  0  0  0  0  0  0  0  0
    5.6158  -47.3049   11.3251 C   0  0  0  0  0  0  0  0  0  0  0  0
    6.6770  -42.5324   15.3117 C   0  0  2  0  0  0  0  0  0  0  0  0
    6.3087  -41.6759   14.1941 O   0  0  0  0  0  0  0  0  0  0  0  0
   10.3653  -40.8907   15.6798 C   0  0  2  0  0  0  0  0  0  0  0  0
   10.6000  -39.8883   16.7547 N   0  0  0  0  0  0  0  0  0  0  0  0
   13.8784  -37.3300   14.8427 C   0  0  1  0  0  0  0  0  0  0  0  0
   14.5730  -38.2607   13.9759 O   0  0  0  0  0  0  0  0  0  0  0  0
    6.8784  -49.7267   17.0706 C   0  0  0  0  0  0  0  0  0  0  0  0
    6.3488  -47.9702   12.5858 C   0  0  2  0  0  0  0  0  0  0  0  0
    5.7265  -49.2514   12.9507 N   0  0  0  0  0  0  0  0  0  0  0  0
    7.4642  -41.8696   16.4295 C   0  0  2  0  0  0  0  0  0  0  0  0
    7.9905  -40.6352   16.0244 O   0  0  0  0  0  0  0  0  0  0  0  0
   11.4667  -40.9146   14.4978 C   0  0  1  0  0  0  0  0  0  0  0  0
   11.0919  -41.9419   13.5623 O   0  0  0  0  0  0  0  0  0  0  0  0
   14.8228  -36.1279   15.1147 C   0  0  1  0  0  0  0  0  0  0  0  0
   15.6595  -35.9546   13.9640 O   0  0  0  0  0  0  0  0  0  0  0  0
    5.3664  -49.5894   17.4444 C   0  0  2  0  0  0  0  0  0  0  0  0
    4.7260  -50.8600   17.3844 O   0  0  0  0  0  0  0  0  0  0  0  0
    6.2898  -46.9859   13.7872 C   0  0  2  0  0  0  0  0  0  0  0  0
    8.6945  -42.7490   16.7579 C   0  0  2  0  0  0  0  0  0  0  0  0
    8.4590  -43.9115   15.9764 O   0  0  0  0  0  0  0  0  0  0  0  0
   11.4917  -39.5261   13.6697 C   0  0  2  0  0  0  0  0  0  0  0  0
   11.8864  -38.5356   14.6375 O   0  0  0  0  0  0  0  0  0  0  0  0
   14.1341  -34.7815   15.4365 C   0  0  2  0  0  0  0  0  0  0  0  0
   14.9082  -34.1907   16.5033 O   0  0  0  0  0  0  0  0  0  0  0  0
    4.6776  -48.6016   16.4598 C   0  0  2  0  0  0  0  0  0  0  0  0
    5.3605  -47.2932   16.5652 O   0  0  0  0  0  0  0  0  0  0  0  0
    6.9044  -45.5917   13.4561 C   0  0  2  0  0  0  0  0  0  0  0  0
    6.7503  -44.7580   14.6297 O   0  0  0  0  0  0  0  0  0  0  0  0
    8.8175  -43.1700   18.2180 C   0  0  0  0  0  0  0  0  0  0  0  0
   10.0200  -43.9459   18.3323 O   0  0  0  0  0  0  0  0  0  0  0  0
   10.0525  -39.2631   13.2685 C   0  0  1  0  0  0  0  0  0  0  0  0
    8.9209  -39.3656   14.1579 O   0  0  0  0  0  0  0  0  0  0  0  0
   12.6641  -34.9887   15.7913 C   0  0  2  0  0  0  0  0  0  0  0  0
   11.9110  -35.7789   14.8301 O   0  0  0  0  0  0  0  0  0  0  0  0
    3.2322  -48.3983   16.7864 C   0  0  0  0  0  0  0  0  0  0  0  0
    2.5988  -49.6485   16.7481 O   0  0  0  0  0  0  0  0  0  0  0  0
    6.1809  -44.9647   12.2087 C   0  0  1  0  0  0  0  0  0  0  0  0
    6.8196  -43.6788   11.8955 O   0  0  0  0  0  0  0  0  0  0  0  0
    9.8649  -37.9163   12.4840 C   0  0  0  0  0  0  0  0  0  0  0  0
   10.0855  -36.7081   13.3152 N   0  0  0  0  0  0  0  0  0  0  0  0
   11.7446  -33.8211   16.1422 C   0  0  0  0  0  0  0  0  0  0  0  0
   11.5357  -32.9696   14.9736 O   0  0  0  0  0  0  0  0  0  0  0  0
  1  2  1  6  0  0  0
  1  8  1  0  0  0  0
  1 36  1  0  0  0  0
  3  4  1  6  0  0  0
  3 10  1  0  0  0  0
  3 47  1  0  0  0  0
  5 11  1  0  0  0  0
  5 30  1  0  0  0  0
  5 38  1  1  0  0  0
  6 21  1  1  0  0  0
  6 42  1  0  0  0  0
  7 15  1  0  0  0  0
  7 44  1  0  0  0  0
  7 32  1  1  0  0  0
  8  9  1  6  0  0  0
  8 17  1  0  0  0  0
 11 12  1  6  0  0  0
 11 20  1  0  0  0  0
 13  6  1  0  0  0  0
 13 14  1  1  0  0  0
 15 16  1  6  0  0  0
 15 24  1  0  0  0  0
 17 26  1  0  0  0  0
 18 10  1  0  0  0  0
 18 19  1  1  0  0  0
 20 21  1  6  0  0  0
 20 29  1  0  0  0  0
 22 13  1  0  0  0  0
 22 23  1  6  0  0  0
 24 25  1  6  0  0  0
 24 33  1  0  0  0  0
 26 27  1  6  0  0  0
 26 35  1  0  0  0  0
 28  2  1  1  0  0  0
 28 18  1  0  0  0  0
 29 30  1  0  0  0  0
 29 39  1  1  0  0  0
 31 22  1  0  0  0  0
 31 32  1  1  0  0  0
 31 41  1  0  0  0  0
 33 34  1  1  0  0  0
 33 43  1  0  0  0  0
 35 36  1  0  0  0  0
 35 45  1  1  0  0  0
 37 28  1  0  0  0  0
 37 38  1  1  0  0  0
 39 40  1  0  0  0  0
 41 42  1  0  0  0  0
 41 49  1  1  0  0  0
 43 44  1  0  0  0  0
 43 51  1  6  0  0  0
 45 46  1  0  0  0  0
 47 37  1  0  0  0  0
 47 48  1  6  0  0  0
 49 50  1  0  0  0  0
 51 52  1  0  0  0  0
M  END
>  <CHROM.1>
172.80003065,134.97876786,-86.62950968,-114.47537839,-64.09054396,-158.91378755
-178.78660811,161.74172891,-58.13019914,155.38784623,-68.67510801,66.93342428
8.87573694,-42.43291484,14.94169263,-2.65204378,-0.94687441,-1.02440171

>  <Name>
2fd0_lig

>  <RI>
2.60878e+07

>  <Rbt.Current_Directory>
/home/itssahil/PROJECTS/Mol_Feturizer/New_Systems/rnas/2fd0

>  <Rbt.Executable>
rbdock ($Id: //depot/dev/client3/rdock/2013.1/src/exe/rbdock.cxx#4 $)

>  <Rbt.Library>
libRbt.so (2013.1, Build901 2013/11/27)

>  <Rbt.Parameter_File>
/export/apps/rDock/src/rDock_2013.1_src/data/scripts/dock_solv.prm

>  <Rbt.Receptor>
prm/blind_docking_80.prm

>  <SCORE>
-3.67712

>  <SCORE.INTER>
-13.9146

>  <SCORE.INTER.CONST>
1

>  <SCORE.INTER.POLAR>
-2.12685

>  <SCORE.INTER.ROT>
12

>  <SCORE.INTER.SOLV>
33.1082

>  <SCORE.INTER.VDW>
-24.8229

>  <SCORE.INTER.norm>
-0.267588

>  <SCORE.INTRA>
7.95477

>  <SCORE.INTRA.DIHEDRAL>
0.490323

>  <SCORE.INTRA.DIHEDRAL.0>
23.9727

>  <SCORE.INTRA.POLAR>
0

>  <SCORE.INTRA.POLAR.0>
0

>  <SCORE.INTRA.REPUL>
0.271111

>  <SCORE.INTRA.REPUL.0>
0

>  <SCORE.INTRA.SOLV>
1.86805

>  <SCORE.INTRA.SOLV.lig_0>
-115.028

>  <SCORE.INTRA.VDW>
5.42003

>  <SCORE.INTRA.VDW.0>
-6.82393

>  <SCORE.INTRA.norm>
0.152976

>  <SCORE.RESTR>
2.28265

>  <SCORE.RESTR.CAVITY>
2.28265

>  <SCORE.RESTR.norm>
0.0438972

>  <SCORE.SYSTEM>
0

>  <SCORE.SYSTEM.CONST>
0

>  <SCORE.SYSTEM.DIHEDRAL>
0

>  <SCORE.SYSTEM.SOLV>
0

>  <SCORE.SYSTEM.norm>
0

>  <SCORE.heavy>
52

>  <SCORE.norm>
-0.0707139

>  <RMSD>
14.974

$$$$
2fd0_lig
 OpenBabel11021811433D
libRbt.so/2013.1/901 2013/11/27
 52 56  0  0  0  0  0  0  0  0999 V2000
    7.0812  -48.1688   14.9919 C   0  0  2  0  0  0  0  0  0  0  0  0
    6.6400  -48.3393   13.6380 O   0  0  0  0  0  0  0  0  0  0  0  0
    5.0605  -46.0979   10.2655 C   0  0  2  0  0  0  0  0  0  0  0  0
    4.2976  -45.1208    9.4716 N   0  0  0  0  0  0  0  0  0  0  0  0
    8.6338  -44.7352   12.7072 C   0  0  1  0  0  0  0  0  0  0  0  0
    9.9693  -41.1226   14.2643 C   0  0  1  0  0  0  0  0  0  0  0  0
   12.5159  -36.7994   16.0183 C   0  0  1  0  0  0  0  0  0  0  0  0
    7.4443  -49.5804   15.5810 C   0  0  2  0  0  0  0  0  0  0  0  0
    8.4529  -50.2596   14.7796 N   0  0  0  0  0  0  0  0  0  0  0  0
    4.0727  -47.0034   11.1241 C   0  0  0  0  0  0  0  0  0  0  0  0
    8.7428  -43.7830   13.8841 C   0  0  2  0  0  0  0  0  0  0  0  0
    7.8537  -42.6384   13.7516 O   0  0  0  0  0  0  0  0  0  0  0  0
   10.2941  -39.7612   13.4893 C   0  0  2  0  0  0  0  0  0  0  0  0
   11.7475  -39.6698   13.1818 N   0  0  0  0  0  0  0  0  0  0  0  0
   11.6453  -35.9653   15.0518 C   0  0  1  0  0  0  0  0  0  0  0  0
   10.3080  -35.8529   15.5986 O   0  0  0  0  0  0  0  0  0  0  0  0
    6.1480  -50.4591   15.7360 C   0  0  0  0  0  0  0  0  0  0  0  0
    4.9049  -48.0737   11.9792 C   0  0  2  0  0  0  0  0  0  0  0  0
    4.0146  -48.9225   12.7847 N   0  0  0  0  0  0  0  0  0  0  0  0
   10.2292  -43.4716   13.9327 C   0  0  2  0  0  0  0  0  0  0  0  0
   10.4943  -42.1661   13.4966 O   0  0  0  0  0  0  0  0  0  0  0  0
    9.6919  -38.5490   14.3720 C   0  0  1  0  0  0  0  0  0  0  0  0
    8.2861  -38.7924   14.5600 O   0  0  0  0  0  0  0  0  0  0  0  0
   12.1411  -34.5382   14.6932 C   0  0  1  0  0  0  0  0  0  0  0  0
   11.5321  -33.6168   15.6067 O   0  0  0  0  0  0  0  0  0  0  0  0
    5.1177  -49.6742   16.6119 C   0  0  2  0  0  0  0  0  0  0  0  0
    3.9341  -50.4455   16.7916 O   0  0  0  0  0  0  0  0  0  0  0  0
    5.9055  -47.3222   12.9010 C   0  0  2  0  0  0  0  0  0  0  0  0
   10.9616  -44.3933   12.9285 C   0  0  2  0  0  0  0  0  0  0  0  0
    9.9292  -45.2748   12.5106 O   0  0  0  0  0  0  0  0  0  0  0  0
   10.3499  -38.4939   15.8479 C   0  0  2  0  0  0  0  0  0  0  0  0
   11.7461  -38.2326   15.6112 O   0  0  0  0  0  0  0  0  0  0  0  0
   13.6722  -34.3243   14.7173 C   0  0  2  0  0  0  0  0  0  0  0  0
   13.9712  -33.5041   13.5665 O   0  0  0  0  0  0  0  0  0  0  0  0
    4.7712  -48.3252   15.9191 C   0  0  2  0  0  0  0  0  0  0  0  0
    6.0221  -47.5497   15.7667 O   0  0  0  0  0  0  0  0  0  0  0  0
    6.8598  -46.3755   12.1111 C   0  0  2  0  0  0  0  0  0  0  0  0
    7.7056  -45.7053   13.0763 O   0  0  0  0  0  0  0  0  0  0  0  0
   12.0924  -45.2266   13.5213 C   0  0  0  0  0  0  0  0  0  0  0  0
   11.7256  -46.6057   13.3644 O   0  0  0  0  0  0  0  0  0  0  0  0
   10.2095  -39.8956   16.4110 C   0  0  1  0  0  0  0  0  0  0  0  0
   10.5383  -41.1044   15.6949 O   0  0  0  0  0  0  0  0  0  0  0  0
   14.4121  -35.6592   14.7244 C   0  0  2  0  0  0  0  0  0  0  0  0
   13.9688  -36.5960   15.7448 O   0  0  0  0  0  0  0  0  0  0  0  0
    3.8139  -47.5078   16.7269 C   0  0  0  0  0  0  0  0  0  0  0  0
    4.4023  -47.2580   17.9747 O   0  0  0  0  0  0  0  0  0  0  0  0
    6.0229  -45.3444   11.2691 C   0  0  1  0  0  0  0  0  0  0  0  0
    6.9523  -44.5052   10.5001 O   0  0  0  0  0  0  0  0  0  0  0  0
   10.8402  -40.0547   17.8398 C   0  0  0  0  0  0  0  0  0  0  0  0
   10.5677  -41.3707   18.4669 N   0  0  0  0  0  0  0  0  0  0  0  0
   15.9368  -35.7385   14.7579 C   0  0  0  0  0  0  0  0  0  0  0  0
   16.3691  -37.1127   15.0011 O   0  0  0  0  0  0  0  0  0  0  0  0
  1  2  1  6  0  0  0
  1  8  1  0  0  0  0
  1 36  1  0  0  0  0
  3  4  1  1  0  0  0
  3 10  1  0  0  0  0
  3 47  1  0  0  0  0
  5 11  1  0  0  0  0
  5 30  1  0  0  0  0
  5 38  1  1  0  0  0
  6 21  1  6  0  0  0
  6 42  1  0  0  0  0
  7 15  1  0  0  0  0
  7 44  1  0  0  0  0
  7 32  1  6  0  0  0
  8  9  1  6  0  0  0
  8 17  1  0  0  0  0
 11 12  1  6  0  0  0
 11 20  1  0  0  0  0
 13  6  1  0  0  0  0
 13 14  1  1  0  0  0
 15 16  1  1  0  0  0
 15 24  1  0  0  0  0
 17 26  1  0  0  0  0
 18 10  1  0  0  0  0
 18 19  1  1  0  0  0
 20 21  1  6  0  0  0
 20 29  1  0  0  0  0
 22 13  1  0  0  0  0
 22 23  1  1  0  0  0
 24 25  1  1  0  0  0
 24 33  1  0  0  0  0
 26 27  1  6  0  0  0
 26 35  1  0  0  0  0
 28  2  1  6  0  0  0
 28 18  1  0  0  0  0
 29 30  1  0  0  0  0
 29 39  1  1  0  0  0
 31 22  1  0  0  0  0
 31 32  1  6  0  0  0
 31 41  1  0  0  0  0
 33 34  1  6  0  0  0
 33 43  1  0  0  0  0
 35 36  1  0  0  0  0
 35 45  1  1  0  0  0
 37 28  1  0  0  0  0
 37 38  1  1  0  0  0
 39 40  1  0  0  0  0
 41 42  1  0  0  0  0
 41 49  1  1  0  0  0
 43 44  1  0  0  0  0
 43 51  1  1  0  0  0
 45 46  1  0  0  0  0
 47 37  1  0  0  0  0
 47 48  1  6  0  0  0
 49 50  1  0  0  0  0
 51 52  1  0  0  0  0
M  END
>  <CHROM.1>
163.50577779,149.62703179,-174.89294511,-63.12671976,64.06433408,-145.27481274
117.35897442,111.74747887,59.15823675,-176.76812490,173.07812512,169.77469271
9.08500281,-42.79301361,14.35121512,-2.80490150,-0.99948546,-1.09569218

>  <Name>
2fd0_lig

>  <RI>
2.60878e+07

>  <Rbt.Current_Directory>
/home/itssahil/PROJECTS/Mol_Feturizer/New_Systems/rnas/2fd0

>  <Rbt.Executable>
rbdock ($Id: //depot/dev/client3/rdock/2013.1/src/exe/rbdock.cxx#4 $)

>  <Rbt.Library>
libRbt.so (2013.1, Build901 2013/11/27)

>  <Rbt.Parameter_File>
/export/apps/rDock/src/rDock_2013.1_src/data/scripts/dock_solv.prm

>  <Rbt.Receptor>
prm/blind_docking_80.prm

>  <SCORE>
-7.10849

>  <SCORE.INTER>
-12.3689

>  <SCORE.INTER.CONST>
1

>  <SCORE.INTER.POLAR>
-0.396662

>  <SCORE.INTER.ROT>
12

>  <SCORE.INTER.SOLV>
34.7541

>  <SCORE.INTER.VDW>
-30.1084

>  <SCORE.INTER.norm>
-0.237864

>  <SCORE.INTRA>
3.50133

>  <SCORE.INTRA.DIHEDRAL>
-0.619361

>  <SCORE.INTRA.DIHEDRAL.0>
23.9727

>  <SCORE.INTRA.POLAR>
0

>  <SCORE.INTRA.POLAR.0>
0

>  <SCORE.INTRA.REPUL>
0

>  <SCORE.INTRA.REPUL.0>
0

>  <SCORE.INTRA.SOLV>
-2.27923

>  <SCORE.INTRA.SOLV.lig_0>
-115.028

>  <SCORE.INTRA.VDW>
4.95063

>  <SCORE.INTRA.VDW.0>
-6.82393

>  <SCORE.INTRA.norm>
0.0673334

>  <SCORE.RESTR>
1.75909

>  <SCORE.RESTR.CAVITY>
1.75909

>  <SCORE.RESTR.norm>
0.0338286

>  <SCORE.SYSTEM>
0

>  <SCORE.SYSTEM.CONST>
0

>  <SCORE.SYSTEM.DIHEDRAL>
0

>  <SCORE.SYSTEM.SOLV>
0

>  <SCORE.SYSTEM.norm>
0

>  <SCORE.heavy>
52

>  <SCORE.norm>
-0.136702

>  <RMSD>
14.975

$$$$
2fd0_lig
 OpenBabel11021811433D
libRbt.so/2013.1/901 2013/11/27
 52 56  0  0  0  0  0  0  0  0999 V2000
    7.1855  -47.8699   17.0128 C   0  0  2  0  0  0  0  0  0  0  0  0
    7.5109  -48.1249   15.6394 O   0  0  0  0  0  0  0  0  0  0  0  0
    7.8418  -46.0522   11.8332 C   0  0  2  0  0  0  0  0  0  0  0  0
    7.5450  -45.1717   10.6915 N   0  0  0  0  0  0  0  0  0  0  0  0
    8.8552  -44.0541   15.6572 C   0  0  1  0  0  0  0  0  0  0  0  0
    9.3714  -40.8630   15.0209 C   0  0  1  0  0  0  0  0  0  0  0  0
   12.5277  -37.3221   15.1038 C   0  0  1  0  0  0  0  0  0  0  0  0
    7.7248  -49.0622   17.8841 C   0  0  2  0  0  0  0  0  0  0  0  0
    9.1574  -49.2572   17.7093 N   0  0  0  0  0  0  0  0  0  0  0  0
    6.6615  -47.0987   12.0449 C   0  0  0  0  0  0  0  0  0  0  0  0
    7.6355  -43.1536   15.5874 C   0  0  2  0  0  0  0  0  0  0  0  0
    7.3318  -42.7411   14.2252 O   0  0  0  0  0  0  0  0  0  0  0  0
   10.6219  -40.2774   15.8288 C   0  0  2  0  0  0  0  0  0  0  0  0
   10.2872  -38.9531   16.4201 N   0  0  0  0  0  0  0  0  0  0  0  0
   11.6424  -36.0633   15.2427 C   0  0  1  0  0  0  0  0  0  0  0  0
   10.4654  -36.3972   16.0193 O   0  0  0  0  0  0  0  0  0  0  0  0
    6.9240  -50.3790   17.5660 C   0  0  0  0  0  0  0  0  0  0  0  0
    6.9920  -48.0635   13.2815 C   0  0  2  0  0  0  0  0  0  0  0  0
    5.9144  -49.0396   13.5005 N   0  0  0  0  0  0  0  0  0  0  0  0
    7.9794  -42.0394   16.5614 C   0  0  2  0  0  0  0  0  0  0  0  0
    8.2773  -40.8453   15.8905 O   0  0  0  0  0  0  0  0  0  0  0  0
   11.8913  -40.2924   14.8291 C   0  0  1  0  0  0  0  0  0  0  0  0
   12.0759  -41.6425   14.3662 O   0  0  0  0  0  0  0  0  0  0  0  0
   12.2903  -34.7987   15.8688 C   0  0  1  0  0  0  0  0  0  0  0  0
   12.0191  -34.8144   17.2761 O   0  0  0  0  0  0  0  0  0  0  0  0
    5.4011  -50.0988   17.7832 C   0  0  2  0  0  0  0  0  0  0  0  0
    4.6410  -51.2746   17.5225 O   0  0  0  0  0  0  0  0  0  0  0  0
    7.2005  -47.2020   14.5582 C   0  0  2  0  0  0  0  0  0  0  0  0
    9.2782  -42.4203   17.3114 C   0  0  2  0  0  0  0  0  0  0  0  0
    9.4999  -43.7565   16.8835 O   0  0  0  0  0  0  0  0  0  0  0  0
   11.6332  -39.3874   13.5143 C   0  0  2  0  0  0  0  0  0  0  0  0
   11.4721  -38.0498   14.0227 O   0  0  0  0  0  0  0  0  0  0  0  0
   13.8136  -34.6396   15.6573 C   0  0  2  0  0  0  0  0  0  0  0  0
   14.0256  -33.2391   15.3744 O   0  0  0  0  0  0  0  0  0  0  0  0
    4.9457  -48.9524   16.8356 C   0  0  2  0  0  0  0  0  0  0  0  0
    5.7462  -47.7482   17.1496 O   0  0  0  0  0  0  0  0  0  0  0  0
    8.3097  -46.1205   14.3822 C   0  0  2  0  0  0  0  0  0  0  0  0
    8.3770  -45.3612   15.6131 O   0  0  0  0  0  0  0  0  0  0  0  0
    9.1720  -42.4157   18.8323 C   0  0  0  0  0  0  0  0  0  0  0  0
    9.6265  -41.1302   19.2819 O   0  0  0  0  0  0  0  0  0  0  0  0
   10.3038  -39.8535   12.9513 C   0  0  1  0  0  0  0  0  0  0  0  0
    9.1089  -40.0609   13.7331 O   0  0  0  0  0  0  0  0  0  0  0  0
   14.3137  -35.5678   14.5536 C   0  0  2  0  0  0  0  0  0  0  0  0
   13.9187  -36.9596   14.7029 O   0  0  0  0  0  0  0  0  0  0  0  0
    3.5014  -48.6105   17.0202 C   0  0  0  0  0  0  0  0  0  0  0  0
    2.7372  -49.6929   16.5617 O   0  0  0  0  0  0  0  0  0  0  0  0
    7.9727  -45.1954   13.1561 C   0  0  1  0  0  0  0  0  0  0  0  0
    9.0629  -44.2242   12.9898 O   0  0  0  0  0  0  0  0  0  0  0  0
    9.8543  -39.0501   11.6797 C   0  0  0  0  0  0  0  0  0  0  0  0
    9.4814  -39.9126   10.5324 N   0  0  0  0  0  0  0  0  0  0  0  0
   15.7845  -35.6211   14.1466 C   0  0  0  0  0  0  0  0  0  0  0  0
   16.6014  -36.1089   15.2553 O   0  0  0  0  0  0  0  0  0  0  0  0
  1  2  1  6  0  0  0
  1  8  1  0  0  0  0
  1 36  1  0  0  0  0
  3  4  1  6  0  0  0
  3 10  1  0  0  0  0
  3 47  1  0  0  0  0
  5 11  1  0  0  0  0
  5 30  1  0  0  0  0
  5 38  1  1  0  0  0
  6 21  1  1  0  0  0
  6 42  1  0  0  0  0
  7 15  1  0  0  0  0
  7 44  1  0  0  0  0
  7 32  1  6  0  0  0
  8  9  1  6  0  0  0
  8 17  1  0  0  0  0
 11 12  1  6  0  0  0
 11 20  1  0  0  0  0
 13  6  1  0  0  0  0
 13 14  1  6  0  0  0
 15 16  1  1  0  0  0
 15 24  1  0  0  0  0
 17 26  1  0  0  0  0
 18 10  1  0  0  0  0
 18 19  1  1  0  0  0
 20 21  1  6  0  0  0
 20 29  1  0  0  0  0
 22 13  1  0  0  0  0
 22 23  1  6  0  0  0
 24 25  1  1  0  0  0
 24 33  1  0  0  0  0
 26 27  1  6  0  0  0
 26 35  1  0  0  0  0
 28  2  1  1  0  0  0
 28 18  1  0  0  0  0
 29 30  1  0  0  0  0
 29 39  1  1  0  0  0
 31 22  1  0  0  0  0
 31 32  1  1  0  0  0
 31 41  1  0  0  0  0
 33 34  1  6  0  0  0
 33 43  1  0  0  0  0
 35 36  1  0  0  0  0
 35 45  1  1  0  0  0
 37 28  1  0  0  0  0
 37 38  1  1  0  0  0
 39 40  1  0  0  0  0
 41 42  1  0  0  0  0
 41 49  1  6  0  0  0
 43 44  1  0  0  0  0
 43 51  1  1  0  0  0
 45 46  1  0  0  0  0
 47 37  1  0  0  0  0
 47 48  1  6  0  0  0
 49 50  1  0  0  0  0
 51 52  1  0  0  0  0
M  END
>  <CHROM.1>
-177.85830136,96.02395264,-96.96664555,-174.97656271,-61.41544259,-150.56988089
-94.81755569,49.36474095,-68.24769949,-155.11575199,128.84727033,64.15101197
9.29061135,-42.59606090,15.27319937,-3.03258111,-1.06045027,-1.52361603

>  <Name>
2fd0_lig

>  <RI>
0

>  <Rbt.Current_Directory>
/home/itssahil/PROJECTS/Mol_Feturizer/New_Systems/rnas/2fd0

>  <Rbt.Executable>
rbdock ($Id: //depot/dev/client3/rdock/2013.1/src/exe/rbdock.cxx#4 $)

>  <Rbt.Library>
libRbt.so (2013.1, Build901 2013/11/27)

>  <Rbt.Parameter_File>
/export/apps/rDock/src/rDock_2013.1_src/data/scripts/dock_solv.prm

>  <Rbt.Receptor>
prm/blind_docking_100.prm

>  <SCORE>
20.4598

>  <SCORE.INTER>
12.536

>  <SCORE.INTER.CONST>
1

>  <SCORE.INTER.POLAR>
-0.792596

>  <SCORE.INTER.ROT>
12

>  <SCORE.INTER.SOLV>
30.6544

>  <SCORE.INTER.VDW>
-10.8188

>  <SCORE.INTER.norm>
0.241077

>  <SCORE.INTRA>
4.96156

>  <SCORE.INTRA.DIHEDRAL>
0.894317

>  <SCORE.INTRA.DIHEDRAL.0>
23.9727

>  <SCORE.INTRA.POLAR>
0

>  <SCORE.INTRA.POLAR.0>
0

>  <SCORE.INTRA.REPUL>
0.0483758

>  <SCORE.INTRA.REPUL.0>
0

>  <SCORE.INTRA.SOLV>
0.0907995

>  <SCORE.INTRA.SOLV.lig_0>
-115.028

>  <SCORE.INTRA.VDW>
4.22712

>  <SCORE.INTRA.VDW.0>
-6.82393

>  <SCORE.INTRA.norm>
0.0954146

>  <SCORE.RESTR>
2.96229

>  <SCORE.RESTR.CAVITY>
2.96229

>  <SCORE.RESTR.norm>
0.0569672

>  <SCORE.SYSTEM>
0

>  <SCORE.SYSTEM.CONST>
0

>  <SCORE.SYSTEM.DIHEDRAL>
0

>  <SCORE.SYSTEM.SOLV>
0

>  <SCORE.SYSTEM.norm>
0

>  <SCORE.heavy>
52

>  <SCORE.norm>
0.393458

>  <RMSD>
14.984

$$$$
2fd0_lig
 OpenBabel11021811433D
libRbt.so/2013.1/901 2013/11/27
 52 56  0  0  0  0  0  0  0  0999 V2000
   13.7545  -35.9112   14.3358 C   0  0  2  0  0  0  0  0  0  0  0  0
   13.3026  -34.7069   14.9701 O   0  0  0  0  0  0  0  0  0  0  0  0
   10.3407  -33.8373   18.0301 C   0  0  2  0  0  0  0  0  0  0  0  0
    9.0492  -33.6448   18.7097 N   0  0  0  0  0  0  0  0  0  0  0  0
   10.8549  -37.7191   16.0904 C   0  0  1  0  0  0  0  0  0  0  0  0
    8.9528  -40.8054   13.2783 C   0  0  1  0  0  0  0  0  0  0  0  0
    7.5461  -45.3515   14.7737 C   0  0  1  0  0  0  0  0  0  0  0  0
   14.9322  -36.5126   15.1860 C   0  0  2  0  0  0  0  0  0  0  0  0
   14.5344  -36.7605   16.5647 N   0  0  0  0  0  0  0  0  0  0  0  0
   10.4431  -32.8852   16.7589 C   0  0  0  0  0  0  0  0  0  0  0  0
   10.8973  -38.1280   14.6294 C   0  0  2  0  0  0  0  0  0  0  0  0
   10.1073  -37.2432   13.7860 O   0  0  0  0  0  0  0  0  0  0  0  0
    7.6450  -41.5782   13.7802 C   0  0  2  0  0  0  0  0  0  0  0  0
    7.7728  -41.9407   15.2181 N   0  0  0  0  0  0  0  0  0  0  0  0
    8.5045  -45.8552   15.8763 C   0  0  1  0  0  0  0  0  0  0  0  0
    8.7124  -44.7947   16.8417 O   0  0  0  0  0  0  0  0  0  0  0  0
   16.1944  -35.5756   15.1132 C   0  0  0  0  0  0  0  0  0  0  0  0
   11.8545  -33.0886   16.0269 C   0  0  2  0  0  0  0  0  0  0  0  0
   11.9737  -32.2211   14.8458 N   0  0  0  0  0  0  0  0  0  0  0  0
   10.4559  -39.5813   14.6702 C   0  0  2  0  0  0  0  0  0  0  0  0
    9.1609  -39.7388   14.1574 O   0  0  0  0  0  0  0  0  0  0  0  0
    7.3987  -42.8149   12.7698 C   0  0  1  0  0  0  0  0  0  0  0  0
    7.2874  -42.2839   11.4369 O   0  0  0  0  0  0  0  0  0  0  0  0
    8.0940  -47.1376   16.6497 C   0  0  1  0  0  0  0  0  0  0  0  0
    7.3843  -46.7344   17.8278 O   0  0  0  0  0  0  0  0  0  0  0  0
   16.5683  -35.3619   13.6101 C   0  0  2  0  0  0  0  0  0  0  0  0
   17.7202  -34.5316   13.5014 O   0  0  0  0  0  0  0  0  0  0  0  0
   12.0034  -34.5792   15.6127 C   0  0  2  0  0  0  0  0  0  0  0  0
   10.3662  -40.0305   16.1483 C   0  0  2  0  0  0  0  0  0  0  0  0
   10.9160  -38.9192   16.8414 O   0  0  0  0  0  0  0  0  0  0  0  0
    8.6507  -43.8379   12.7536 C   0  0  2  0  0  0  0  0  0  0  0  0
    8.7122  -44.3545   14.0963 O   0  0  0  0  0  0  0  0  0  0  0  0
    7.2278  -48.1537   15.8701 C   0  0  2  0  0  0  0  0  0  0  0  0
    7.7422  -49.4571   16.2208 O   0  0  0  0  0  0  0  0  0  0  0  0
   15.3697  -34.7054   12.8670 C   0  0  2  0  0  0  0  0  0  0  0  0
   14.2015  -35.6052   12.9897 O   0  0  0  0  0  0  0  0  0  0  0  0
   11.8530  -35.5583   16.8167 C   0  0  2  0  0  0  0  0  0  0  0  0
   11.9657  -36.9057   16.2992 O   0  0  0  0  0  0  0  0  0  0  0  0
   11.1857  -41.2672   16.4994 C   0  0  0  0  0  0  0  0  0  0  0  0
   10.7194  -41.7328   17.7749 O   0  0  0  0  0  0  0  0  0  0  0  0
    9.8774  -42.9794   12.5097 C   0  0  1  0  0  0  0  0  0  0  0  0
   10.1681  -41.7478   13.2030 O   0  0  0  0  0  0  0  0  0  0  0  0
    7.2616  -47.8669   14.3714 C   0  0  2  0  0  0  0  0  0  0  0  0
    6.9617  -46.4910   14.0076 O   0  0  0  0  0  0  0  0  0  0  0  0
   15.6512  -34.5063   11.4116 C   0  0  0  0  0  0  0  0  0  0  0  0
   16.5660  -33.4512   11.2870 O   0  0  0  0  0  0  0  0  0  0  0  0
   10.4690  -35.3315   17.5280 C   0  0  1  0  0  0  0  0  0  0  0  0
   10.3852  -36.2330   18.6854 O   0  0  0  0  0  0  0  0  0  0  0  0
   11.2160  -43.7994   12.5057 C   0  0  0  0  0  0  0  0  0  0  0  0
   11.4363  -44.5843   13.7445 N   0  0  0  0  0  0  0  0  0  0  0  0
    6.4827  -48.7145   13.3681 C   0  0  0  0  0  0  0  0  0  0  0  0
    5.1341  -48.9783   13.8644 O   0  0  0  0  0  0  0  0  0  0  0  0
  1  2  1  1  0  0  0
  1  8  1  0  0  0  0
  1 36  1  0  0  0  0
  3  4  1  6  0  0  0
  3 10  1  0  0  0  0
  3 47  1  0  0  0  0
  5 11  1  0  0  0  0
  5 30  1  0  0  0  0
  5 38  1  1  0  0  0
  6 21  1  1  0  0  0
  6 42  1  0  0  0  0
  7 15  1  0  0  0  0
  7 44  1  0  0  0  0
  7 32  1  6  0  0  0
  8  9  1  1  0  0  0
  8 17  1  0  0  0  0
 11 12  1  6  0  0  0
 11 20  1  0  0  0  0
 13  6  1  0  0  0  0
 13 14  1  1  0  0  0
 15 16  1  1  0  0  0
 15 24  1  0  0  0  0
 17 26  1  0  0  0  0
 18 10  1  0  0  0  0
 18 19  1  6  0  0  0
 20 21  1  1  0  0  0
 20 29  1  0  0  0  0
 22 13  1  0  0  0  0
 22 23  1  6  0  0  0
 24 25  1  1  0  0  0
 24 33  1  0  0  0  0
 26 27  1  1  0  0  0
 26 35  1  0  0  0  0
 28  2  1  1  0  0  0
 28 18  1  0  0  0  0
 29 30  1  0  0  0  0
 29 39  1  6  0  0  0
 31 22  1  0  0  0  0
 31 32  1  1  0  0  0
 31 41  1  0  0  0  0
 33 34  1  6  0  0  0
 33 43  1  0  0  0  0
 35 36  1  0  0  0  0
 35 45  1  6  0  0  0
 37 28  1  0  0  0  0
 37 38  1  6  0  0  0
 39 40  1  0  0  0  0
 41 42  1  0  0  0  0
 41 49  1  1  0  0  0
 43 44  1  0  0  0  0
 43 51  1  6  0  0  0
 45 46  1  0  0  0  0
 47 37  1  0  0  0  0
 47 48  1  1  0  0  0
 49 50  1  0  0  0  0
 51 52  1  0  0  0  0
M  END
>  <CHROM.1>
-111.38338639,123.47991534,131.25117272,160.60293109,135.37160604,-173.92072633
-165.25331299,67.51014967,-72.90253306,-101.95912494,-55.91178534,43.99111029
10.64650339,-39.97620367,14.93298970,-0.89224632,-0.76018665,-2.62331419

>  <Name>
2fd0_lig

>  <RI>
0

>  <Rbt.Current_Directory>
/home/itssahil/PROJECTS/Mol_Feturizer/New_Systems/rnas/2fd0

>  <Rbt.Executable>
rbdock ($Id: //depot/dev/client3/rdock/2013.1/src/exe/rbdock.cxx#4 $)

>  <Rbt.Library>
libRbt.so (2013.1, Build901 2013/11/27)

>  <Rbt.Parameter_File>
/export/apps/rDock/src/rDock_2013.1_src/data/scripts/dock_solv.prm

>  <Rbt.Receptor>
prm/blind_docking_100.prm

>  <SCORE>
-4.78473

>  <SCORE.INTER>
-15.7127

>  <SCORE.INTER.CONST>
1

>  <SCORE.INTER.POLAR>
-0.641725

>  <SCORE.INTER.ROT>
12

>  <SCORE.INTER.SOLV>
28.4816

>  <SCORE.INTER.VDW>
-29.4299

>  <SCORE.INTER.norm>
-0.302167

>  <SCORE.INTRA>
10.0382

>  <SCORE.INTRA.DIHEDRAL>
14.0706

>  <SCORE.INTRA.DIHEDRAL.0>
23.9727

>  <SCORE.INTRA.POLAR>
0

>  <SCORE.INTRA.POLAR.0>
0

>  <SCORE.INTRA.REPUL>
0

>  <SCORE.INTRA.REPUL.0>
0

>  <SCORE.INTRA.SOLV>
3.03798

>  <SCORE.INTRA.SOLV.lig_0>
-115.028

>  <SCORE.INTRA.VDW>
1.48394

>  <SCORE.INTRA.VDW.0>
-6.82393

>  <SCORE.INTRA.norm>
0.193043

>  <SCORE.RESTR>
0.889681

>  <SCORE.RESTR.CAVITY>
0.889681

>  <SCORE.RESTR.norm>
0.0171093

>  <SCORE.SYSTEM>
0

>  <SCORE.SYSTEM.CONST>
0

>  <SCORE.SYSTEM.DIHEDRAL>
0

>  <SCORE.SYSTEM.SOLV>
0

>  <SCORE.SYSTEM.norm>
0

>  <SCORE.heavy>
52

>  <SCORE.norm>
-0.092014

>  <RMSD>
15.010

$$$$
2fd0_lig
 OpenBabel11021811433D
libRbt.so/2013.1/901 2013/11/27
 52 56  0  0  0  0  0  0  0  0999 V2000
    5.0598  -45.8312   12.6603 C   0  0  2  0  0  0  0  0  0  0  0  0
    6.3703  -46.3342   12.9543 O   0  0  0  0  0  0  0  0  0  0  0  0
    6.6356  -47.4627   17.1434 C   0  0  2  0  0  0  0  0  0  0  0  0
    6.8819  -48.2427   18.3673 N   0  0  0  0  0  0  0  0  0  0  0  0
    9.1512  -45.2577   13.3553 C   0  0  1  0  0  0  0  0  0  0  0  0
    9.4962  -41.0843   13.5666 C   0  0  1  0  0  0  0  0  0  0  0  0
   12.5071  -37.5127   15.4611 C   0  0  1  0  0  0  0  0  0  0  0  0
    5.0797  -45.1934   11.2235 C   0  0  2  0  0  0  0  0  0  0  0  0
    5.5175  -46.1462   10.2130 N   0  0  0  0  0  0  0  0  0  0  0  0
    5.6067  -48.2265   16.1995 C   0  0  0  0  0  0  0  0  0  0  0  0
    9.3547  -44.0047   14.1873 C   0  0  2  0  0  0  0  0  0  0  0  0
    8.1143  -43.2715   14.3926 O   0  0  0  0  0  0  0  0  0  0  0  0
   10.2628  -39.7688   13.0753 C   0  0  2  0  0  0  0  0  0  0  0  0
   11.7339  -39.9948   13.0666 N   0  0  0  0  0  0  0  0  0  0  0  0
   11.5453  -36.5898   16.2427 C   0  0  1  0  0  0  0  0  0  0  0  0
   11.6012  -36.9326   17.6496 O   0  0  0  0  0  0  0  0  0  0  0  0
    5.9707  -43.8962   11.2125 C   0  0  0  0  0  0  0  0  0  0  0  0
    5.3315  -47.3701   14.8728 C   0  0  2  0  0  0  0  0  0  0  0  0
    4.3848  -48.0560   13.9810 N   0  0  0  0  0  0  0  0  0  0  0  0
   10.4480  -43.2686   13.4313 C   0  0  2  0  0  0  0  0  0  0  0  0
    9.9436  -42.1411   12.7686 O   0  0  0  0  0  0  0  0  0  0  0  0
    9.7525  -38.5422   13.9950 C   0  0  1  0  0  0  0  0  0  0  0  0
    8.3206  -38.4626   13.8745 O   0  0  0  0  0  0  0  0  0  0  0  0
   11.7593  -35.0576   16.1109 C   0  0  1  0  0  0  0  0  0  0  0  0
   12.6064  -34.6359   17.1874 O   0  0  0  0  0  0  0  0  0  0  0  0
    5.4390  -42.9192   12.3113 C   0  0  2  0  0  0  0  0  0  0  0  0
    6.2096  -41.7215   12.3214 O   0  0  0  0  0  0  0  0  0  0  0  0
    6.6780  -47.1250   14.1362 C   0  0  2  0  0  0  0  0  0  0  0  0
   10.9849  -44.1927   12.3123 C   0  0  2  0  0  0  0  0  0  0  0  0
   10.3322  -45.4233   12.5900 O   0  0  0  0  0  0  0  0  0  0  0  0
   10.0684  -38.7914   15.5610 C   0  0  2  0  0  0  0  0  0  0  0  0
   11.5055  -38.8465   15.6350 O   0  0  0  0  0  0  0  0  0  0  0  0
   12.3690  -34.5685   14.7769 C   0  0  2  0  0  0  0  0  0  0  0  0
   11.6449  -33.3670   14.4325 O   0  0  0  0  0  0  0  0  0  0  0  0
    5.5181  -43.6120   13.7018 C   0  0  2  0  0  0  0  0  0  0  0  0
    4.6931  -44.8394   13.6538 O   0  0  0  0  0  0  0  0  0  0  0  0
    7.7420  -46.4292   15.0389 C   0  0  2  0  0  0  0  0  0  0  0  0
    8.9553  -46.2979   14.2601 O   0  0  0  0  0  0  0  0  0  0  0  0
   12.4903  -44.4323   12.3379 C   0  0  0  0  0  0  0  0  0  0  0  0
   13.1225  -43.1454   12.2640 O   0  0  0  0  0  0  0  0  0  0  0  0
    9.5153  -40.1685   15.8758 C   0  0  1  0  0  0  0  0  0  0  0  0
    9.7295  -41.3436   15.0663 O   0  0  0  0  0  0  0  0  0  0  0  0
   12.2921  -35.6553   13.7080 C   0  0  2  0  0  0  0  0  0  0  0  0
   12.8186  -36.9485   14.1151 O   0  0  0  0  0  0  0  0  0  0  0  0
    4.9888  -42.7398   14.7956 C   0  0  0  0  0  0  0  0  0  0  0  0
    3.6010  -42.9261   14.8660 O   0  0  0  0  0  0  0  0  0  0  0  0
    7.9853  -47.2782   16.3399 C   0  0  1  0  0  0  0  0  0  0  0  0
    8.9522  -46.5673   17.1879 O   0  0  0  0  0  0  0  0  0  0  0  0
    9.7702  -40.6136   17.3595 C   0  0  0  0  0  0  0  0  0  0  0  0
   10.1756  -42.0339   17.4931 N   0  0  0  0  0  0  0  0  0  0  0  0
   12.8331  -35.4407   12.2962 C   0  0  0  0  0  0  0  0  0  0  0  0
   14.2488  -35.0828   12.3434 O   0  0  0  0  0  0  0  0  0  0  0  0
  1  2  1  1  0  0  0
  1  8  1  0  0  0  0
  1 36  1  0  0  0  0
  3  4  1  1  0  0  0
  3 10  1  0  0  0  0
  3 47  1  0  0  0  0
  5 11  1  0  0  0  0
  5 30  1  0  0  0  0
  5 38  1  1  0  0  0
  6 21  1  6  0  0  0
  6 42  1  0  0  0  0
  7 15  1  0  0  0  0
  7 44  1  0  0  0  0
  7 32  1  6  0  0  0
  8  9  1  6  0  0  0
  8 17  1  0  0  0  0
 11 12  1  6  0  0  0
 11 20  1  0  0  0  0
 13  6  1  0  0  0  0
 13 14  1  1  0  0  0
 15 16  1  1  0  0  0
 15 24  1  0  0  0  0
 17 26  1  0  0  0  0
 18 10  1  0  0  0  0
 18 19  1  6  0  0  0
 20 21  1  6  0  0  0
 20 29  1  0  0  0  0
 22 13  1  0  0  0  0
 22 23  1  1  0  0  0
 24 25  1  1  0  0  0
 24 33  1  0  0  0  0
 26 27  1  1  0  0  0
 26 35  1  0  0  0  0
 28  2  1  6  0  0  0
 28 18  1  0  0  0  0
 29 30  1  0  0  0  0
 29 39  1  1  0  0  0
 31 22  1  0  0  0  0
 31 32  1  6  0  0  0
 31 41  1  0  0  0  0
 33 34  1  6  0  0  0
 33 43  1  0  0  0  0
 35 36  1  0  0  0  0
 35 45  1  1  0  0  0
 37 28  1  0  0  0  0
 37 38  1  6  0  0  0
 39 40  1  0  0  0  0
 41 42  1  0  0  0  0
 41 49  1  1  0  0  0
 43 44  1  0  0  0  0
 43 51  1  6  0  0  0
 45 46  1  0  0  0  0
 47 37  1  0  0  0  0
 47 48  1  1  0  0  0
 49 50  1  0  0  0  0
 51 52  1  0  0  0  0
M  END
>  <CHROM.1>
-172.72072731,71.51243669,126.03605527,38.60389900,67.75433197,4.32585083
-57.15176725,72.07703590,85.92780533,82.30928842,-138.47436995,57.26180983
9.03344295,-41.98412132,14.30717303,2.57578668,0.94015553,2.29165317

>  <Name>
2fd0_lig

>  <RI>
2.85265e+07

>  <Rbt.Current_Directory>
/home/itssahil/PROJECTS/Mol_Feturizer/New_Systems/rnas/2fd0

>  <Rbt.Executable>
rbdock ($Id: //depot/dev/client3/rdock/2013.1/src/exe/rbdock.cxx#4 $)

>  <Rbt.Library>
libRbt.so (2013.1, Build901 2013/11/27)

>  <Rbt.Parameter_File>
/export/apps/rDock/src/rDock_2013.1_src/data/scripts/dock_solv.prm

>  <Rbt.Receptor>
prm/blind_docking_60.prm

>  <SCORE>
1.77429

>  <SCORE.INTER>
-6.90658

>  <SCORE.INTER.CONST>
1

>  <SCORE.INTER.POLAR>
-1.43926

>  <SCORE.INTER.ROT>
12

>  <SCORE.INTER.SOLV>
19.1114

>  <SCORE.INTER.VDW>
-17.7773

>  <SCORE.INTER.norm>
-0.132819

>  <SCORE.INTRA>
7.81319

>  <SCORE.INTRA.DIHEDRAL>
2.53559

>  <SCORE.INTRA.DIHEDRAL.0>
23.9727

>  <SCORE.INTRA.POLAR>
0

>  <SCORE.INTRA.POLAR.0>
0

>  <SCORE.INTRA.REPUL>
0.0145293

>  <SCORE.INTRA.REPUL.0>
0

>  <SCORE.INTRA.SOLV>
1.86802

>  <SCORE.INTRA.SOLV.lig_0>
-115.028

>  <SCORE.INTRA.VDW>
5.53874

>  <SCORE.INTRA.VDW.0>
-6.82393

>  <SCORE.INTRA.norm>
0.150254

>  <SCORE.RESTR>
0.867676

>  <SCORE.RESTR.CAVITY>
0.867676

>  <SCORE.RESTR.norm>
0.0166861

>  <SCORE.SYSTEM>
0

>  <SCORE.SYSTEM.CONST>
0

>  <SCORE.SYSTEM.DIHEDRAL>
0

>  <SCORE.SYSTEM.SOLV>
0

>  <SCORE.SYSTEM.norm>
0

>  <SCORE.heavy>
52

>  <SCORE.norm>
0.034121

>  <RMSD>
15.013

$$$$
2fd0_lig
 OpenBabel11021811433D
libRbt.so/2013.1/901 2013/11/27
 52 56  0  0  0  0  0  0  0  0999 V2000
    5.1066  -45.6178   12.6724 C   0  0  2  0  0  0  0  0  0  0  0  0
    5.9282  -45.6569   13.8473 O   0  0  0  0  0  0  0  0  0  0  0  0
    6.2872  -48.0482   17.4591 C   0  0  2  0  0  0  0  0  0  0  0  0
    6.3662  -49.2041   18.3673 N   0  0  0  0  0  0  0  0  0  0  0  0
    8.7418  -45.8490   13.6028 C   0  0  1  0  0  0  0  0  0  0  0  0
    9.1423  -41.6177   13.9579 C   0  0  1  0  0  0  0  0  0  0  0  0
   12.0624  -37.4134   15.1939 C   0  0  1  0  0  0  0  0  0  0  0  0
    5.7573  -46.5381   11.5764 C   0  0  2  0  0  0  0  0  0  0  0  0
    5.9348  -47.9036   12.0502 N   0  0  0  0  0  0  0  0  0  0  0  0
    4.9220  -48.0806   16.6416 C   0  0  0  0  0  0  0  0  0  0  0  0
    8.8344  -44.6155   14.4822 C   0  0  2  0  0  0  0  0  0  0  0  0
    7.5678  -43.9039   14.5693 O   0  0  0  0  0  0  0  0  0  0  0  0
    9.1684  -40.3310   13.0075 C   0  0  2  0  0  0  0  0  0  0  0  0
   10.4944  -40.1990   12.3444 N   0  0  0  0  0  0  0  0  0  0  0  0
   11.0837  -36.2287   15.0314 C   0  0  1  0  0  0  0  0  0  0  0  0
   10.0340  -36.3440   16.0238 O   0  0  0  0  0  0  0  0  0  0  0  0
    7.1180  -45.9218   11.0811 C   0  0  0  0  0  0  0  0  0  0  0  0
    4.8332  -46.8153   15.6617 C   0  0  2  0  0  0  0  0  0  0  0  0
    3.5807  -46.8227   14.8916 N   0  0  0  0  0  0  0  0  0  0  0  0
    9.9915  -43.8461   13.8677 C   0  0  2  0  0  0  0  0  0  0  0  0
    9.5444  -42.7084   13.1817 O   0  0  0  0  0  0  0  0  0  0  0  0
    8.7066  -39.0645   13.8984 C   0  0  1  0  0  0  0  0  0  0  0  0
    7.4094  -39.3577   14.4481 O   0  0  0  0  0  0  0  0  0  0  0  0
   11.6747  -34.7955   15.1190 C   0  0  1  0  0  0  0  0  0  0  0  0
   11.5601  -34.3530   16.4774 O   0  0  0  0  0  0  0  0  0  0  0  0
    6.8503  -44.4649   10.5804 C   0  0  2  0  0  0  0  0  0  0  0  0
    8.0572  -43.8768   10.1053 O   0  0  0  0  0  0  0  0  0  0  0  0
    6.0530  -46.8303   14.6986 C   0  0  2  0  0  0  0  0  0  0  0  0
   10.6608  -44.7339   12.7915 C   0  0  2  0  0  0  0  0  0  0  0  0
   10.0012  -45.9796   12.9666 O   0  0  0  0  0  0  0  0  0  0  0  0
    9.6937  -38.8205   15.1556 C   0  0  2  0  0  0  0  0  0  0  0  0
   10.9686  -38.5151   14.5596 O   0  0  0  0  0  0  0  0  0  0  0  0
   13.1447  -34.6374   14.6665 C   0  0  2  0  0  0  0  0  0  0  0  0
   13.1932  -33.4035   13.9171 O   0  0  0  0  0  0  0  0  0  0  0  0
    6.2701  -43.6153   11.7472 C   0  0  2  0  0  0  0  0  0  0  0  0
    5.0120  -44.2495   12.1991 O   0  0  0  0  0  0  0  0  0  0  0  0
    7.4174  -46.8575   15.4527 C   0  0  2  0  0  0  0  0  0  0  0  0
    8.4653  -46.9148   14.4554 O   0  0  0  0  0  0  0  0  0  0  0  0
   12.1582  -44.9547   12.9748 C   0  0  0  0  0  0  0  0  0  0  0  0
   12.7753  -43.6586   12.9946 O   0  0  0  0  0  0  0  0  0  0  0  0
    9.7982  -40.1602   15.8597 C   0  0  1  0  0  0  0  0  0  0  0  0
   10.0350  -41.4196   15.1965 O   0  0  0  0  0  0  0  0  0  0  0  0
   13.6068  -35.8543   13.8695 C   0  0  2  0  0  0  0  0  0  0  0  0
   13.3619  -37.1343   14.5153 O   0  0  0  0  0  0  0  0  0  0  0  0
    5.9576  -42.2156   11.3223 C   0  0  0  0  0  0  0  0  0  0  0  0
    5.2382  -42.2775   10.1205 O   0  0  0  0  0  0  0  0  0  0  0  0
    7.4766  -48.0974   16.4180 C   0  0  1  0  0  0  0  0  0  0  0  0
    8.7516  -48.0610   17.1478 O   0  0  0  0  0  0  0  0  0  0  0  0
   10.7635  -40.1353   17.0975 C   0  0  0  0  0  0  0  0  0  0  0  0
   10.7787  -41.4039   17.8654 N   0  0  0  0  0  0  0  0  0  0  0  0
   15.0234  -35.9642   13.3101 C   0  0  0  0  0  0  0  0  0  0  0  0
   15.9853  -36.1473   14.3945 O   0  0  0  0  0  0  0  0  0  0  0  0
  1  2  1  1  0  0  0
  1  8  1  0  0  0  0
  1 36  1  0  0  0  0
  3  4  1  1  0  0  0
  3 10  1  0  0  0  0
  3 47  1  0  0  0  0
  5 11  1  0  0  0  0
  5 30  1  0  0  0  0
  5 38  1  1  0  0  0
  6 21  1  6  0  0  0
  6 42  1  0  0  0  0
  7 15  1  0  0  0  0
  7 44  1  0  0  0  0
  7 32  1  6  0  0  0
  8  9  1  1  0  0  0
  8 17  1  0  0  0  0
 11 12  1  6  0  0  0
 11 20  1  0  0  0  0
 13  6  1  0  0  0  0
 13 14  1  1  0  0  0
 15 16  1  1  0  0  0
 15 24  1  0  0  0  0
 17 26  1  0  0  0  0
 18 10  1  0  0  0  0
 18 19  1  6  0  0  0
 20 21  1  6  0  0  0
 20 29  1  0  0  0  0
 22 13  1  0  0  0  0
 22 23  1  1  0  0  0
 24 25  1  1  0  0  0
 24 33  1  0  0  0  0
 26 27  1  1  0  0  0
 26 35  1  0  0  0  0
 28  2  1  1  0  0  0
 28 18  1  0  0  0  0
 29 30  1  0  0  0  0
 29 39  1  1  0  0  0
 31 22  1  0  0  0  0
 31 32  1  6  0  0  0
 31 41  1  0  0  0  0
 33 34  1  6  0  0  0
 33 43  1  0  0  0  0
 35 36  1  0  0  0  0
 35 45  1  6  0  0  0
 37 28  1  0  0  0  0
 37 38  1  6  0  0  0
 39 40  1  0  0  0  0
 41 42  1  0  0  0  0
 41 49  1  1  0  0  0
 43 44  1  0  0  0  0
 43 51  1  1  0  0  0
 45 46  1  0  0  0  0
 47 37  1  0  0  0  0
 47 48  1  1  0  0  0
 49 50  1  0  0  0  0
 51 52  1  0  0  0  0
M  END
>  <CHROM.1>
-69.69355540,48.57311512,160.92803592,-62.41449933,75.01678373,-82.78549968
-57.43612552,144.26662246,47.79070135,68.38726118,174.76713800,69.95819515
9.06363045,-42.28877663,14.13923828,2.47120496,0.88265335,2.41435028

>  <Name>
2fd0_lig

>  <RI>
2.60878e+07

>  <Rbt.Current_Directory>
/home/itssahil/PROJECTS/Mol_Feturizer/New_Systems/rnas/2fd0

>  <Rbt.Executable>
rbdock ($Id: //depot/dev/client3/rdock/2013.1/src/exe/rbdock.cxx#4 $)

>  <Rbt.Library>
libRbt.so (2013.1, Build901 2013/11/27)

>  <Rbt.Parameter_File>
/export/apps/rDock/src/rDock_2013.1_src/data/scripts/dock_solv.prm

>  <Rbt.Receptor>
prm/blind_docking_80.prm

>  <SCORE>
-20.9682

>  <SCORE.INTER>
-19.6639

>  <SCORE.INTER.CONST>
1

>  <SCORE.INTER.POLAR>
-1.3342

>  <SCORE.INTER.ROT>
12

>  <SCORE.INTER.SOLV>
21.7449

>  <SCORE.INTER.VDW>
-27.5102

>  <SCORE.INTER.norm>
-0.378152

>  <SCORE.INTRA>
-2.34478

>  <SCORE.INTRA.DIHEDRAL>
-10.4743

>  <SCORE.INTRA.DIHEDRAL.0>
23.9727

>  <SCORE.INTRA.POLAR>
0

>  <SCORE.INTRA.POLAR.0>
0

>  <SCORE.INTRA.REPUL>
0

>  <SCORE.INTRA.REPUL.0>
0

>  <SCORE.INTRA.SOLV>
1.14537

>  <SCORE.INTRA.SOLV.lig_0>
-115.028

>  <SCORE.INTRA.VDW>
2.3197

>  <SCORE.INTRA.VDW.0>
-6.82393

>  <SCORE.INTRA.norm>
-0.0450918

>  <SCORE.RESTR>
1.04044

>  <SCORE.RESTR.CAVITY>
1.04044

>  <SCORE.RESTR.norm>
0.0200084

>  <SCORE.SYSTEM>
0

>  <SCORE.SYSTEM.CONST>
0

>  <SCORE.SYSTEM.DIHEDRAL>
0

>  <SCORE.SYSTEM.SOLV>
0

>  <SCORE.SYSTEM.norm>
0

>  <SCORE.heavy>
52

>  <SCORE.norm>
-0.403235

>  <RMSD>
15.015

$$$$
2fd0_lig
 OpenBabel11021811433D
libRbt.so/2013.1/901 2013/11/27
 52 56  0  0  0  0  0  0  0  0999 V2000
   14.1935  -34.4359   15.0922 C   0  0  2  0  0  0  0  0  0  0  0  0
   13.9930  -35.8318   15.3534 O   0  0  0  0  0  0  0  0  0  0  0  0
   10.5421  -36.9266   12.9481 C   0  0  2  0  0  0  0  0  0  0  0  0
    9.5948  -37.7118   12.1400 N   0  0  0  0  0  0  0  0  0  0  0  0
   10.8376  -38.0791   17.1888 C   0  0  1  0  0  0  0  0  0  0  0  0
    9.1694  -41.5647   16.4914 C   0  0  1  0  0  0  0  0  0  0  0  0
    8.8654  -46.7244   15.2067 C   0  0  1  0  0  0  0  0  0  0  0  0
   15.0106  -33.8166   16.2840 C   0  0  2  0  0  0  0  0  0  0  0  0
   16.2792  -34.5025   16.4863 N   0  0  0  0  0  0  0  0  0  0  0  0
   11.9884  -36.9531   12.2843 C   0  0  0  0  0  0  0  0  0  0  0  0
   10.9984  -39.4762   16.6178 C   0  0  2  0  0  0  0  0  0  0  0  0
   10.1399  -39.7028   15.4646 O   0  0  0  0  0  0  0  0  0  0  0  0
    7.9014  -42.5112   16.7278 C   0  0  2  0  0  0  0  0  0  0  0  0
    8.1763  -43.4896   17.8153 N   0  0  0  0  0  0  0  0  0  0  0  0
    7.3920  -46.6508   14.7470 C   0  0  1  0  0  0  0  0  0  0  0  0
    7.3253  -45.9360   13.4882 O   0  0  0  0  0  0  0  0  0  0  0  0
   14.1449  -33.8132   17.5982 C   0  0  0  0  0  0  0  0  0  0  0  0
   13.0155  -36.0885   13.1599 C   0  0  2  0  0  0  0  0  0  0  0  0
   14.3618  -36.0989   12.5689 N   0  0  0  0  0  0  0  0  0  0  0  0
   10.7467  -40.3668   17.8228 C   0  0  2  0  0  0  0  0  0  0  0  0
    9.5073  -41.0153   17.7315 O   0  0  0  0  0  0  0  0  0  0  0  0
    7.5057  -43.1523   15.2984 C   0  0  1  0  0  0  0  0  0  0  0  0
    7.2641  -42.0721   14.3788 O   0  0  0  0  0  0  0  0  0  0  0  0
    6.6265  -47.9916   14.5813 C   0  0  1  0  0  0  0  0  0  0  0  0
    6.7502  -48.4044   13.2143 O   0  0  0  0  0  0  0  0  0  0  0  0
   12.8080  -33.0553   17.3103 C   0  0  2  0  0  0  0  0  0  0  0  0
   12.0016  -33.0140   18.4835 O   0  0  0  0  0  0  0  0  0  0  0  0
   13.0612  -36.6610   14.6041 C   0  0  2  0  0  0  0  0  0  0  0  0
   10.6489  -39.4769   19.0849 C   0  0  2  0  0  0  0  0  0  0  0  0
   11.0189  -38.1983   18.5891 O   0  0  0  0  0  0  0  0  0  0  0  0
    8.7151  -44.0252   14.6742 C   0  0  2  0  0  0  0  0  0  0  0  0
    8.9087  -45.0983   15.6147 O   0  0  0  0  0  0  0  0  0  0  0  0
    7.0828  -49.1524   15.4950 C   0  0  2  0  0  0  0  0  0  0  0  0
    5.8713  -49.8062   15.9322 O   0  0  0  0  0  0  0  0  0  0  0  0
   12.0408  -33.7761   16.1650 C   0  0  2  0  0  0  0  0  0  0  0  0
   12.9044  -33.7825   14.9635 O   0  0  0  0  0  0  0  0  0  0  0  0
   11.6565  -36.7100   15.2788 C   0  0  2  0  0  0  0  0  0  0  0  0
   11.8237  -37.2986   16.5910 O   0  0  0  0  0  0  0  0  0  0  0  0
   11.6042  -39.8480   20.2136 C   0  0  0  0  0  0  0  0  0  0  0  0
   11.2994  -41.1978   20.5962 O   0  0  0  0  0  0  0  0  0  0  0  0
    9.9338  -43.1226   14.7136 C   0  0  1  0  0  0  0  0  0  0  0  0
   10.3384  -42.3396   15.8562 O   0  0  0  0  0  0  0  0  0  0  0  0
    7.9479  -48.6390   16.6429 C   0  0  2  0  0  0  0  0  0  0  0  0
    9.0546  -47.7867   16.2376 O   0  0  0  0  0  0  0  0  0  0  0  0
   10.7653  -33.0774   15.8159 C   0  0  0  0  0  0  0  0  0  0  0  0
   11.0667  -31.7362   15.5400 O   0  0  0  0  0  0  0  0  0  0  0  0
   10.6623  -37.5501   14.3965 C   0  0  1  0  0  0  0  0  0  0  0  0
    9.3393  -37.5307   15.0358 O   0  0  0  0  0  0  0  0  0  0  0  0
   11.2371  -43.8187   14.1834 C   0  0  0  0  0  0  0  0  0  0  0  0
   12.3836  -42.8917   14.0237 N   0  0  0  0  0  0  0  0  0  0  0  0
    8.5418  -49.5779   17.6905 C   0  0  0  0  0  0  0  0  0  0  0  0
    7.4852  -50.1322   18.5336 O   0  0  0  0  0  0  0  0  0  0  0  0
  1  2  1  1  0  0  0
  1  8  1  0  0  0  0
  1 36  1  0  0  0  0
  3  4  1  6  0  0  0
  3 10  1  0  0  0  0
  3 47  1  0  0  0  0
  5 11  1  0  0  0  0
  5 30  1  0  0  0  0
  5 38  1  6  0  0  0
  6 21  1  1  0  0  0
  6 42  1  0  0  0  0
  7 15  1  0  0  0  0
  7 44  1  0  0  0  0
  7 32  1  1  0  0  0
  8  9  1  1  0  0  0
  8 17  1  0  0  0  0
 11 12  1  6  0  0  0
 11 20  1  0  0  0  0
 13  6  1  0  0  0  0
 13 14  1  1  0  0  0
 15 16  1  6  0  0  0
 15 24  1  0  0  0  0
 17 26  1  0  0  0  0
 18 10  1  0  0  0  0
 18 19  1  6  0  0  0
 20 21  1  6  0  0  0
 20 29  1  0  0  0  0
 22 13  1  0  0  0  0
 22 23  1  6  0  0  0
 24 25  1  6  0  0  0
 24 33  1  0  0  0  0
 26 27  1  1  0  0  0
 26 35  1  0  0  0  0
 28  2  1  1  0  0  0
 28 18  1  0  0  0  0
 29 30  1  0  0  0  0
 29 39  1  1  0  0  0
 31 22  1  0  0  0  0
 31 32  1  1  0  0  0
 31 41  1  0  0  0  0
 33 34  1  1  0  0  0
 33 43  1  0  0  0  0
 35 36  1  0  0  0  0
 35 45  1  6  0  0  0
 37 28  1  0  0  0  0
 37 38  1  1  0  0  0
 39 40  1  0  0  0  0
 41 42  1  0  0  0  0
 41 49  1  1  0  0  0
 43 44  1  0  0  0  0
 43 51  1  6  0  0  0
 45 46  1  0  0  0  0
 47 37  1  0  0  0  0
 47 48  1  1  0  0  0
 49 50  1  0  0  0  0
 51 52  1  0  0  0  0
M  END
>  <CHROM.1>
167.45054721,82.62712846,167.48862986,-62.15136367,43.76641726,31.50578169
-59.89409198,124.79450440,53.77276338,-147.62859143,171.24231947,-68.78718388
10.40545859,-40.46999375,15.84886783,0.30150129,-1.17826885,-1.24528563

>  <Name>
2fd0_lig

>  <RI>
0

>  <Rbt.Current_Directory>
/home/itssahil/PROJECTS/Mol_Feturizer/New_Systems/rnas/2fd0

>  <Rbt.Executable>
rbdock ($Id: //depot/dev/client3/rdock/2013.1/src/exe/rbdock.cxx#4 $)

>  <Rbt.Library>
libRbt.so (2013.1, Build901 2013/11/27)

>  <Rbt.Parameter_File>
/export/apps/rDock/src/rDock_2013.1_src/data/scripts/dock_solv.prm

>  <Rbt.Receptor>
prm/blind_docking_100.prm

>  <SCORE>
4.92564

>  <SCORE.INTER>
-10.8437

>  <SCORE.INTER.CONST>
1

>  <SCORE.INTER.POLAR>
0

>  <SCORE.INTER.ROT>
12

>  <SCORE.INTER.SOLV>
36.6553

>  <SCORE.INTER.VDW>
-31.0476

>  <SCORE.INTER.norm>
-0.208534

>  <SCORE.INTRA>
13.72

>  <SCORE.INTRA.DIHEDRAL>
-2.69817

>  <SCORE.INTRA.DIHEDRAL.0>
23.9727

>  <SCORE.INTRA.POLAR>
0

>  <SCORE.INTRA.POLAR.0>
0

>  <SCORE.INTRA.REPUL>
0

>  <SCORE.INTRA.REPUL.0>
0

>  <SCORE.INTRA.SOLV>
-1.70496

>  <SCORE.INTRA.SOLV.lig_0>
-115.028

>  <SCORE.INTRA.VDW>
15.9216

>  <SCORE.INTRA.VDW.0>
-6.82393

>  <SCORE.INTRA.norm>
0.263847

>  <SCORE.RESTR>
2.04934

>  <SCORE.RESTR.CAVITY>
2.04934

>  <SCORE.RESTR.norm>
0.0394104

>  <SCORE.SYSTEM>
0

>  <SCORE.SYSTEM.CONST>
0

>  <SCORE.SYSTEM.DIHEDRAL>
0

>  <SCORE.SYSTEM.SOLV>
0

>  <SCORE.SYSTEM.norm>
0

>  <SCORE.heavy>
52

>  <SCORE.norm>
0.0947238

>  <RMSD>
15.030

$$$$
2fd0_lig
 OpenBabel11021811433D
libRbt.so/2013.1/901 2013/11/27
 52 56  0  0  0  0  0  0  0  0999 V2000
   11.7116  -35.6748   14.8991 C   0  0  2  0  0  0  0  0  0  0  0  0
   12.2747  -36.1736   16.1202 O   0  0  0  0  0  0  0  0  0  0  0  0
   11.3338  -37.3261   20.2042 C   0  0  2  0  0  0  0  0  0  0  0  0
   10.5892  -37.5733   21.4498 N   0  0  0  0  0  0  0  0  0  0  0  0
    9.6634  -39.2328   16.6487 C   0  0  1  0  0  0  0  0  0  0  0  0
    6.7164  -41.6224   14.1484 C   0  0  1  0  0  0  0  0  0  0  0  0
    9.6949  -44.2327   12.0846 C   0  0  1  0  0  0  0  0  0  0  0  0
   12.7637  -34.7292   14.2131 C   0  0  2  0  0  0  0  0  0  0  0  0
   14.0282  -35.4098   13.9710 N   0  0  0  0  0  0  0  0  0  0  0  0
   11.2161  -35.7952   19.7851 C   0  0  0  0  0  0  0  0  0  0  0  0
    9.3449  -39.7091   15.2432 C   0  0  2  0  0  0  0  0  0  0  0  0
    8.6415  -38.7001   14.4652 O   0  0  0  0  0  0  0  0  0  0  0  0
    6.5532  -43.1243   14.6747 C   0  0  2  0  0  0  0  0  0  0  0  0
    7.8316  -43.6144   15.2586 N   0  0  0  0  0  0  0  0  0  0  0  0
   10.3883  -45.0173   13.2209 C   0  0  1  0  0  0  0  0  0  0  0  0
   10.2342  -46.4373   12.9765 O   0  0  0  0  0  0  0  0  0  0  0  0
   12.9693  -33.4255   15.0701 C   0  0  0  0  0  0  0  0  0  0  0  0
   12.0367  -35.5262   18.4347 C   0  0  2  0  0  0  0  0  0  0  0  0
   11.9419  -34.1177   18.0236 N   0  0  0  0  0  0  0  0  0  0  0  0
    8.5944  -41.0077   15.4864 C   0  0  2  0  0  0  0  0  0  0  0  0
    7.2273  -40.8697   15.2096 O   0  0  0  0  0  0  0  0  0  0  0  0
    5.9648  -44.0019   13.4522 C   0  0  1  0  0  0  0  0  0  0  0  0
    4.7315  -43.3962   13.0241 O   0  0  0  0  0  0  0  0  0  0  0  0
   11.8938  -44.7319   13.4720 C   0  0  1  0  0  0  0  0  0  0  0  0
   12.6553  -45.6827   12.7167 O   0  0  0  0  0  0  0  0  0  0  0  0
   11.5774  -32.7453   15.2813 C   0  0  2  0  0  0  0  0  0  0  0  0
   11.7230  -31.5485   16.0392 O   0  0  0  0  0  0  0  0  0  0  0  0
   11.4863  -36.4490   17.3117 C   0  0  2  0  0  0  0  0  0  0  0  0
    8.6726  -41.3503   16.9934 C   0  0  2  0  0  0  0  0  0  0  0  0
    9.5804  -40.3743   17.4841 O   0  0  0  0  0  0  0  0  0  0  0  0
    6.9517  -43.9887   12.1715 C   0  0  2  0  0  0  0  0  0  0  0  0
    8.1599  -44.6166   12.6403 O   0  0  0  0  0  0  0  0  0  0  0  0
   12.3841  -43.3087   13.1190 C   0  0  2  0  0  0  0  0  0  0  0  0
   13.2849  -42.9297   14.1827 O   0  0  0  0  0  0  0  0  0  0  0  0
   10.6276  -33.7296   16.0221 C   0  0  2  0  0  0  0  0  0  0  0  0
   10.4906  -34.9493   15.1956 O   0  0  0  0  0  0  0  0  0  0  0  0
   11.5264  -37.9592   17.6976 C   0  0  2  0  0  0  0  0  0  0  0  0
   10.9511  -38.7051   16.5982 O   0  0  0  0  0  0  0  0  0  0  0  0
    9.2336  -42.7311   17.3146 C   0  0  0  0  0  0  0  0  0  0  0  0
    9.2597  -42.8523   18.7449 O   0  0  0  0  0  0  0  0  0  0  0  0
    7.2436  -42.5259   11.8950 C   0  0  1  0  0  0  0  0  0  0  0  0
    7.6150  -41.5590   12.8997 O   0  0  0  0  0  0  0  0  0  0  0  0
   11.2082  -42.3513   12.9448 C   0  0  2  0  0  0  0  0  0  0  0  0
   10.1709  -42.8191   12.0390 O   0  0  0  0  0  0  0  0  0  0  0  0
    9.2635  -33.1502   16.2238 C   0  0  0  0  0  0  0  0  0  0  0  0
    9.4111  -31.8908   16.8220 O   0  0  0  0  0  0  0  0  0  0  0  0
   10.7283  -38.1974   19.0314 C   0  0  1  0  0  0  0  0  0  0  0  0
   10.8317  -39.6187   19.3903 O   0  0  0  0  0  0  0  0  0  0  0  0
    8.2356  -42.3081   10.6980 C   0  0  0  0  0  0  0  0  0  0  0  0
    7.6194  -42.5288    9.3672 N   0  0  0  0  0  0  0  0  0  0  0  0
   11.4089  -40.8815   12.5824 C   0  0  0  0  0  0  0  0  0  0  0  0
   12.3134  -40.2421   13.5350 O   0  0  0  0  0  0  0  0  0  0  0  0
  1  2  1  1  0  0  0
  1  8  1  0  0  0  0
  1 36  1  0  0  0  0
  3  4  1  1  0  0  0
  3 10  1  0  0  0  0
  3 47  1  0  0  0  0
  5 11  1  0  0  0  0
  5 30  1  0  0  0  0
  5 38  1  6  0  0  0
  6 21  1  1  0  0  0
  6 42  1  0  0  0  0
  7 15  1  0  0  0  0
  7 44  1  0  0  0  0
  7 32  1  1  0  0  0
  8  9  1  1  0  0  0
  8 17  1  0  0  0  0
 11 12  1  1  0  0  0
 11 20  1  0  0  0  0
 13  6  1  0  0  0  0
 13 14  1  6  0  0  0
 15 16  1  6  0  0  0
 15 24  1  0  0  0  0
 17 26  1  0  0  0  0
 18 10  1  0  0  0  0
 18 19  1  6  0  0  0
 20 21  1  1  0  0  0
 20 29  1  0  0  0  0
 22 13  1  0  0  0  0
 22 23  1  6  0  0  0
 24 25  1  6  0  0  0
 24 33  1  0  0  0  0
 26 27  1  1  0  0  0
 26 35  1  0  0  0  0
 28  2  1  6  0  0  0
 28 18  1  0  0  0  0
 29 30  1  0  0  0  0
 29 39  1  6  0  0  0
 31 22  1  0  0  0  0
 31 32  1  1  0  0  0
 31 41  1  0  0  0  0
 33 34  1  1  0  0  0
 33 43  1  0  0  0  0
 35 36  1  0  0  0  0
 35 45  1  6  0  0  0
 37 28  1  0  0  0  0
 37 38  1  6  0  0  0
 39 40  1  0  0  0  0
 41 42  1  0  0  0  0
 41 49  1  6  0  0  0
 43 44  1  0  0  0  0
 43 51  1  6  0  0  0
 45 46  1  0  0  0  0
 47 37  1  0  0  0  0
 47 48  1  1  0  0  0
 49 50  1  0  0  0  0
 51 52  1  0  0  0  0
M  END
>  <CHROM.1>
146.32393001,169.97619774,77.06962206,167.88111023,115.20735105,-119.14306468
178.57907910,-148.34866159,-51.72404100,-103.73076135,74.99217318,-54.56263515
10.05600891,-39.69795846,15.15552179,-0.56603029,-1.27676323,-1.75078529

>  <Name>
2fd0_lig

>  <RI>
0

>  <Rbt.Current_Directory>
/home/itssahil/PROJECTS/Mol_Feturizer/New_Systems/rnas/2fd0

>  <Rbt.Executable>
rbdock ($Id: //depot/dev/client3/rdock/2013.1/src/exe/rbdock.cxx#4 $)

>  <Rbt.Library>
libRbt.so (2013.1, Build901 2013/11/27)

>  <Rbt.Parameter_File>
/export/apps/rDock/src/rDock_2013.1_src/data/scripts/dock_solv.prm

>  <Rbt.Receptor>
prm/blind_docking_100.prm

>  <SCORE>
48.0419

>  <SCORE.INTER>
17.9551

>  <SCORE.INTER.CONST>
1

>  <SCORE.INTER.POLAR>
-0.251946

>  <SCORE.INTER.ROT>
12

>  <SCORE.INTER.SOLV>
25.4979

>  <SCORE.INTER.VDW>
-7.28944

>  <SCORE.INTER.norm>
0.34529

>  <SCORE.INTRA>
22.1897

>  <SCORE.INTRA.DIHEDRAL>
9.18016

>  <SCORE.INTRA.DIHEDRAL.0>
23.9727

>  <SCORE.INTRA.POLAR>
0

>  <SCORE.INTRA.POLAR.0>
0

>  <SCORE.INTRA.REPUL>
0

>  <SCORE.INTRA.REPUL.0>
0

>  <SCORE.INTRA.SOLV>
6.9573

>  <SCORE.INTRA.SOLV.lig_0>
-115.028

>  <SCORE.INTRA.VDW>
14.1209

>  <SCORE.INTRA.VDW.0>
-6.82393

>  <SCORE.INTRA.norm>
0.426724

>  <SCORE.RESTR>
7.89719

>  <SCORE.RESTR.CAVITY>
7.89719

>  <SCORE.RESTR.norm>
0.151869

>  <SCORE.SYSTEM>
0

>  <SCORE.SYSTEM.CONST>
0

>  <SCORE.SYSTEM.DIHEDRAL>
0

>  <SCORE.SYSTEM.SOLV>
0

>  <SCORE.SYSTEM.norm>
0

>  <SCORE.heavy>
52

>  <SCORE.norm>
0.923883

>  <RMSD>
15.072

$$$$
2fd0_lig
 OpenBabel11021811433D
libRbt.so/2013.1/901 2013/11/27
 52 56  0  0  0  0  0  0  0  0999 V2000
    7.5998  -48.3537   15.4846 C   0  0  2  0  0  0  0  0  0  0  0  0
    7.2996  -48.6248   14.1086 O   0  0  0  0  0  0  0  0  0  0  0  0
    5.1016  -47.1231   10.6726 C   0  0  2  0  0  0  0  0  0  0  0  0
    4.1005  -46.4219    9.8521 N   0  0  0  0  0  0  0  0  0  0  0  0
    8.5306  -44.8854   12.7563 C   0  0  1  0  0  0  0  0  0  0  0  0
    9.6395  -40.8794   13.8321 C   0  0  1  0  0  0  0  0  0  0  0  0
   12.3431  -36.4556   14.3980 C   0  0  1  0  0  0  0  0  0  0  0  0
    7.8926  -49.7171   16.2105 C   0  0  2  0  0  0  0  0  0  0  0  0
    8.9748  -50.4513   15.5697 N   0  0  0  0  0  0  0  0  0  0  0  0
    4.3870  -48.1435   11.6631 C   0  0  0  0  0  0  0  0  0  0  0  0
    8.4796  -43.7405   13.7514 C   0  0  2  0  0  0  0  0  0  0  0  0
    7.4716  -42.7506   13.4019 O   0  0  0  0  0  0  0  0  0  0  0  0
    9.9256  -39.6159   12.8934 C   0  0  2  0  0  0  0  0  0  0  0  0
   11.3418  -39.6164   12.4352 N   0  0  0  0  0  0  0  0  0  0  0  0
   13.5874  -36.7882   15.2517 C   0  0  1  0  0  0  0  0  0  0  0  0
   14.4055  -37.7492   14.5395 O   0  0  0  0  0  0  0  0  0  0  0  0
    6.5826  -50.5850   16.2952 C   0  0  0  0  0  0  0  0  0  0  0  0
    5.4796  -48.9138   12.5476 C   0  0  2  0  0  0  0  0  0  0  0  0
    4.8444  -49.8621   13.4745 N   0  0  0  0  0  0  0  0  0  0  0  0
    9.9171  -43.2490   13.7779 C   0  0  2  0  0  0  0  0  0  0  0  0
   10.0493  -42.0146   13.1271 O   0  0  0  0  0  0  0  0  0  0  0  0
    9.4564  -38.2984   13.7026 C   0  0  1  0  0  0  0  0  0  0  0  0
    8.0704  -38.4629   14.0533 O   0  0  0  0  0  0  0  0  0  0  0  0
   14.4970  -35.6054   15.6815 C   0  0  1  0  0  0  0  0  0  0  0  0
   15.5373  -35.4710   14.7047 O   0  0  0  0  0  0  0  0  0  0  0  0
    5.4718  -49.7398   16.9998 C   0  0  2  0  0  0  0  0  0  0  0  0
    4.2718  -50.4984   17.1128 O   0  0  0  0  0  0  0  0  0  0  0  0
    6.3194  -47.8731   13.3397 C   0  0  2  0  0  0  0  0  0  0  0  0
   10.7923  -44.2335   12.9661 C   0  0  2  0  0  0  0  0  0  0  0  0
    9.8865  -45.2909   12.6854 O   0  0  0  0  0  0  0  0  0  0  0  0
   10.2644  -38.1255   15.0924 C   0  0  2  0  0  0  0  0  0  0  0  0
   11.6363  -37.9476   14.6926 O   0  0  0  0  0  0  0  0  0  0  0  0
   13.7972  -34.2377   15.8548 C   0  0  2  0  0  0  0  0  0  0  0  0
   14.3754  -33.6493   17.0405 O   0  0  0  0  0  0  0  0  0  0  0  0
    5.2057  -48.4465   16.1774 C   0  0  2  0  0  0  0  0  0  0  0  0
    6.4698  -47.6815   16.0982 O   0  0  0  0  0  0  0  0  0  0  0  0
    6.9949  -46.8139   12.4163 C   0  0  2  0  0  0  0  0  0  0  0  0
    7.7048  -45.8829   13.2681 O   0  0  0  0  0  0  0  0  0  0  0  0
   11.9849  -44.8115   13.7198 C   0  0  0  0  0  0  0  0  0  0  0  0
   12.2484  -46.1072   13.1604 O   0  0  0  0  0  0  0  0  0  0  0  0
   10.1385  -39.4576   15.8073 C   0  0  1  0  0  0  0  0  0  0  0  0
   10.3532  -40.7439   15.1896 O   0  0  0  0  0  0  0  0  0  0  0  0
   12.2819  -34.4031   15.9321 C   0  0  2  0  0  0  0  0  0  0  0  0
   11.6993  -35.1897   14.8563 O   0  0  0  0  0  0  0  0  0  0  0  0
    4.1747  -47.5738   16.8196 C   0  0  0  0  0  0  0  0  0  0  0  0
    4.0519  -46.4087   16.0495 O   0  0  0  0  0  0  0  0  0  0  0  0
    5.9073  -46.0815   11.5484 C   0  0  1  0  0  0  0  0  0  0  0  0
    6.5843  -45.1302   10.6561 O   0  0  0  0  0  0  0  0  0  0  0  0
   10.9076  -39.5012   17.1751 C   0  0  0  0  0  0  0  0  0  0  0  0
   10.8994  -40.8368   17.8197 N   0  0  0  0  0  0  0  0  0  0  0  0
   11.3451  -33.2079   16.0930 C   0  0  0  0  0  0  0  0  0  0  0  0
   11.3466  -32.3940   14.8797 O   0  0  0  0  0  0  0  0  0  0  0  0
  1  2  1  6  0  0  0
  1  8  1  0  0  0  0
  1 36  1  0  0  0  0
  3  4  1  1  0  0  0
  3 10  1  0  0  0  0
  3 47  1  0  0  0  0
  5 11  1  0  0  0  0
  5 30  1  0  0  0  0
  5 38  1  1  0  0  0
  6 21  1  6  0  0  0
  6 42  1  0  0  0  0
  7 15  1  0  0  0  0
  7 44  1  0  0  0  0
  7 32  1  1  0  0  0
  8  9  1  6  0  0  0
  8 17  1  0  0  0  0
 11 12  1  6  0  0  0
 11 20  1  0  0  0  0
 13  6  1  0  0  0  0
 13 14  1  1  0  0  0
 15 16  1  6  0  0  0
 15 24  1  0  0  0  0
 17 26  1  0  0  0  0
 18 10  1  0  0  0  0
 18 19  1  1  0  0  0
 20 21  1  6  0  0  0
 20 29  1  0  0  0  0
 22 13  1  0  0  0  0
 22 23  1  1  0  0  0
 24 25  1  6  0  0  0
 24 33  1  0  0  0  0
 26 27  1  6  0  0  0
 26 35  1  0  0  0  0
 28  2  1  6  0  0  0
 28 18  1  0  0  0  0
 29 30  1  0  0  0  0
 29 39  1  1  0  0  0
 31 22  1  0  0  0  0
 31 32  1  6  0  0  0
 31 41  1  0  0  0  0
 33 34  1  1  0  0  0
 33 43  1  0  0  0  0
 35 36  1  0  0  0  0
 35 45  1  1  0  0  0
 37 28  1  0  0  0  0
 37 38  1  1  0  0  0
 39 40  1  0  0  0  0
 41 42  1  0  0  0  0
 41 49  1  1  0  0  0
 43 44  1  0  0  0  0
 43 51  1  6  0  0  0
 45 46  1  0  0  0  0
 47 37  1  0  0  0  0
 47 48  1  6  0  0  0
 49 50  1  0  0  0  0
 51 52  1  0  0  0  0
M  END
>  <CHROM.1>
144.25934269,150.32950647,178.62867948,132.48355991,78.05142132,-135.50500516
151.12008155,91.02115603,177.03185536,173.42151724,-174.48792381,68.79454220
9.11458754,-42.76098719,14.38476651,-2.42436995,-0.91660991,-0.65980912

>  <Name>
2fd0_lig

>  <RI>
2.60878e+07

>  <Rbt.Current_Directory>
/home/itssahil/PROJECTS/Mol_Feturizer/New_Systems/rnas/2fd0

>  <Rbt.Executable>
rbdock ($Id: //depot/dev/client3/rdock/2013.1/src/exe/rbdock.cxx#4 $)

>  <Rbt.Library>
libRbt.so (2013.1, Build901 2013/11/27)

>  <Rbt.Parameter_File>
/export/apps/rDock/src/rDock_2013.1_src/data/scripts/dock_solv.prm

>  <Rbt.Receptor>
prm/blind_docking_80.prm

>  <SCORE>
-16.3761

>  <SCORE.INTER>
-20.8667

>  <SCORE.INTER.CONST>
1

>  <SCORE.INTER.POLAR>
-0.60804

>  <SCORE.INTER.ROT>
12

>  <SCORE.INTER.SOLV>
30.8192

>  <SCORE.INTER.VDW>
-33.7574

>  <SCORE.INTER.norm>
-0.401283

>  <SCORE.INTRA>
3.44963

>  <SCORE.INTRA.DIHEDRAL>
6.38839

>  <SCORE.INTRA.DIHEDRAL.0>
23.9727

>  <SCORE.INTRA.POLAR>
0

>  <SCORE.INTRA.POLAR.0>
0

>  <SCORE.INTRA.REPUL>
0

>  <SCORE.INTRA.REPUL.0>
0

>  <SCORE.INTRA.SOLV>
-1.79338

>  <SCORE.INTRA.SOLV.lig_0>
-115.028

>  <SCORE.INTRA.VDW>
1.15212

>  <SCORE.INTRA.VDW.0>
-6.82393

>  <SCORE.INTRA.norm>
0.066339

>  <SCORE.RESTR>
1.04104

>  <SCORE.RESTR.CAVITY>
1.04104

>  <SCORE.RESTR.norm>
0.02002

>  <SCORE.SYSTEM>
0

>  <SCORE.SYSTEM.CONST>
0

>  <SCORE.SYSTEM.DIHEDRAL>
0

>  <SCORE.SYSTEM.SOLV>
0

>  <SCORE.SYSTEM.norm>
0

>  <SCORE.heavy>
52

>  <SCORE.norm>
-0.314924

>  <RMSD>
15.077

$$$$
2fd0_lig
 OpenBabel11021811433D
libRbt.so/2013.1/901 2013/11/27
 52 56  0  0  0  0  0  0  0  0999 V2000
    4.9189  -47.2011   12.7183 C   0  0  2  0  0  0  0  0  0  0  0  0
    6.3186  -47.4954   12.6119 O   0  0  0  0  0  0  0  0  0  0  0  0
    7.7780  -46.8698   16.6580 C   0  0  2  0  0  0  0  0  0  0  0  0
    8.6380  -46.8948   17.8525 N   0  0  0  0  0  0  0  0  0  0  0  0
    8.5665  -44.0515   13.0930 C   0  0  1  0  0  0  0  0  0  0  0  0
    9.8302  -40.8285   13.1923 C   0  0  1  0  0  0  0  0  0  0  0  0
   10.9949  -35.9813   15.0636 C   0  0  1  0  0  0  0  0  0  0  0  0
    4.2916  -47.2270   11.2770 C   0  0  2  0  0  0  0  0  0  0  0  0
    4.5126  -48.5036   10.6120 N   0  0  0  0  0  0  0  0  0  0  0  0
    7.4744  -48.3523   16.1650 C   0  0  0  0  0  0  0  0  0  0  0  0
    9.9977  -43.9288   12.6028 C   0  0  2  0  0  0  0  0  0  0  0  0
   10.9544  -43.8877   13.6987 O   0  0  0  0  0  0  0  0  0  0  0  0
    9.5152  -39.4488   12.4462 C   0  0  2  0  0  0  0  0  0  0  0  0
   10.7725  -38.8239   11.9523 N   0  0  0  0  0  0  0  0  0  0  0  0
   12.2455  -35.8543   14.1650 C   0  0  1  0  0  0  0  0  0  0  0  0
   11.8240  -35.5890   12.8041 O   0  0  0  0  0  0  0  0  0  0  0  0
    4.8437  -46.0298   10.4177 C   0  0  0  0  0  0  0  0  0  0  0  0
    6.5289  -48.3229   14.8710 C   0  0  2  0  0  0  0  0  0  0  0  0
    6.2350  -49.6819   14.3931 N   0  0  0  0  0  0  0  0  0  0  0  0
    9.9479  -42.6978   11.7135 C   0  0  2  0  0  0  0  0  0  0  0  0
   10.5898  -41.6054   12.3131 O   0  0  0  0  0  0  0  0  0  0  0  0
    8.6386  -38.5434   13.4575 C   0  0  1  0  0  0  0  0  0  0  0  0
    7.4643  -39.2924   13.8196 O   0  0  0  0  0  0  0  0  0  0  0  0
   13.3037  -34.7882   14.5584 C   0  0  1  0  0  0  0  0  0  0  0  0
   13.0014  -33.5821   13.8455 O   0  0  0  0  0  0  0  0  0  0  0  0
    4.5643  -44.6969   11.1857 C   0  0  2  0  0  0  0  0  0  0  0  0
    5.0340  -43.5845   10.4306 O   0  0  0  0  0  0  0  0  0  0  0  0
    7.2246  -47.5009   13.7504 C   0  0  2  0  0  0  0  0  0  0  0  0
    8.4716  -42.2636   11.5506 C   0  0  2  0  0  0  0  0  0  0  0  0
    7.7673  -43.3287   12.1728 O   0  0  0  0  0  0  0  0  0  0  0  0
    9.4310  -38.2381   14.8335 C   0  0  2  0  0  0  0  0  0  0  0  0
   10.5829  -37.4764   14.4253 O   0  0  0  0  0  0  0  0  0  0  0  0
   13.4119  -34.4616   16.0658 C   0  0  2  0  0  0  0  0  0  0  0  0
   14.8250  -34.3413   16.3400 O   0  0  0  0  0  0  0  0  0  0  0  0
    5.2760  -44.7373   12.5683 C   0  0  2  0  0  0  0  0  0  0  0  0
    4.7489  -45.8943   13.3253 O   0  0  0  0  0  0  0  0  0  0  0  0
    7.5956  -46.0558   14.2034 C   0  0  2  0  0  0  0  0  0  0  0  0
    8.2718  -45.4124   13.0966 O   0  0  0  0  0  0  0  0  0  0  0  0
    7.9872  -42.1461   10.1097 C   0  0  0  0  0  0  0  0  0  0  0  0
    8.7903  -41.1383    9.4767 O   0  0  0  0  0  0  0  0  0  0  0  0
    9.9002  -39.5876   15.3434 C   0  0  1  0  0  0  0  0  0  0  0  0
   10.5480  -40.5909   14.5335 O   0  0  0  0  0  0  0  0  0  0  0  0
   12.7149  -35.5261   16.9087 C   0  0  2  0  0  0  0  0  0  0  0  0
   11.3503  -35.8259   16.5047 O   0  0  0  0  0  0  0  0  0  0  0  0
    5.0176  -43.5015   13.3702 C   0  0  0  0  0  0  0  0  0  0  0  0
    3.6560  -43.4773   13.7034 O   0  0  0  0  0  0  0  0  0  0  0  0
    8.5105  -46.1083   15.4812 C   0  0  1  0  0  0  0  0  0  0  0  0
    8.7961  -44.7316   15.9084 O   0  0  0  0  0  0  0  0  0  0  0  0
   10.7400  -39.4916   16.6662 C   0  0  0  0  0  0  0  0  0  0  0  0
   11.0745  -40.8108   17.2554 N   0  0  0  0  0  0  0  0  0  0  0  0
   12.6615  -35.4439   18.4326 C   0  0  0  0  0  0  0  0  0  0  0  0
   11.9984  -36.6239   18.9824 O   0  0  0  0  0  0  0  0  0  0  0  0
  1  2  1  6  0  0  0
  1  8  1  0  0  0  0
  1 36  1  0  0  0  0
  3  4  1  1  0  0  0
  3 10  1  0  0  0  0
  3 47  1  0  0  0  0
  5 11  1  0  0  0  0
  5 30  1  0  0  0  0
  5 38  1  6  0  0  0
  6 21  1  6  0  0  0
  6 42  1  0  0  0  0
  7 15  1  0  0  0  0
  7 44  1  0  0  0  0
  7 32  1  1  0  0  0
  8  9  1  6  0  0  0
  8 17  1  0  0  0  0
 11 12  1  1  0  0  0
 11 20  1  0  0  0  0
 13  6  1  0  0  0  0
 13 14  1  1  0  0  0
 15 16  1  6  0  0  0
 15 24  1  0  0  0  0
 17 26  1  0  0  0  0
 18 10  1  0  0  0  0
 18 19  1  6  0  0  0
 20 21  1  1  0  0  0
 20 29  1  0  0  0  0
 22 13  1  0  0  0  0
 22 23  1  1  0  0  0
 24 25  1  6  0  0  0
 24 33  1  0  0  0  0
 26 27  1  6  0  0  0
 26 35  1  0  0  0  0
 28  2  1  6  0  0  0
 28 18  1  0  0  0  0
 29 30  1  0  0  0  0
 29 39  1  6  0  0  0
 31 22  1  0  0  0  0
 31 32  1  6  0  0  0
 31 41  1  0  0  0  0
 33 34  1  1  0  0  0
 33 43  1  0  0  0  0
 35 36  1  0  0  0  0
 35 45  1  1  0  0  0
 37 28  1  0  0  0  0
 37 38  1  6  0  0  0
 39 40  1  0  0  0  0
 41 42  1  0  0  0  0
 41 49  1  1  0  0  0
 43 44  1  0  0  0  0
 43 51  1  1  0  0  0
 45 46  1  0  0  0  0
 47 37  1  0  0  0  0
 47 48  1  1  0  0  0
 49 50  1  0  0  0  0
 51 52  1  0  0  0  0
M  END
>  <CHROM.1>
177.37411898,135.01190524,-107.02650155,-179.82878510,-85.44060443,47.52377149
-61.38472807,126.07535784,66.60366728,170.42875544,173.53926924,-177.00495490
8.86795612,-41.83776420,13.89916903,2.62169266,0.97256579,2.39933880

>  <Name>
2fd0_lig

>  <RI>
2.60878e+07

>  <Rbt.Current_Directory>
/home/itssahil/PROJECTS/Mol_Feturizer/New_Systems/rnas/2fd0

>  <Rbt.Executable>
rbdock ($Id: //depot/dev/client3/rdock/2013.1/src/exe/rbdock.cxx#4 $)

>  <Rbt.Library>
libRbt.so (2013.1, Build901 2013/11/27)

>  <Rbt.Parameter_File>
/export/apps/rDock/src/rDock_2013.1_src/data/scripts/dock_solv.prm

>  <Rbt.Receptor>
prm/blind_docking_80.prm

>  <SCORE>
-19.8247

>  <SCORE.INTER>
-24.6486

>  <SCORE.INTER.CONST>
1

>  <SCORE.INTER.POLAR>
-3.40948

>  <SCORE.INTER.ROT>
12

>  <SCORE.INTER.SOLV>
25.4518

>  <SCORE.INTER.VDW>
-25.1514

>  <SCORE.INTER.norm>
-0.474012

>  <SCORE.INTRA>
3.12006

>  <SCORE.INTRA.DIHEDRAL>
1.099

>  <SCORE.INTRA.DIHEDRAL.0>
23.9727

>  <SCORE.INTRA.POLAR>
0

>  <SCORE.INTRA.POLAR.0>
0

>  <SCORE.INTRA.REPUL>
0

>  <SCORE.INTRA.REPUL.0>
0

>  <SCORE.INTRA.SOLV>
-1.66818

>  <SCORE.INTRA.SOLV.lig_0>
-115.028

>  <SCORE.INTRA.VDW>
3.40465

>  <SCORE.INTRA.VDW.0>
-6.82393

>  <SCORE.INTRA.norm>
0.0600012

>  <SCORE.RESTR>
1.70383

>  <SCORE.RESTR.CAVITY>
1.70383

>  <SCORE.RESTR.norm>
0.032766

>  <SCORE.SYSTEM>
0

>  <SCORE.SYSTEM.CONST>
0

>  <SCORE.SYSTEM.DIHEDRAL>
0

>  <SCORE.SYSTEM.SOLV>
0

>  <SCORE.SYSTEM.norm>
0

>  <SCORE.heavy>
52

>  <SCORE.norm>
-0.381245

>  <RMSD>
15.091

$$$$
2fd0_lig
 OpenBabel11021811433D
libRbt.so/2013.1/901 2013/11/27
 52 56  0  0  0  0  0  0  0  0999 V2000
    4.9485  -45.3223   10.6454 C   0  0  2  0  0  0  0  0  0  0  0  0
    4.6071  -46.0515   11.8324 O   0  0  0  0  0  0  0  0  0  0  0  0
    6.7096  -47.2106   15.4557 C   0  0  2  0  0  0  0  0  0  0  0  0
    7.6531  -47.8702   16.3732 N   0  0  0  0  0  0  0  0  0  0  0  0
    7.5821  -43.5815   12.5142 C   0  0  1  0  0  0  0  0  0  0  0  0
    9.1290  -40.5992   12.8795 C   0  0  1  0  0  0  0  0  0  0  0  0
   11.5620  -36.8585   15.0665 C   0  0  1  0  0  0  0  0  0  0  0  0
    3.9359  -44.1310   10.4819 C   0  0  2  0  0  0  0  0  0  0  0  0
    3.9276  -43.2618   11.6502 N   0  0  0  0  0  0  0  0  0  0  0  0
    5.8379  -48.2967   14.6853 C   0  0  0  0  0  0  0  0  0  0  0  0
    8.7947  -43.3726   11.6257 C   0  0  2  0  0  0  0  0  0  0  0  0
   10.0453  -43.5429   12.3504 O   0  0  0  0  0  0  0  0  0  0  0  0
    9.2013  -39.0012   12.8594 C   0  0  2  0  0  0  0  0  0  0  0  0
   10.4991  -38.5447   12.2915 N   0  0  0  0  0  0  0  0  0  0  0  0
   13.0222  -37.0878   14.6161 C   0  0  1  0  0  0  0  0  0  0  0  0
   13.0323  -37.4488   13.2127 O   0  0  0  0  0  0  0  0  0  0  0  0
    2.4947  -44.6769   10.1633 C   0  0  0  0  0  0  0  0  0  0  0  0
    4.8037  -47.5759   13.6952 C   0  0  2  0  0  0  0  0  0  0  0  0
    3.9868  -48.5586   12.9682 N   0  0  0  0  0  0  0  0  0  0  0  0
    8.5487  -41.9953   11.0331 C   0  0  2  0  0  0  0  0  0  0  0  0
    9.4127  -41.0384   11.5832 O   0  0  0  0  0  0  0  0  0  0  0  0
    8.8764  -38.4854   14.3558 C   0  0  1  0  0  0  0  0  0  0  0  0
    7.5900  -39.0066   14.7357 O   0  0  0  0  0  0  0  0  0  0  0  0
   14.0256  -35.9207   14.8210 C   0  0  1  0  0  0  0  0  0  0  0  0
   14.0588  -35.1499   13.6130 O   0  0  0  0  0  0  0  0  0  0  0  0
    2.5784  -45.5906    8.8972 C   0  0  2  0  0  0  0  0  0  0  0  0
    1.2876  -46.0915    8.5640 O   0  0  0  0  0  0  0  0  0  0  0  0
    5.5929  -46.6895   12.6916 C   0  0  2  0  0  0  0  0  0  0  0  0
    7.1254  -41.5335   11.4270 C   0  0  2  0  0  0  0  0  0  0  0  0
    6.5837  -42.6949   12.0397 O   0  0  0  0  0  0  0  0  0  0  0  0
    9.9391  -39.0548   15.4332 C   0  0  2  0  0  0  0  0  0  0  0  0
   11.2019  -38.4959   15.0249 O   0  0  0  0  0  0  0  0  0  0  0  0
   13.7338  -34.9736   16.0078 C   0  0  2  0  0  0  0  0  0  0  0  0
   15.0158  -34.6986   16.6138 O   0  0  0  0  0  0  0  0  0  0  0  0
    3.5501  -46.7730    9.1757 C   0  0  2  0  0  0  0  0  0  0  0  0
    4.8798  -46.2112    9.5006 O   0  0  0  0  0  0  0  0  0  0  0  0
    6.5085  -45.6447   13.3994 C   0  0  2  0  0  0  0  0  0  0  0  0
    7.2179  -44.9175   12.3678 O   0  0  0  0  0  0  0  0  0  0  0  0
    6.2256  -41.1437   10.2596 C   0  0  0  0  0  0  0  0  0  0  0  0
    4.9881  -40.6783   10.8194 O   0  0  0  0  0  0  0  0  0  0  0  0
    9.9811  -40.5552   15.2127 C   0  0  1  0  0  0  0  0  0  0  0  0
   10.0935  -41.1922   13.9229 O   0  0  0  0  0  0  0  0  0  0  0  0
   12.7245  -35.5948   16.9695 C   0  0  2  0  0  0  0  0  0  0  0  0
   11.5077  -36.0859   16.3421 O   0  0  0  0  0  0  0  0  0  0  0  0
    3.7024  -47.6677    7.9868 C   0  0  0  0  0  0  0  0  0  0  0  0
    4.4562  -48.7835    8.3773 O   0  0  0  0  0  0  0  0  0  0  0  0
    7.5040  -46.3719   14.3755 C   0  0  1  0  0  0  0  0  0  0  0  0
    8.3129  -45.3547   15.0613 O   0  0  0  0  0  0  0  0  0  0  0  0
   11.0053  -41.2899   16.1484 C   0  0  0  0  0  0  0  0  0  0  0  0
   11.3056  -42.6795   15.7262 N   0  0  0  0  0  0  0  0  0  0  0  0
   12.2497  -34.8666   18.2249 C   0  0  0  0  0  0  0  0  0  0  0  0
   11.6414  -33.5864   17.8705 O   0  0  0  0  0  0  0  0  0  0  0  0
  1  2  1  1  0  0  0
  1  8  1  0  0  0  0
  1 36  1  0  0  0  0
  3  4  1  1  0  0  0
  3 10  1  0  0  0  0
  3 47  1  0  0  0  0
  5 11  1  0  0  0  0
  5 30  1  0  0  0  0
  5 38  1  6  0  0  0
  6 21  1  6  0  0  0
  6 42  1  0  0  0  0
  7 15  1  0  0  0  0
  7 44  1  0  0  0  0
  7 32  1  1  0  0  0
  8  9  1  1  0  0  0
  8 17  1  0  0  0  0
 11 12  1  1  0  0  0
 11 20  1  0  0  0  0
 13  6  1  0  0  0  0
 13 14  1  1  0  0  0
 15 16  1  6  0  0  0
 15 24  1  0  0  0  0
 17 26  1  0  0  0  0
 18 10  1  0  0  0  0
 18 19  1  6  0  0  0
 20 21  1  1  0  0  0
 20 29  1  0  0  0  0
 22 13  1  0  0  0  0
 22 23  1  1  0  0  0
 24 25  1  6  0  0  0
 24 33  1  0  0  0  0
 26 27  1  1  0  0  0
 26 35  1  0  0  0  0
 28  2  1  6  0  0  0
 28 18  1  0  0  0  0
 29 30  1  0  0  0  0
 29 39  1  6  0  0  0
 31 22  1  0  0  0  0
 31 32  1  6  0  0  0
 31 41  1  0  0  0  0
 33 34  1  1  0  0  0
 33 43  1  0  0  0  0
 35 36  1  0  0  0  0
 35 45  1  6  0  0  0
 37 28  1  0  0  0  0
 37 38  1  6  0  0  0
 39 40  1  0  0  0  0
 41 42  1  0  0  0  0
 41 49  1  1  0  0  0
 43 44  1  0  0  0  0
 43 51  1  1  0  0  0
 45 46  1  0  0  0  0
 47 37  1  0  0  0  0
 47 48  1  1  0  0  0
 49 50  1  0  0  0  0
 51 52  1  0  0  0  0
M  END
>  <CHROM.1>
-145.85295342,153.86105566,-132.15862063,175.99694406,-75.33786506,-169.77672199
-176.89020946,65.96150113,-172.84519382,148.00467386,-165.63818681,58.25254933
8.19711846,-41.95907316,13.14346765,2.66008124,0.85306706,2.60735808

>  <Name>
2fd0_lig

>  <RI>
2.60878e+07

>  <Rbt.Current_Directory>
/home/itssahil/PROJECTS/Mol_Feturizer/New_Systems/rnas/2fd0

>  <Rbt.Executable>
rbdock ($Id: //depot/dev/client3/rdock/2013.1/src/exe/rbdock.cxx#4 $)

>  <Rbt.Library>
libRbt.so (2013.1, Build901 2013/11/27)

>  <Rbt.Parameter_File>
/export/apps/rDock/src/rDock_2013.1_src/data/scripts/dock_solv.prm

>  <Rbt.Receptor>
prm/blind_docking_80.prm

>  <SCORE>
-16.4757

>  <SCORE.INTER>
-19.199

>  <SCORE.INTER.CONST>
1

>  <SCORE.INTER.POLAR>
-1.78924

>  <SCORE.INTER.ROT>
12

>  <SCORE.INTER.SOLV>
17.1099

>  <SCORE.INTER.VDW>
-24.1385

>  <SCORE.INTER.norm>
-0.369212

>  <SCORE.INTRA>
1.76805

>  <SCORE.INTRA.DIHEDRAL>
-2.16446

>  <SCORE.INTRA.DIHEDRAL.0>
23.9727

>  <SCORE.INTRA.POLAR>
0

>  <SCORE.INTRA.POLAR.0>
0

>  <SCORE.INTRA.REPUL>
0.0135659

>  <SCORE.INTRA.REPUL.0>
0

>  <SCORE.INTRA.SOLV>
1.86061

>  <SCORE.INTRA.SOLV.lig_0>
-115.028

>  <SCORE.INTRA.VDW>
1.85215

>  <SCORE.INTRA.VDW.0>
-6.82393

>  <SCORE.INTRA.norm>
0.034001

>  <SCORE.RESTR>
0.955305

>  <SCORE.RESTR.CAVITY>
0.955305

>  <SCORE.RESTR.norm>
0.0183712

>  <SCORE.SYSTEM>
0

>  <SCORE.SYSTEM.CONST>
0

>  <SCORE.SYSTEM.DIHEDRAL>
0

>  <SCORE.SYSTEM.SOLV>
0

>  <SCORE.SYSTEM.norm>
0

>  <SCORE.heavy>
52

>  <SCORE.norm>
-0.31684

>  <RMSD>
15.094

$$$$
2fd0_lig
 OpenBabel11021811433D
libRbt.so/2013.1/901 2013/11/27
 52 56  0  0  0  0  0  0  0  0999 V2000
    6.4828  -46.8592   15.6351 C   0  0  2  0  0  0  0  0  0  0  0  0
    6.8787  -46.7049   14.2653 O   0  0  0  0  0  0  0  0  0  0  0  0
    4.8465  -44.7806   10.9397 C   0  0  2  0  0  0  0  0  0  0  0  0
    4.2782  -43.7468   10.0592 N   0  0  0  0  0  0  0  0  0  0  0  0
    9.0898  -44.2958   11.8335 C   0  0  1  0  0  0  0  0  0  0  0  0
    9.6167  -40.4883   13.6450 C   0  0  1  0  0  0  0  0  0  0  0  0
   11.3180  -35.6600   15.1140 C   0  0  1  0  0  0  0  0  0  0  0  0
    7.7651  -46.7645   16.5398 C   0  0  2  0  0  0  0  0  0  0  0  0
    8.4815  -45.5131   16.3360 N   0  0  0  0  0  0  0  0  0  0  0  0
    4.2213  -44.6677   12.3989 C   0  0  0  0  0  0  0  0  0  0  0  0
    8.9618  -43.4002   13.0521 C   0  0  2  0  0  0  0  0  0  0  0  0
    7.7985  -42.5289   12.9764 O   0  0  0  0  0  0  0  0  0  0  0  0
    9.3755  -39.1028   12.8823 C   0  0  2  0  0  0  0  0  0  0  0  0
   10.6400  -38.6220   12.2615 N   0  0  0  0  0  0  0  0  0  0  0  0
   12.5426  -35.7260   14.1739 C   0  0  1  0  0  0  0  0  0  0  0  0
   12.0902  -35.6210   12.8013 O   0  0  0  0  0  0  0  0  0  0  0  0
    8.7001  -48.0066   16.2964 C   0  0  0  0  0  0  0  0  0  0  0  0
    4.8333  -45.8013   13.3528 C   0  0  2  0  0  0  0  0  0  0  0  0
    4.2734  -45.7173   14.7097 N   0  0  0  0  0  0  0  0  0  0  0  0
   10.3126  -42.7069   13.1079 C   0  0  2  0  0  0  0  0  0  0  0  0
   10.2142  -41.3605   12.7307 O   0  0  0  0  0  0  0  0  0  0  0  0
    8.6865  -38.0876   13.9338 C   0  0  1  0  0  0  0  0  0  0  0  0
    7.4803  -38.7036   14.4204 O   0  0  0  0  0  0  0  0  0  0  0  0
   13.6688  -34.6795   14.3918 C   0  0  1  0  0  0  0  0  0  0  0  0
   13.4074  -33.5639   13.5307 O   0  0  0  0  0  0  0  0  0  0  0  0
    7.8700  -49.3088   16.5414 C   0  0  2  0  0  0  0  0  0  0  0  0
    8.6876  -50.4588   16.3485 O   0  0  0  0  0  0  0  0  0  0  0  0
    6.3790  -45.6458   13.4017 C   0  0  2  0  0  0  0  0  0  0  0  0
   11.2466  -43.3567   12.0591 C   0  0  2  0  0  0  0  0  0  0  0  0
   10.4785  -44.4624   11.6063 O   0  0  0  0  0  0  0  0  0  0  0  0
    9.6243  -37.8304   15.2256 C   0  0  2  0  0  0  0  0  0  0  0  0
   10.8054  -37.2007   14.6946 O   0  0  0  0  0  0  0  0  0  0  0  0
   13.8451  -34.1614   15.8379 C   0  0  2  0  0  0  0  0  0  0  0  0
   15.2710  -34.0869   16.0562 O   0  0  0  0  0  0  0  0  0  0  0  0
    6.6636  -49.3456   15.5601 C   0  0  2  0  0  0  0  0  0  0  0  0
    5.8331  -48.1455   15.8042 O   0  0  0  0  0  0  0  0  0  0  0  0
    7.0354  -45.6917   11.9882 C   0  0  2  0  0  0  0  0  0  0  0  0
    8.4589  -45.4928   12.1623 O   0  0  0  0  0  0  0  0  0  0  0  0
   12.5678  -43.8837   12.6078 C   0  0  0  0  0  0  0  0  0  0  0  0
   12.2571  -45.0064   13.4470 O   0  0  0  0  0  0  0  0  0  0  0  0
   10.0003  -39.2076   15.7389 C   0  0  1  0  0  0  0  0  0  0  0  0
   10.4708  -40.2917   14.9109 O   0  0  0  0  0  0  0  0  0  0  0  0
   13.1211  -35.0622   16.8349 C   0  0  2  0  0  0  0  0  0  0  0  0
   11.7295  -35.3343   16.5110 O   0  0  0  0  0  0  0  0  0  0  0  0
    5.8061  -50.5533   15.7681 C   0  0  0  0  0  0  0  0  0  0  0  0
    5.2708  -50.4877   17.0622 O   0  0  0  0  0  0  0  0  0  0  0  0
    6.4104  -44.5820   11.0659 C   0  0  1  0  0  0  0  0  0  0  0  0
    7.0146  -44.6893    9.7307 O   0  0  0  0  0  0  0  0  0  0  0  0
   10.9596  -39.1647   16.9808 C   0  0  0  0  0  0  0  0  0  0  0  0
   10.2959  -38.7188   18.2298 N   0  0  0  0  0  0  0  0  0  0  0  0
   13.1235  -34.7743   18.3346 C   0  0  0  0  0  0  0  0  0  0  0  0
   12.6407  -35.9369   19.0761 O   0  0  0  0  0  0  0  0  0  0  0  0
  1  2  1  6  0  0  0
  1  8  1  0  0  0  0
  1 36  1  0  0  0  0
  3  4  1  6  0  0  0
  3 10  1  0  0  0  0
  3 47  1  0  0  0  0
  5 11  1  0  0  0  0
  5 30  1  0  0  0  0
  5 38  1  1  0  0  0
  6 21  1  6  0  0  0
  6 42  1  0  0  0  0
  7 15  1  0  0  0  0
  7 44  1  0  0  0  0
  7 32  1  1  0  0  0
  8  9  1  6  0  0  0
  8 17  1  0  0  0  0
 11 12  1  6  0  0  0
 11 20  1  0  0  0  0
 13  6  1  0  0  0  0
 13 14  1  1  0  0  0
 15 16  1  6  0  0  0
 15 24  1  0  0  0  0
 17 26  1  0  0  0  0
 18 10  1  0  0  0  0
 18 19  1  1  0  0  0
 20 21  1  6  0  0  0
 20 29  1  0  0  0  0
 22 13  1  0  0  0  0
 22 23  1  1  0  0  0
 24 25  1  6  0  0  0
 24 33  1  0  0  0  0
 26 27  1  6  0  0  0
 26 35  1  0  0  0  0
 28  2  1  1  0  0  0
 28 18  1  0  0  0  0
 29 30  1  0  0  0  0
 29 39  1  1  0  0  0
 31 22  1  0  0  0  0
 31 32  1  6  0  0  0
 31 41  1  0  0  0  0
 33 34  1  1  0  0  0
 33 43  1  0  0  0  0
 35 36  1  0  0  0  0
 35 45  1  1  0  0  0
 37 28  1  0  0  0  0
 37 38  1  1  0  0  0
 39 40  1  0  0  0  0
 41 42  1  0  0  0  0
 41 49  1  1  0  0  0
 43 44  1  0  0  0  0
 43 51  1  1  0  0  0
 45 46  1  0  0  0  0
 47 37  1  0  0  0  0
 47 48  1  6  0  0  0
 49 50  1  0  0  0  0
 51 52  1  0  0  0  0
M  END
>  <CHROM.1>
-120.58384706,86.11868941,-169.48518780,-179.41561995,73.37444320,-58.87348547
68.10938801,118.51124183,62.74134568,-105.73787546,72.21880645,-166.60546759
9.25961916,-42.02649479,14.33613191,-2.53627471,-1.00932165,-0.78961365

>  <Name>
2fd0_lig

>  <RI>
2.85265e+07

>  <Rbt.Current_Directory>
/home/itssahil/PROJECTS/Mol_Feturizer/New_Systems/rnas/2fd0

>  <Rbt.Executable>
rbdock ($Id: //depot/dev/client3/rdock/2013.1/src/exe/rbdock.cxx#4 $)

>  <Rbt.Library>
libRbt.so (2013.1, Build901 2013/11/27)

>  <Rbt.Parameter_File>
/export/apps/rDock/src/rDock_2013.1_src/data/scripts/dock_solv.prm

>  <Rbt.Receptor>
prm/blind_docking_60.prm

>  <SCORE>
-8.89822

>  <SCORE.INTER>
-13.8834

>  <SCORE.INTER.CONST>
1

>  <SCORE.INTER.POLAR>
-1.6098

>  <SCORE.INTER.ROT>
12

>  <SCORE.INTER.SOLV>
27.2356

>  <SCORE.INTER.VDW>
-24.5682

>  <SCORE.INTER.norm>
-0.266989

>  <SCORE.INTRA>
4.18509

>  <SCORE.INTRA.DIHEDRAL>
3.31543

>  <SCORE.INTRA.DIHEDRAL.0>
23.9727

>  <SCORE.INTRA.POLAR>
0

>  <SCORE.INTRA.POLAR.0>
0

>  <SCORE.INTRA.REPUL>
0

>  <SCORE.INTRA.REPUL.0>
0

>  <SCORE.INTRA.SOLV>
-0.63064

>  <SCORE.INTRA.SOLV.lig_0>
-115.028

>  <SCORE.INTRA.VDW>
2.8427

>  <SCORE.INTRA.VDW.0>
-6.82393

>  <SCORE.INTRA.norm>
0.0804826

>  <SCORE.RESTR>
0.800098

>  <SCORE.RESTR.CAVITY>
0.800098

>  <SCORE.RESTR.norm>
0.0153865

>  <SCORE.SYSTEM>
0

>  <SCORE.SYSTEM.CONST>
0

>  <SCORE.SYSTEM.DIHEDRAL>
0

>  <SCORE.SYSTEM.SOLV>
0

>  <SCORE.SYSTEM.norm>
0

>  <SCORE.heavy>
52

>  <SCORE.norm>
-0.17112

>  <RMSD>
15.121

$$$$
2fd0_lig
 OpenBabel11021811433D
libRbt.so/2013.1/901 2013/11/27
 52 56  0  0  0  0  0  0  0  0999 V2000
    6.7404  -47.4242   16.0376 C   0  0  2  0  0  0  0  0  0  0  0  0
    7.2944  -47.1585   14.7416 O   0  0  0  0  0  0  0  0  0  0  0  0
    5.3290  -45.3130   11.3322 C   0  0  2  0  0  0  0  0  0  0  0  0
    4.7616  -44.3014   10.4258 N   0  0  0  0  0  0  0  0  0  0  0  0
    9.3841  -44.7130   13.2401 C   0  0  1  0  0  0  0  0  0  0  0  0
    9.5009  -40.3418   13.8106 C   0  0  1  0  0  0  0  0  0  0  0  0
   12.6433  -36.2715   14.4135 C   0  0  1  0  0  0  0  0  0  0  0  0
    7.9190  -47.5334   17.0723 C   0  0  2  0  0  0  0  0  0  0  0  0
    8.7411  -46.3314   17.0869 N   0  0  0  0  0  0  0  0  0  0  0  0
    4.6457  -45.2148   12.7663 C   0  0  0  0  0  0  0  0  0  0  0  0
    9.2147  -43.6565   12.1637 C   0  0  2  0  0  0  0  0  0  0  0  0
   10.4189  -43.4853   11.3645 O   0  0  0  0  0  0  0  0  0  0  0  0
    9.8991  -39.0659   12.9314 C   0  0  2  0  0  0  0  0  0  0  0  0
   11.2956  -39.1918   12.4320 N   0  0  0  0  0  0  0  0  0  0  0  0
   13.8938  -36.7049   15.2112 C   0  0  1  0  0  0  0  0  0  0  0  0
   14.5873  -37.7425   14.4748 O   0  0  0  0  0  0  0  0  0  0  0  0
    8.7839  -48.8160   16.7840 C   0  0  0  0  0  0  0  0  0  0  0  0
    5.2572  -46.3245   13.7481 C   0  0  2  0  0  0  0  0  0  0  0  0
    4.6439  -46.2534   15.0826 N   0  0  0  0  0  0  0  0  0  0  0  0
    8.7571  -42.4399   12.9506 C   0  0  2  0  0  0  0  0  0  0  0  0
    9.7688  -41.4734   13.0351 O   0  0  0  0  0  0  0  0  0  0  0  0
    9.5943  -37.7528   13.8222 C   0  0  1  0  0  0  0  0  0  0  0  0
    8.2074  -37.7880   14.2048 O   0  0  0  0  0  0  0  0  0  0  0  0
   14.9247  -35.6036   15.5790 C   0  0  1  0  0  0  0  0  0  0  0  0
   15.9233  -35.5728   14.5513 O   0  0  0  0  0  0  0  0  0  0  0  0
    7.8409  -50.0632   16.7928 C   0  0  2  0  0  0  0  0  0  0  0  0
    8.5903  -51.2502   16.5531 O   0  0  0  0  0  0  0  0  0  0  0  0
    6.7941  -46.1193   13.8545 C   0  0  2  0  0  0  0  0  0  0  0  0
    8.4812  -42.8698   14.4113 C   0  0  2  0  0  0  0  0  0  0  0  0
    8.6088  -44.2829   14.3454 O   0  0  0  0  0  0  0  0  0  0  0  0
   10.4492  -37.7441   15.1945 C   0  0  2  0  0  0  0  0  0  0  0  0
   11.8224  -37.6913   14.7641 O   0  0  0  0  0  0  0  0  0  0  0  0
   14.3583  -34.1771   15.7654 C   0  0  2  0  0  0  0  0  0  0  0  0
   15.0441  -33.6302   16.9130 O   0  0  0  0  0  0  0  0  0  0  0  0
    6.7500  -49.8948   15.6967 C   0  0  2  0  0  0  0  0  0  0  0  0
    5.9857  -48.6625   15.9914 O   0  0  0  0  0  0  0  0  0  0  0  0
    7.5047  -46.1494   12.4671 C   0  0  2  0  0  0  0  0  0  0  0  0
    8.9135  -45.9042   12.6937 O   0  0  0  0  0  0  0  0  0  0  0  0
    7.0867  -42.5382   14.9307 C   0  0  0  0  0  0  0  0  0  0  0  0
    6.1485  -43.2041   14.0718 O   0  0  0  0  0  0  0  0  0  0  0  0
   10.1974  -39.0927   15.8420 C   0  0  1  0  0  0  0  0  0  0  0  0
   10.2573  -40.3584   15.1516 O   0  0  0  0  0  0  0  0  0  0  0  0
   12.8399  -34.2058   15.9181 C   0  0  2  0  0  0  0  0  0  0  0  0
   12.1376  -34.9485   14.8835 O   0  0  0  0  0  0  0  0  0  0  0  0
    5.7907  -51.0422   15.6770 C   0  0  0  0  0  0  0  0  0  0  0  0
    6.4842  -52.1800   15.2411 O   0  0  0  0  0  0  0  0  0  0  0  0
    6.8799  -45.0638   11.5163 C   0  0  1  0  0  0  0  0  0  0  0  0
    7.5372  -45.1567   10.2053 O   0  0  0  0  0  0  0  0  0  0  0  0
   10.9899  -39.2936   17.1822 C   0  0  0  0  0  0  0  0  0  0  0  0
   10.7480  -40.6081   17.8248 N   0  0  0  0  0  0  0  0  0  0  0  0
   12.0218  -32.9301   16.1062 C   0  0  0  0  0  0  0  0  0  0  0  0
   11.6797  -32.3500   14.8097 O   0  0  0  0  0  0  0  0  0  0  0  0
  1  2  1  6  0  0  0
  1  8  1  0  0  0  0
  1 36  1  0  0  0  0
  3  4  1  6  0  0  0
  3 10  1  0  0  0  0
  3 47  1  0  0  0  0
  5 11  1  0  0  0  0
  5 30  1  0  0  0  0
  5 38  1  6  0  0  0
  6 21  1  6  0  0  0
  6 42  1  0  0  0  0
  7 15  1  0  0  0  0
  7 44  1  0  0  0  0
  7 32  1  1  0  0  0
  8  9  1  6  0  0  0
  8 17  1  0  0  0  0
 11 12  1  1  0  0  0
 11 20  1  0  0  0  0
 13  6  1  0  0  0  0
 13 14  1  1  0  0  0
 15 16  1  6  0  0  0
 15 24  1  0  0  0  0
 17 26  1  0  0  0  0
 18 10  1  0  0  0  0
 18 19  1  1  0  0  0
 20 21  1  1  0  0  0
 20 29  1  0  0  0  0
 22 13  1  0  0  0  0
 22 23  1  1  0  0  0
 24 25  1  6  0  0  0
 24 33  1  0  0  0  0
 26 27  1  6  0  0  0
 26 35  1  0  0  0  0
 28  2  1  1  0  0  0
 28 18  1  0  0  0  0
 29 30  1  0  0  0  0
 29 39  1  6  0  0  0
 31 22  1  0  0  0  0
 31 32  1  6  0  0  0
 31 41  1  0  0  0  0
 33 34  1  1  0  0  0
 33 43  1  0  0  0  0
 35 36  1  0  0  0  0
 35 45  1  1  0  0  0
 37 28  1  0  0  0  0
 37 38  1  1  0  0  0
 39 40  1  0  0  0  0
 41 42  1  0  0  0  0
 41 49  1  1  0  0  0
 43 44  1  0  0  0  0
 43 51  1  6  0  0  0
 45 46  1  0  0  0  0
 47 37  1  0  0  0  0
 47 48  1  6  0  0  0
 49 50  1  0  0  0  0
 51 52  1  0  0  0  0
M  END
>  <CHROM.1>
-132.38132550,-71.94960958,-131.40127241,134.38421924,-175.89997650,-51.04559523
59.17082000,86.10605916,-67.86362988,-62.44256425,179.86465064,86.57606407
9.33933249,-42.25061184,14.49830866,-2.26038353,-0.82039188,-0.50086719

>  <Name>
2fd0_lig

>  <RI>
2.60878e+07

>  <Rbt.Current_Directory>
/home/itssahil/PROJECTS/Mol_Feturizer/New_Systems/rnas/2fd0

>  <Rbt.Executable>
rbdock ($Id: //depot/dev/client3/rdock/2013.1/src/exe/rbdock.cxx#4 $)

>  <Rbt.Library>
libRbt.so (2013.1, Build901 2013/11/27)

>  <Rbt.Parameter_File>
/export/apps/rDock/src/rDock_2013.1_src/data/scripts/dock_solv.prm

>  <Rbt.Receptor>
prm/blind_docking_80.prm

>  <SCORE>
-11.0985

>  <SCORE.INTER>
-19.5395

>  <SCORE.INTER.CONST>
1

>  <SCORE.INTER.POLAR>
-1.59289

>  <SCORE.INTER.ROT>
12

>  <SCORE.INTER.SOLV>
28.8352

>  <SCORE.INTER.VDW>
-28.9284

>  <SCORE.INTER.norm>
-0.37576

>  <SCORE.INTRA>
6.71744

>  <SCORE.INTRA.DIHEDRAL>
2.9849

>  <SCORE.INTRA.DIHEDRAL.0>
23.9727

>  <SCORE.INTRA.POLAR>
0

>  <SCORE.INTRA.POLAR.0>
0

>  <SCORE.INTRA.REPUL>
0

>  <SCORE.INTRA.REPUL.0>
0

>  <SCORE.INTRA.SOLV>
0.887717

>  <SCORE.INTRA.SOLV.lig_0>
-115.028

>  <SCORE.INTRA.VDW>
4.78113

>  <SCORE.INTRA.VDW.0>
-6.82393

>  <SCORE.INTRA.norm>
0.129182

>  <SCORE.RESTR>
1.72361

>  <SCORE.RESTR.CAVITY>
1.72361

>  <SCORE.RESTR.norm>
0.0331464

>  <SCORE.SYSTEM>
0

>  <SCORE.SYSTEM.CONST>
0

>  <SCORE.SYSTEM.DIHEDRAL>
0

>  <SCORE.SYSTEM.SOLV>
0

>  <SCORE.SYSTEM.norm>
0

>  <SCORE.heavy>
52

>  <SCORE.norm>
-0.213432

>  <RMSD>
15.142

$$$$
2fd0_lig
 OpenBabel11021811433D
libRbt.so/2013.1/901 2013/11/27
 52 56  0  0  0  0  0  0  0  0999 V2000
    4.0489  -43.6890   13.1203 C   0  0  2  0  0  0  0  0  0  0  0  0
    4.3899  -44.9751   12.5848 O   0  0  0  0  0  0  0  0  0  0  0  0
    6.8618  -48.0378   14.4291 C   0  0  2  0  0  0  0  0  0  0  0  0
    8.0304  -48.8478   14.8104 N   0  0  0  0  0  0  0  0  0  0  0  0
    7.1574  -43.5700   14.5373 C   0  0  1  0  0  0  0  0  0  0  0  0
    9.8385  -41.8355   15.1405 C   0  0  1  0  0  0  0  0  0  0  0  0
   12.4118  -37.1799   15.3613 C   0  0  1  0  0  0  0  0  0  0  0  0
    2.5111  -43.4476   12.9005 C   0  0  2  0  0  0  0  0  0  0  0  0
    1.7051  -44.5001   13.5033 N   0  0  0  0  0  0  0  0  0  0  0  0
    6.6842  -48.0349   12.8475 C   0  0  0  0  0  0  0  0  0  0  0  0
    8.2538  -44.0577   15.4667 C   0  0  2  0  0  0  0  0  0  0  0  0
    8.3845  -43.2225   16.6514 O   0  0  0  0  0  0  0  0  0  0  0  0
   10.1358  -40.8872   13.8868 C   0  0  2  0  0  0  0  0  0  0  0  0
   11.5857  -40.9057   13.5509 N   0  0  0  0  0  0  0  0  0  0  0  0
   11.8064  -36.6059   14.0607 C   0  0  1  0  0  0  0  0  0  0  0  0
   10.4161  -36.2709   14.2947 O   0  0  0  0  0  0  0  0  0  0  0  0
    2.1950  -43.2908   11.3668 C   0  0  0  0  0  0  0  0  0  0  0  0
    5.4048  -47.1615   12.4356 C   0  0  2  0  0  0  0  0  0  0  0  0
    5.2195  -47.1403   10.9772 N   0  0  0  0  0  0  0  0  0  0  0  0
    9.4685  -44.1195   14.5561 C   0  0  2  0  0  0  0  0  0  0  0  0
   10.3765  -43.0905   14.8414 O   0  0  0  0  0  0  0  0  0  0  0  0
    9.5185  -39.4329   14.2258 C   0  0  1  0  0  0  0  0  0  0  0  0
    8.1181  -39.6006   14.5115 O   0  0  0  0  0  0  0  0  0  0  0  0
   12.5018  -35.3672   13.4339 C   0  0  1  0  0  0  0  0  0  0  0  0
   11.8496  -34.1937   13.9357 O   0  0  0  0  0  0  0  0  0  0  0  0
    3.0859  -42.1421   10.7911 C   0  0  2  0  0  0  0  0  0  0  0  0
    2.8160  -41.9557    9.4052 O   0  0  0  0  0  0  0  0  0  0  0  0
    5.5816  -45.7140   12.9732 C   0  0  2  0  0  0  0  0  0  0  0  0
    9.0098  -43.8661   13.1002 C   0  0  2  0  0  0  0  0  0  0  0  0
    7.5945  -43.8581   13.2206 O   0  0  0  0  0  0  0  0  0  0  0  0
   10.1840  -38.7902   15.5518 C   0  0  2  0  0  0  0  0  0  0  0  0
   11.5742  -38.6254   15.2144 O   0  0  0  0  0  0  0  0  0  0  0  0
   14.0215  -35.2392   13.6885 C   0  0  2  0  0  0  0  0  0  0  0  0
   14.5920  -34.7944   12.4383 O   0  0  0  0  0  0  0  0  0  0  0  0
    4.5862  -42.4989   10.9955 C   0  0  2  0  0  0  0  0  0  0  0  0
    4.8274  -42.6672   12.4456 O   0  0  0  0  0  0  0  0  0  0  0  0
    5.8171  -45.6667   14.5138 C   0  0  2  0  0  0  0  0  0  0  0  0
    6.0103  -44.2800   14.8825 O   0  0  0  0  0  0  0  0  0  0  0  0
    9.3995  -44.9500   12.1012 C   0  0  0  0  0  0  0  0  0  0  0  0
    8.7950  -46.1725   12.5497 O   0  0  0  0  0  0  0  0  0  0  0  0
   10.0705  -39.8568   16.6246 C   0  0  1  0  0  0  0  0  0  0  0  0
   10.4153  -41.2458   16.4405 O   0  0  0  0  0  0  0  0  0  0  0  0
   14.6057  -36.5564   14.1919 C   0  0  2  0  0  0  0  0  0  0  0  0
   13.9031  -37.1417   15.3229 O   0  0  0  0  0  0  0  0  0  0  0  0
    5.4939  -41.4200   10.4963 C   0  0  0  0  0  0  0  0  0  0  0  0
    6.8110  -41.8957   10.5633 O   0  0  0  0  0  0  0  0  0  0  0  0
    7.0668  -46.5409   14.8965 C   0  0  1  0  0  0  0  0  0  0  0  0
    7.2261  -46.5144   16.3571 O   0  0  0  0  0  0  0  0  0  0  0  0
   10.7120  -39.4299   17.9923 C   0  0  0  0  0  0  0  0  0  0  0  0
   10.3084  -40.2885   19.1322 N   0  0  0  0  0  0  0  0  0  0  0  0
   16.0867  -36.7063   14.5326 C   0  0  0  0  0  0  0  0  0  0  0  0
   16.3841  -38.0858   14.9109 O   0  0  0  0  0  0  0  0  0  0  0  0
  1  2  1  6  0  0  0
  1  8  1  0  0  0  0
  1 36  1  0  0  0  0
  3  4  1  6  0  0  0
  3 10  1  0  0  0  0
  3 47  1  0  0  0  0
  5 11  1  0  0  0  0
  5 30  1  0  0  0  0
  5 38  1  1  0  0  0
  6 21  1  6  0  0  0
  6 42  1  0  0  0  0
  7 15  1  0  0  0  0
  7 44  1  0  0  0  0
  7 32  1  6  0  0  0
  8  9  1  6  0  0  0
  8 17  1  0  0  0  0
 11 12  1  1  0  0  0
 11 20  1  0  0  0  0
 13  6  1  0  0  0  0
 13 14  1  1  0  0  0
 15 16  1  1  0  0  0
 15 24  1  0  0  0  0
 17 26  1  0  0  0  0
 18 10  1  0  0  0  0
 18 19  1  6  0  0  0
 20 21  1  1  0  0  0
 20 29  1  0  0  0  0
 22 13  1  0  0  0  0
 22 23  1  1  0  0  0
 24 25  1  1  0  0  0
 24 33  1  0  0  0  0
 26 27  1  6  0  0  0
 26 35  1  0  0  0  0
 28  2  1  1  0  0  0
 28 18  1  0  0  0  0
 29 30  1  0  0  0  0
 29 39  1  6  0  0  0
 31 22  1  0  0  0  0
 31 32  1  6  0  0  0
 31 41  1  0  0  0  0
 33 34  1  6  0  0  0
 33 43  1  0  0  0  0
 35 36  1  0  0  0  0
 35 45  1  1  0  0  0
 37 28  1  0  0  0  0
 37 38  1  6  0  0  0
 39 40  1  0  0  0  0
 41 42  1  0  0  0  0
 41 49  1  1  0  0  0
 43 44  1  0  0  0  0
 43 51  1  1  0  0  0
 45 46  1  0  0  0  0
 47 37  1  0  0  0  0
 47 48  1  1  0  0  0
 49 50  1  0  0  0  0
 51 52  1  0  0  0  0
M  END
>  <CHROM.1>
-159.50615253,-75.36866665,-107.99355456,-78.35661218,-39.67353263,166.95412313
60.00288549,126.72774031,-172.59721834,-70.71080852,164.90877801,-176.60967460
8.60567434,-41.81407447,13.89861178,2.48272407,0.53316945,2.77492036

>  <Name>
2fd0_lig

>  <RI>
2.85265e+07

>  <Rbt.Current_Directory>
/home/itssahil/PROJECTS/Mol_Feturizer/New_Systems/rnas/2fd0

>  <Rbt.Executable>
rbdock ($Id: //depot/dev/client3/rdock/2013.1/src/exe/rbdock.cxx#4 $)

>  <Rbt.Library>
libRbt.so (2013.1, Build901 2013/11/27)

>  <Rbt.Parameter_File>
/export/apps/rDock/src/rDock_2013.1_src/data/scripts/dock_solv.prm

>  <Rbt.Receptor>
prm/blind_docking_60.prm

>  <SCORE>
4.89273

>  <SCORE.INTER>
-0.674412

>  <SCORE.INTER.CONST>
1

>  <SCORE.INTER.POLAR>
-1.34415

>  <SCORE.INTER.ROT>
12

>  <SCORE.INTER.SOLV>
26.424

>  <SCORE.INTER.VDW>
-16.3771

>  <SCORE.INTER.norm>
-0.0129695

>  <SCORE.INTRA>
4.43695

>  <SCORE.INTRA.DIHEDRAL>
-0.64028

>  <SCORE.INTRA.DIHEDRAL.0>
23.9727

>  <SCORE.INTRA.POLAR>
0

>  <SCORE.INTRA.POLAR.0>
0

>  <SCORE.INTRA.REPUL>
0.00234026

>  <SCORE.INTRA.REPUL.0>
0

>  <SCORE.INTRA.SOLV>
-1.17514

>  <SCORE.INTRA.SOLV.lig_0>
-115.028

>  <SCORE.INTRA.VDW>
5.33296

>  <SCORE.INTRA.VDW.0>
-6.82393

>  <SCORE.INTRA.norm>
0.085326

>  <SCORE.RESTR>
1.13019

>  <SCORE.RESTR.CAVITY>
1.13019

>  <SCORE.RESTR.norm>
0.0217345

>  <SCORE.SYSTEM>
0

>  <SCORE.SYSTEM.CONST>
0

>  <SCORE.SYSTEM.DIHEDRAL>
0

>  <SCORE.SYSTEM.SOLV>
0

>  <SCORE.SYSTEM.norm>
0

>  <SCORE.heavy>
52

>  <SCORE.norm>
0.094091

>  <RMSD>
15.143

$$$$
2fd0_lig
 OpenBabel11021811433D
libRbt.so/2013.1/901 2013/11/27
 52 56  0  0  0  0  0  0  0  0999 V2000
    5.0051  -46.8451   12.7284 C   0  0  2  0  0  0  0  0  0  0  0  0
    6.2971  -47.3153   13.1367 O   0  0  0  0  0  0  0  0  0  0  0  0
    6.1981  -47.5670   17.4748 C   0  0  2  0  0  0  0  0  0  0  0  0
    6.4232  -48.0338   18.8526 N   0  0  0  0  0  0  0  0  0  0  0  0
    8.7856  -45.4061   13.7570 C   0  0  1  0  0  0  0  0  0  0  0  0
    9.2686  -41.2203   14.0322 C   0  0  1  0  0  0  0  0  0  0  0  0
   11.7848  -36.7636   14.2493 C   0  0  1  0  0  0  0  0  0  0  0  0
    5.0285  -46.6042   11.1751 C   0  0  2  0  0  0  0  0  0  0  0  0
    5.4066  -47.8064   10.4453 N   0  0  0  0  0  0  0  0  0  0  0  0
    5.4844  -48.7018   16.6170 C   0  0  0  0  0  0  0  0  0  0  0  0
    9.0492  -44.1744   14.6038 C   0  0  2  0  0  0  0  0  0  0  0  0
    7.8324  -43.4263   14.8830 O   0  0  0  0  0  0  0  0  0  0  0  0
    9.3705  -39.8889   13.1511 C   0  0  2  0  0  0  0  0  0  0  0  0
   10.7003  -39.8025   12.4880 N   0  0  0  0  0  0  0  0  0  0  0  0
   13.2339  -36.9854   14.7380 C   0  0  1  0  0  0  0  0  0  0  0  0
   13.8851  -37.9419   13.8656 O   0  0  0  0  0  0  0  0  0  0  0  0
    5.9753  -45.3978   10.8221 C   0  0  0  0  0  0  0  0  0  0  0  0
    5.2304  -48.1872   15.1203 C   0  0  2  0  0  0  0  0  0  0  0  0
    4.5734  -49.2193   14.3048 N   0  0  0  0  0  0  0  0  0  0  0  0
   10.1176  -43.4397   13.8117 C   0  0  2  0  0  0  0  0  0  0  0  0
    9.6014  -42.2906   13.1970 O   0  0  0  0  0  0  0  0  0  0  0  0
    8.9892  -38.6459   14.1106 C   0  0  1  0  0  0  0  0  0  0  0  0
    7.6780  -38.8887   14.6518 O   0  0  0  0  0  0  0  0  0  0  0  0
   14.1491  -35.7363   14.8525 C   0  0  1  0  0  0  0  0  0  0  0  0
   14.8713  -35.6038   13.6217 O   0  0  0  0  0  0  0  0  0  0  0  0
    5.5059  -44.1449   11.6313 C   0  0  2  0  0  0  0  0  0  0  0  0
    6.3284  -43.0233   11.3253 O   0  0  0  0  0  0  0  0  0  0  0  0
    6.5896  -47.7864   14.4819 C   0  0  2  0  0  0  0  0  0  0  0  0
   10.5854  -44.3482   12.6496 C   0  0  2  0  0  0  0  0  0  0  0  0
    9.9260  -45.5740   12.9330 O   0  0  0  0  0  0  0  0  0  0  0  0
    9.9928  -38.5295   15.3730 C   0  0  2  0  0  0  0  0  0  0  0  0
   11.2822  -38.2708   14.7864 O   0  0  0  0  0  0  0  0  0  0  0  0
   13.4379  -34.3980   15.1588 C   0  0  2  0  0  0  0  0  0  0  0  0
   14.2800  -33.7165   16.1142 O   0  0  0  0  0  0  0  0  0  0  0  0
    5.5782  -44.4554   13.1539 C   0  0  2  0  0  0  0  0  0  0  0  0
    4.6994  -45.6131   13.4313 O   0  0  0  0  0  0  0  0  0  0  0  0
    7.3567  -46.7164   15.3172 C   0  0  2  0  0  0  0  0  0  0  0  0
    8.6154  -46.4621   14.6486 O   0  0  0  0  0  0  0  0  0  0  0  0
   12.0861  -44.6120   12.5985 C   0  0  0  0  0  0  0  0  0  0  0  0
   12.4249  -45.3461   13.7849 O   0  0  0  0  0  0  0  0  0  0  0  0
   10.0174  -39.9086   16.0046 C   0  0  1  0  0  0  0  0  0  0  0  0
   10.1752  -41.1430   15.2742 O   0  0  0  0  0  0  0  0  0  0  0  0
   12.0154  -34.6351   15.6587 C   0  0  2  0  0  0  0  0  0  0  0  0
   11.2118  -35.5084   14.8178 O   0  0  0  0  0  0  0  0  0  0  0  0
    5.1065  -43.3051   13.9854 C   0  0  0  0  0  0  0  0  0  0  0  0
    5.9085  -42.1950   13.6850 O   0  0  0  0  0  0  0  0  0  0  0  0
    7.5818  -47.2357   16.7842 C   0  0  1  0  0  0  0  0  0  0  0  0
    8.2595  -46.1831   17.5538 O   0  0  0  0  0  0  0  0  0  0  0  0
   10.9858  -40.0082   17.2361 C   0  0  0  0  0  0  0  0  0  0  0  0
   10.2969  -39.8991   18.5448 N   0  0  0  0  0  0  0  0  0  0  0  0
   11.0843  -33.4816   16.0253 C   0  0  0  0  0  0  0  0  0  0  0  0
    9.8500  -33.9929   16.6166 O   0  0  0  0  0  0  0  0  0  0  0  0
  1  2  1  1  0  0  0
  1  8  1  0  0  0  0
  1 36  1  0  0  0  0
  3  4  1  1  0  0  0
  3 10  1  0  0  0  0
  3 47  1  0  0  0  0
  5 11  1  0  0  0  0
  5 30  1  0  0  0  0
  5 38  1  1  0  0  0
  6 21  1  6  0  0  0
  6 42  1  0  0  0  0
  7 15  1  0  0  0  0
  7 44  1  0  0  0  0
  7 32  1  1  0  0  0
  8  9  1  6  0  0  0
  8 17  1  0  0  0  0
 11 12  1  6  0  0  0
 11 20  1  0  0  0  0
 13  6  1  0  0  0  0
 13 14  1  1  0  0  0
 15 16  1  6  0  0  0
 15 24  1  0  0  0  0
 17 26  1  0  0  0  0
 18 10  1  0  0  0  0
 18 19  1  6  0  0  0
 20 21  1  6  0  0  0
 20 29  1  0  0  0  0
 22 13  1  0  0  0  0
 22 23  1  1  0  0  0
 24 25  1  6  0  0  0
 24 33  1  0  0  0  0
 26 27  1  1  0  0  0
 26 35  1  0  0  0  0
 28  2  1  6  0  0  0
 28 18  1  0  0  0  0
 29 30  1  0  0  0  0
 29 39  1  1  0  0  0
 31 22  1  0  0  0  0
 31 32  1  6  0  0  0
 31 41  1  0  0  0  0
 33 34  1  1  0  0  0
 33 43  1  0  0  0  0
 35 36  1  0  0  0  0
 35 45  1  1  0  0  0
 37 28  1  0  0  0  0
 37 38  1  6  0  0  0
 39 40  1  0  0  0  0
 41 42  1  0  0  0  0
 41 49  1  1  0  0  0
 43 44  1  0  0  0  0
 43 51  1  6  0  0  0
 45 46  1  0  0  0  0
 47 37  1  0  0  0  0
 47 48  1  1  0  0  0
 49 50  1  0  0  0  0
 51 52  1  0  0  0  0
M  END
>  <CHROM.1>
-172.66586412,81.94847770,154.23499160,142.54072848,70.66774377,21.40043507
64.45293443,79.96248080,-58.71669686,95.44800809,99.21972958,-173.41927183
8.99716131,-42.18756025,14.42691478,2.58347888,0.97029689,2.31228141

>  <Name>
2fd0_lig

>  <RI>
2.85265e+07

>  <Rbt.Current_Directory>
/home/itssahil/PROJECTS/Mol_Feturizer/New_Systems/rnas/2fd0

>  <Rbt.Executable>
rbdock ($Id: //depot/dev/client3/rdock/2013.1/src/exe/rbdock.cxx#4 $)

>  <Rbt.Library>
libRbt.so (2013.1, Build901 2013/11/27)

>  <Rbt.Parameter_File>
/export/apps/rDock/src/rDock_2013.1_src/data/scripts/dock_solv.prm

>  <Rbt.Receptor>
prm/blind_docking_60.prm

>  <SCORE>
-6.6336

>  <SCORE.INTER>
-9.97961

>  <SCORE.INTER.CONST>
1

>  <SCORE.INTER.POLAR>
-0.203037

>  <SCORE.INTER.ROT>
12

>  <SCORE.INTER.SOLV>
26.1732

>  <SCORE.INTER.VDW>
-26.3007

>  <SCORE.INTER.norm>
-0.191916

>  <SCORE.INTRA>
2.34208

>  <SCORE.INTRA.DIHEDRAL>
2.46224

>  <SCORE.INTRA.DIHEDRAL.0>
23.9727

>  <SCORE.INTRA.POLAR>
0

>  <SCORE.INTRA.POLAR.0>
0

>  <SCORE.INTRA.REPUL>
0.00996829

>  <SCORE.INTRA.REPUL.0>
0

>  <SCORE.INTRA.SOLV>
-1.63408

>  <SCORE.INTRA.SOLV.lig_0>
-115.028

>  <SCORE.INTRA.VDW>
1.87816

>  <SCORE.INTRA.VDW.0>
-6.82393

>  <SCORE.INTRA.norm>
0.0450401

>  <SCORE.RESTR>
1.00392

>  <SCORE.RESTR.CAVITY>
1.00392

>  <SCORE.RESTR.norm>
0.0193062

>  <SCORE.SYSTEM>
0

>  <SCORE.SYSTEM.CONST>
0

>  <SCORE.SYSTEM.DIHEDRAL>
0

>  <SCORE.SYSTEM.SOLV>
0

>  <SCORE.SYSTEM.norm>
0

>  <SCORE.heavy>
52

>  <SCORE.norm>
-0.127569

>  <RMSD>
15.153

$$$$
2fd0_lig
 OpenBabel11021811433D
libRbt.so/2013.1/901 2013/11/27
 52 56  0  0  0  0  0  0  0  0999 V2000
   13.6051  -35.7821   14.6956 C   0  0  2  0  0  0  0  0  0  0  0  0
   13.2417  -34.5806   15.3894 O   0  0  0  0  0  0  0  0  0  0  0  0
   10.8614  -33.8889   18.9599 C   0  0  2  0  0  0  0  0  0  0  0  0
    9.7082  -33.7215   19.8595 N   0  0  0  0  0  0  0  0  0  0  0  0
   10.9505  -37.6780   16.8067 C   0  0  1  0  0  0  0  0  0  0  0  0
    9.2389  -40.9991   14.4761 C   0  0  1  0  0  0  0  0  0  0  0  0
    8.3026  -45.8772   14.4862 C   0  0  1  0  0  0  0  0  0  0  0  0
   14.9010  -36.3719   15.3622 C   0  0  2  0  0  0  0  0  0  0  0  0
   14.7140  -36.6209   16.7848 N   0  0  0  0  0  0  0  0  0  0  0  0
   10.7851  -32.8419   17.7637 C   0  0  0  0  0  0  0  0  0  0  0  0
   11.0449  -38.5866   15.5946 C   0  0  2  0  0  0  0  0  0  0  0  0
   10.3064  -38.0639   14.4546 O   0  0  0  0  0  0  0  0  0  0  0  0
    7.6998  -41.3567   14.2262 C   0  0  2  0  0  0  0  0  0  0  0  0
    7.1128  -42.0058   15.4301 N   0  0  0  0  0  0  0  0  0  0  0  0
    7.0083  -46.5216   13.9409 C   0  0  1  0  0  0  0  0  0  0  0  0
    7.0597  -46.5316   12.4928 O   0  0  0  0  0  0  0  0  0  0  0  0
   16.1302  -35.4241   15.1029 C   0  0  0  0  0  0  0  0  0  0  0  0
   12.0474  -33.0186   16.7917 C   0  0  2  0  0  0  0  0  0  0  0  0
   11.9996  -32.0634   15.6750 N   0  0  0  0  0  0  0  0  0  0  0  0
   10.5755  -39.9262   16.1367 C   0  0  2  0  0  0  0  0  0  0  0  0
    9.2999  -40.2549   15.6577 O   0  0  0  0  0  0  0  0  0  0  0  0
    7.6210  -42.2195   12.8622 C   0  0  1  0  0  0  0  0  0  0  0  0
    8.2177  -41.4409   11.8092 O   0  0  0  0  0  0  0  0  0  0  0  0
    6.6674  -47.9583   14.4212 C   0  0  1  0  0  0  0  0  0  0  0  0
    7.2078  -48.8823   13.4680 O   0  0  0  0  0  0  0  0  0  0  0  0
   16.2755  -35.2098   13.5609 C   0  0  2  0  0  0  0  0  0  0  0  0
   17.3913  -34.3698   13.2824 O   0  0  0  0  0  0  0  0  0  0  0  0
   12.0725  -34.4748   16.2490 C   0  0  2  0  0  0  0  0  0  0  0  0
   10.4174  -39.8115   17.6717 C   0  0  2  0  0  0  0  0  0  0  0  0
   10.9588  -38.5264   17.9416 O   0  0  0  0  0  0  0  0  0  0  0  0
    8.4777  -43.5870   12.9642 C   0  0  2  0  0  0  0  0  0  0  0  0
    7.8367  -44.3371   14.0130 O   0  0  0  0  0  0  0  0  0  0  0  0
    7.1753  -48.3427   15.8301 C   0  0  2  0  0  0  0  0  0  0  0  0
    6.1008  -49.0877   16.4440 O   0  0  0  0  0  0  0  0  0  0  0  0
   14.9744  -34.5648   13.0034 C   0  0  2  0  0  0  0  0  0  0  0  0
   13.8451  -35.4744   13.2981 O   0  0  0  0  0  0  0  0  0  0  0  0
   12.0893  -35.5423   17.3853 C   0  0  2  0  0  0  0  0  0  0  0  0
   12.0667  -36.8468   16.7578 O   0  0  0  0  0  0  0  0  0  0  0  0
   11.1990  -40.8403   18.4811 C   0  0  0  0  0  0  0  0  0  0  0  0
   10.6984  -40.7863   19.8256 O   0  0  0  0  0  0  0  0  0  0  0  0
    9.8566  -43.1713   13.4409 C   0  0  1  0  0  0  0  0  0  0  0  0
   10.1079  -42.2686   14.5382 O   0  0  0  0  0  0  0  0  0  0  0  0
    7.5889  -47.1042   16.6204 C   0  0  2  0  0  0  0  0  0  0  0  0
    8.5074  -46.2164   15.9249 O   0  0  0  0  0  0  0  0  0  0  0  0
   15.0354  -34.3658   11.5222 C   0  0  0  0  0  0  0  0  0  0  0  0
   15.3474  -35.5983   10.9313 O   0  0  0  0  0  0  0  0  0  0  0  0
   10.8515  -35.3412   18.3340 C   0  0  1  0  0  0  0  0  0  0  0  0
   10.9289  -36.3292   19.4190 O   0  0  0  0  0  0  0  0  0  0  0  0
   10.8319  -44.3840   13.6469 C   0  0  0  0  0  0  0  0  0  0  0  0
   12.2271  -43.9808   13.9473 N   0  0  0  0  0  0  0  0  0  0  0  0
    8.1386  -47.1984   18.0420 C   0  0  0  0  0  0  0  0  0  0  0  0
    8.9960  -48.3735   18.1786 O   0  0  0  0  0  0  0  0  0  0  0  0
  1  2  1  1  0  0  0
  1  8  1  0  0  0  0
  1 36  1  0  0  0  0
  3  4  1  1  0  0  0
  3 10  1  0  0  0  0
  3 47  1  0  0  0  0
  5 11  1  0  0  0  0
  5 30  1  0  0  0  0
  5 38  1  1  0  0  0
  6 21  1  1  0  0  0
  6 42  1  0  0  0  0
  7 15  1  0  0  0  0
  7 44  1  0  0  0  0
  7 32  1  1  0  0  0
  8  9  1  1  0  0  0
  8 17  1  0  0  0  0
 11 12  1  6  0  0  0
 11 20  1  0  0  0  0
 13  6  1  0  0  0  0
 13 14  1  1  0  0  0
 15 16  1  6  0  0  0
 15 24  1  0  0  0  0
 17 26  1  0  0  0  0
 18 10  1  0  0  0  0
 18 19  1  6  0  0  0
 20 21  1  6  0  0  0
 20 29  1  0  0  0  0
 22 13  1  0  0  0  0
 22 23  1  6  0  0  0
 24 25  1  6  0  0  0
 24 33  1  0  0  0  0
 26 27  1  1  0  0  0
 26 35  1  0  0  0  0
 28  2  1  1  0  0  0
 28 18  1  0  0  0  0
 29 30  1  0  0  0  0
 29 39  1  1  0  0  0
 31 22  1  0  0  0  0
 31 32  1  1  0  0  0
 31 41  1  0  0  0  0
 33 34  1  1  0  0  0
 33 43  1  0  0  0  0
 35 36  1  0  0  0  0
 35 45  1  6  0  0  0
 37 28  1  0  0  0  0
 37 38  1  6  0  0  0
 39 40  1  0  0  0  0
 41 42  1  0  0  0  0
 41 49  1  1  0  0  0
 43 44  1  0  0  0  0
 43 51  1  1  0  0  0
 45 46  1  0  0  0  0
 47 37  1  0  0  0  0
 47 48  1  1  0  0  0
 49 50  1  0  0  0  0
 51 52  1  0  0  0  0
M  END
>  <CHROM.1>
-109.49022721,154.98878063,174.69291049,-111.60445743,91.05902425,-179.80126669
-166.85248606,177.56247408,54.15990247,-109.17609916,172.75519957,37.68287023
10.69406740,-40.02809610,15.45008160,-0.73083123,-0.95075326,-2.36280252

>  <Name>
2fd0_lig

>  <RI>
0

>  <Rbt.Current_Directory>
/home/itssahil/PROJECTS/Mol_Feturizer/New_Systems/rnas/2fd0

>  <Rbt.Executable>
rbdock ($Id: //depot/dev/client3/rdock/2013.1/src/exe/rbdock.cxx#4 $)

>  <Rbt.Library>
libRbt.so (2013.1, Build901 2013/11/27)

>  <Rbt.Parameter_File>
/export/apps/rDock/src/rDock_2013.1_src/data/scripts/dock_solv.prm

>  <Rbt.Receptor>
prm/blind_docking_100.prm

>  <SCORE>
-10.0214

>  <SCORE.INTER>
-17.6181

>  <SCORE.INTER.CONST>
1

>  <SCORE.INTER.POLAR>
-0.8

>  <SCORE.INTER.ROT>
12

>  <SCORE.INTER.SOLV>
29.2309

>  <SCORE.INTER.VDW>
-30.4224

>  <SCORE.INTER.norm>
-0.338809

>  <SCORE.INTRA>
5.26561

>  <SCORE.INTRA.DIHEDRAL>
6.58765

>  <SCORE.INTRA.DIHEDRAL.0>
23.9727

>  <SCORE.INTRA.POLAR>
0

>  <SCORE.INTRA.POLAR.0>
0

>  <SCORE.INTRA.REPUL>
0

>  <SCORE.INTRA.REPUL.0>
0

>  <SCORE.INTRA.SOLV>
-2.0591

>  <SCORE.INTRA.SOLV.lig_0>
-115.028

>  <SCORE.INTRA.VDW>
3.00134

>  <SCORE.INTRA.VDW.0>
-6.82393

>  <SCORE.INTRA.norm>
0.101262

>  <SCORE.RESTR>
2.33103

>  <SCORE.RESTR.CAVITY>
2.33103

>  <SCORE.RESTR.norm>
0.0448276

>  <SCORE.SYSTEM>
0

>  <SCORE.SYSTEM.CONST>
0

>  <SCORE.SYSTEM.DIHEDRAL>
0

>  <SCORE.SYSTEM.SOLV>
0

>  <SCORE.SYSTEM.norm>
0

>  <SCORE.heavy>
52

>  <SCORE.norm>
-0.19272

>  <RMSD>
15.191

$$$$
2fd0_lig
 OpenBabel11021811433D
libRbt.so/2013.1/901 2013/11/27
 52 56  0  0  0  0  0  0  0  0999 V2000
    6.4944  -47.0675   15.7384 C   0  0  2  0  0  0  0  0  0  0  0  0
    6.9479  -46.8793   14.3908 O   0  0  0  0  0  0  0  0  0  0  0  0
    5.0072  -45.1666   10.8990 C   0  0  2  0  0  0  0  0  0  0  0  0
    4.3924  -44.1977    9.9769 N   0  0  0  0  0  0  0  0  0  0  0  0
    9.1018  -44.2153   12.0360 C   0  0  1  0  0  0  0  0  0  0  0  0
    9.6460  -40.3644   13.6380 C   0  0  1  0  0  0  0  0  0  0  0  0
   11.3496  -35.5518   15.1495 C   0  0  1  0  0  0  0  0  0  0  0  0
    7.7449  -47.0687   16.6912 C   0  0  2  0  0  0  0  0  0  0  0  0
    8.5252  -45.8458   16.5636 N   0  0  0  0  0  0  0  0  0  0  0  0
    4.2332  -45.1733   12.2896 C   0  0  0  0  0  0  0  0  0  0  0  0
    9.0922  -43.2867   13.2365 C   0  0  2  0  0  0  0  0  0  0  0  0
    7.9047  -42.4461   13.2740 O   0  0  0  0  0  0  0  0  0  0  0  0
    9.4180  -38.9673   12.8926 C   0  0  2  0  0  0  0  0  0  0  0  0
   10.6889  -38.4867   12.2849 N   0  0  0  0  0  0  0  0  0  0  0  0
   12.5865  -35.6196   14.2258 C   0  0  1  0  0  0  0  0  0  0  0  0
   12.1513  -35.5295   12.8466 O   0  0  0  0  0  0  0  0  0  0  0  0
    8.6303  -48.3434   16.4312 C   0  0  0  0  0  0  0  0  0  0  0  0
    4.8975  -46.2368   13.2880 C   0  0  2  0  0  0  0  0  0  0  0  0
    4.2017  -46.2609   14.5830 N   0  0  0  0  0  0  0  0  0  0  0  0
   10.4210  -42.5601   13.1147 C   0  0  2  0  0  0  0  0  0  0  0  0
   10.2427  -41.2284   12.7153 O   0  0  0  0  0  0  0  0  0  0  0  0
    8.7302  -37.9617   13.9540 C   0  0  1  0  0  0  0  0  0  0  0  0
    7.5174  -38.5761   14.4260 O   0  0  0  0  0  0  0  0  0  0  0  0
   13.7042  -34.5650   14.4486 C   0  0  1  0  0  0  0  0  0  0  0  0
   13.4479  -33.4587   13.5741 O   0  0  0  0  0  0  0  0  0  0  0  0
    7.7326  -49.6132   16.5938 C   0  0  2  0  0  0  0  0  0  0  0  0
    8.5031  -50.7924   16.3839 O   0  0  0  0  0  0  0  0  0  0  0  0
    6.3956  -45.8766   13.4927 C   0  0  2  0  0  0  0  0  0  0  0  0
   11.2438  -43.2187   11.9817 C   0  0  2  0  0  0  0  0  0  0  0  0
   10.4586  -44.3555   11.6522 O   0  0  0  0  0  0  0  0  0  0  0  0
    9.6627  -37.7280   15.2539 C   0  0  2  0  0  0  0  0  0  0  0  0
   10.8508  -37.0991   14.7376 O   0  0  0  0  0  0  0  0  0  0  0  0
   13.8590  -34.0329   15.8920 C   0  0  2  0  0  0  0  0  0  0  0  0
   15.2816  -33.9485   16.1279 O   0  0  0  0  0  0  0  0  0  0  0  0
    6.5632  -49.5548   15.5696 C   0  0  2  0  0  0  0  0  0  0  0  0
    5.7803  -48.3271   15.8322 O   0  0  0  0  0  0  0  0  0  0  0  0
    7.1869  -45.8004   12.1514 C   0  0  2  0  0  0  0  0  0  0  0  0
    8.5463  -45.4166   12.4688 O   0  0  0  0  0  0  0  0  0  0  0  0
   12.6338  -43.6972   12.3859 C   0  0  0  0  0  0  0  0  0  0  0  0
   13.2703  -44.1921   11.1980 O   0  0  0  0  0  0  0  0  0  0  0  0
   10.0270  -39.1143   15.7507 C   0  0  1  0  0  0  0  0  0  0  0  0
   10.4947  -40.1904   14.9108 O   0  0  0  0  0  0  0  0  0  0  0  0
   13.1270  -34.9285   16.8879 C   0  0  2  0  0  0  0  0  0  0  0  0
   11.7413  -35.2113   16.5486 O   0  0  0  0  0  0  0  0  0  0  0  0
    5.6440  -50.7277   15.6981 C   0  0  0  0  0  0  0  0  0  0  0  0
    4.6719  -50.6292   14.6926 O   0  0  0  0  0  0  0  0  0  0  0  0
    6.5099  -44.7631   11.1828 C   0  0  1  0  0  0  0  0  0  0  0  0
    7.2503  -44.7566    9.9135 O   0  0  0  0  0  0  0  0  0  0  0  0
   10.9799  -39.0943   16.9981 C   0  0  0  0  0  0  0  0  0  0  0  0
   11.0145  -40.3775   17.7408 N   0  0  0  0  0  0  0  0  0  0  0  0
   13.1086  -34.6271   18.3848 C   0  0  0  0  0  0  0  0  0  0  0  0
   12.6166  -33.2725   18.6245 O   0  0  0  0  0  0  0  0  0  0  0  0
  1  2  1  6  0  0  0
  1  8  1  0  0  0  0
  1 36  1  0  0  0  0
  3  4  1  6  0  0  0
  3 10  1  0  0  0  0
  3 47  1  0  0  0  0
  5 11  1  0  0  0  0
  5 30  1  0  0  0  0
  5 38  1  1  0  0  0
  6 21  1  6  0  0  0
  6 42  1  0  0  0  0
  7 15  1  0  0  0  0
  7 44  1  0  0  0  0
  7 32  1  1  0  0  0
  8  9  1  6  0  0  0
  8 17  1  0  0  0  0
 11 12  1  6  0  0  0
 11 20  1  0  0  0  0
 13  6  1  0  0  0  0
 13 14  1  1  0  0  0
 15 16  1  6  0  0  0
 15 24  1  0  0  0  0
 17 26  1  0  0  0  0
 18 10  1  0  0  0  0
 18 19  1  1  0  0  0
 20 21  1  6  0  0  0
 20 29  1  0  0  0  0
 22 13  1  0  0  0  0
 22 23  1  1  0  0  0
 24 25  1  6  0  0  0
 24 33  1  0  0  0  0
 26 27  1  6  0  0  0
 26 35  1  0  0  0  0
 28  2  1  1  0  0  0
 28 18  1  0  0  0  0
 29 30  1  0  0  0  0
 29 39  1  1  0  0  0
 31 22  1  0  0  0  0
 31 32  1  6  0  0  0
 31 41  1  0  0  0  0
 33 34  1  1  0  0  0
 33 43  1  0  0  0  0
 35 36  1  0  0  0  0
 35 45  1  1  0  0  0
 37 28  1  0  0  0  0
 37 38  1  1  0  0  0
 39 40  1  0  0  0  0
 41 42  1  0  0  0  0
 41 49  1  1  0  0  0
 43 44  1  0  0  0  0
 43 51  1  1  0  0  0
 45 46  1  0  0  0  0
 47 37  1  0  0  0  0
 47 48  1  6  0  0  0
 49 50  1  0  0  0  0
 51 52  1  0  0  0  0
M  END
>  <CHROM.1>
-129.31556663,102.83102743,-174.12200968,-179.09285914,69.05045497,-62.46884610
-176.28129970,116.83234334,-176.70444017,-115.82755697,162.33776192,54.68563421
9.30627954,-42.02325067,14.26287235,-2.68111719,-1.06800893,-0.95118457

>  <Name>
2fd0_lig

>  <RI>
2.60878e+07

>  <Rbt.Current_Directory>
/home/itssahil/PROJECTS/Mol_Feturizer/New_Systems/rnas/2fd0

>  <Rbt.Executable>
rbdock ($Id: //depot/dev/client3/rdock/2013.1/src/exe/rbdock.cxx#4 $)

>  <Rbt.Library>
libRbt.so (2013.1, Build901 2013/11/27)

>  <Rbt.Parameter_File>
/export/apps/rDock/src/rDock_2013.1_src/data/scripts/dock_solv.prm

>  <Rbt.Receptor>
prm/blind_docking_80.prm

>  <SCORE>
-9.95192

>  <SCORE.INTER>
-16.2548

>  <SCORE.INTER.CONST>
1

>  <SCORE.INTER.POLAR>
-1.79569

>  <SCORE.INTER.ROT>
12

>  <SCORE.INTER.SOLV>
27.5716

>  <SCORE.INTER.VDW>
-25.6414

>  <SCORE.INTER.norm>
-0.312592

>  <SCORE.INTRA>
4.87014

>  <SCORE.INTRA.DIHEDRAL>
5.69026

>  <SCORE.INTRA.DIHEDRAL.0>
23.9727

>  <SCORE.INTRA.POLAR>
0

>  <SCORE.INTRA.POLAR.0>
0

>  <SCORE.INTRA.REPUL>
0

>  <SCORE.INTRA.REPUL.0>
0

>  <SCORE.INTRA.SOLV>
-2.27247

>  <SCORE.INTRA.SOLV.lig_0>
-115.028

>  <SCORE.INTRA.VDW>
3.16125

>  <SCORE.INTRA.VDW.0>
-6.82393

>  <SCORE.INTRA.norm>
0.0936566

>  <SCORE.RESTR>
1.43272

>  <SCORE.RESTR.CAVITY>
1.43272

>  <SCORE.RESTR.norm>
0.0275522

>  <SCORE.SYSTEM>
0

>  <SCORE.SYSTEM.CONST>
0

>  <SCORE.SYSTEM.DIHEDRAL>
0

>  <SCORE.SYSTEM.SOLV>
0

>  <SCORE.SYSTEM.norm>
0

>  <SCORE.heavy>
52

>  <SCORE.norm>
-0.191383

>  <RMSD>
15.244

$$$$
2fd0_lig
 OpenBabel11021811433D
libRbt.so/2013.1/901 2013/11/27
 52 56  0  0  0  0  0  0  0  0999 V2000
   13.3994  -34.3570   17.3949 C   0  0  2  0  0  0  0  0  0  0  0  0
   13.2640  -35.5068   16.5485 O   0  0  0  0  0  0  0  0  0  0  0  0
   15.2259  -34.2864   12.8669 C   0  0  2  0  0  0  0  0  0  0  0  0
   15.8879  -34.3381   11.5532 N   0  0  0  0  0  0  0  0  0  0  0  0
   11.5418  -36.8156   14.1590 C   0  0  1  0  0  0  0  0  0  0  0  0
    8.4375  -40.1949   14.1840 C   0  0  1  0  0  0  0  0  0  0  0  0
    8.9986  -44.8885   13.9020 C   0  0  1  0  0  0  0  0  0  0  0  0
   12.5362  -34.5843   18.6890 C   0  0  2  0  0  0  0  0  0  0  0  0
   12.9190  -35.8023   19.3895 N   0  0  0  0  0  0  0  0  0  0  0  0
   16.0404  -35.1462   13.9300 C   0  0  0  0  0  0  0  0  0  0  0  0
   10.0882  -37.0277   14.5408 C   0  0  2  0  0  0  0  0  0  0  0  0
    9.9116  -37.1771   15.9777 O   0  0  0  0  0  0  0  0  0  0  0  0
    8.6036  -41.5237   15.0592 C   0  0  2  0  0  0  0  0  0  0  0  0
    9.9413  -42.1350   14.8310 N   0  0  0  0  0  0  0  0  0  0  0  0
    7.7489  -45.7442   13.5956 C   0  0  1  0  0  0  0  0  0  0  0  0
    7.8369  -46.2386   12.2363 O   0  0  0  0  0  0  0  0  0  0  0  0
   11.0036  -34.5861   18.3318 C   0  0  0  0  0  0  0  0  0  0  0  0
   15.3238  -35.0793   15.3623 C   0  0  2  0  0  0  0  0  0  0  0  0
   16.0560  -35.8689   16.3634 N   0  0  0  0  0  0  0  0  0  0  0  0
    9.6842  -38.2206   13.6909 C   0  0  2  0  0  0  0  0  0  0  0  0
    9.5351  -39.3774   14.4682 O   0  0  0  0  0  0  0  0  0  0  0  0
    7.3389  -42.4756   14.7345 C   0  0  1  0  0  0  0  0  0  0  0  0
    6.1396  -41.7338   15.0216 O   0  0  0  0  0  0  0  0  0  0  0  0
    7.4616  -46.9507   14.5298 C   0  0  1  0  0  0  0  0  0  0  0  0
    8.0669  -48.1128   13.9489 O   0  0  0  0  0  0  0  0  0  0  0  0
   10.6641  -33.2503   17.5935 C   0  0  2  0  0  0  0  0  0  0  0  0
    9.2784  -33.2046   17.2682 O   0  0  0  0  0  0  0  0  0  0  0  0
   13.8672  -35.6047   15.2281 C   0  0  2  0  0  0  0  0  0  0  0  0
   10.8332  -38.5379   12.7043 C   0  0  2  0  0  0  0  0  0  0  0  0
   11.7190  -37.4452   12.9020 O   0  0  0  0  0  0  0  0  0  0  0  0
    7.2699  -42.8722   13.1685 C   0  0  2  0  0  0  0  0  0  0  0  0
    8.4755  -43.6237   12.9330 O   0  0  0  0  0  0  0  0  0  0  0  0
    7.9509  -46.8117   15.9899 C   0  0  2  0  0  0  0  0  0  0  0  0
    6.8963  -47.3603   16.8103 O   0  0  0  0  0  0  0  0  0  0  0  0
   11.5167  -33.1447   16.2967 C   0  0  2  0  0  0  0  0  0  0  0  0
   12.9456  -33.1791   16.6794 O   0  0  0  0  0  0  0  0  0  0  0  0
   13.0427  -34.8306   14.1548 C   0  0  2  0  0  0  0  0  0  0  0  0
   11.7296  -35.4374   14.0930 O   0  0  0  0  0  0  0  0  0  0  0  0
   10.4327  -38.5700   11.2336 C   0  0  0  0  0  0  0  0  0  0  0  0
   10.0350  -39.9168   10.9351 O   0  0  0  0  0  0  0  0  0  0  0  0
    7.3617  -41.5615   12.4101 C   0  0  1  0  0  0  0  0  0  0  0  0
    8.3231  -40.5208   12.6836 O   0  0  0  0  0  0  0  0  0  0  0  0
    8.2882  -45.3600   16.3192 C   0  0  2  0  0  0  0  0  0  0  0  0
    9.1826  -44.7126   15.3724 O   0  0  0  0  0  0  0  0  0  0  0  0
   11.2643  -31.8677   15.5601 C   0  0  0  0  0  0  0  0  0  0  0  0
   11.8752  -31.9646   14.3019 O   0  0  0  0  0  0  0  0  0  0  0  0
   13.7707  -34.8970   12.7626 C   0  0  1  0  0  0  0  0  0  0  0  0
   12.9935  -34.1152   11.7910 O   0  0  0  0  0  0  0  0  0  0  0  0
    7.3570  -41.7467   10.8513 C   0  0  0  0  0  0  0  0  0  0  0  0
    6.3591  -42.7339   10.3727 N   0  0  0  0  0  0  0  0  0  0  0  0
    8.8058  -44.9419   17.6936 C   0  0  0  0  0  0  0  0  0  0  0  0
    8.4947  -43.5373   17.9482 O   0  0  0  0  0  0  0  0  0  0  0  0
  1  2  1  6  0  0  0
  1  8  1  0  0  0  0
  1 36  1  0  0  0  0
  3  4  1  6  0  0  0
  3 10  1  0  0  0  0
  3 47  1  0  0  0  0
  5 11  1  0  0  0  0
  5 30  1  0  0  0  0
  5 38  1  6  0  0  0
  6 21  1  6  0  0  0
  6 42  1  0  0  0  0
  7 15  1  0  0  0  0
  7 44  1  0  0  0  0
  7 32  1  6  0  0  0
  8  9  1  6  0  0  0
  8 17  1  0  0  0  0
 11 12  1  1  0  0  0
 11 20  1  0  0  0  0
 13  6  1  0  0  0  0
 13 14  1  6  0  0  0
 15 16  1  6  0  0  0
 15 24  1  0  0  0  0
 17 26  1  0  0  0  0
 18 10  1  0  0  0  0
 18 19  1  1  0  0  0
 20 21  1  1  0  0  0
 20 29  1  0  0  0  0
 22 13  1  0  0  0  0
 22 23  1  6  0  0  0
 24 25  1  6  0  0  0
 24 33  1  0  0  0  0
 26 27  1  6  0  0  0
 26 35  1  0  0  0  0
 28  2  1  1  0  0  0
 28 18  1  0  0  0  0
 29 30  1  0  0  0  0
 29 39  1  6  0  0  0
 31 22  1  0  0  0  0
 31 32  1  6  0  0  0
 31 41  1  0  0  0  0
 33 34  1  1  0  0  0
 33 43  1  0  0  0  0
 35 36  1  0  0  0  0
 35 45  1  1  0  0  0
 37 28  1  0  0  0  0
 37 38  1  6  0  0  0
 39 40  1  0  0  0  0
 41 42  1  0  0  0  0
 41 49  1  6  0  0  0
 43 44  1  0  0  0  0
 43 51  1  1  0  0  0
 45 46  1  0  0  0  0
 47 37  1  0  0  0  0
 47 48  1  6  0  0  0
 49 50  1  0  0  0  0
 51 52  1  0  0  0  0
M  END
>  <CHROM.1>
176.29856289,160.98559101,172.56749025,62.33123596,137.93356852,44.67635360
-89.66011576,48.78352715,-169.34223303,-40.37734974,43.30493476,-154.98908116
10.42473527,-39.06338014,14.63382898,0.15658604,1.11410101,1.48748830

>  <Name>
2fd0_lig

>  <RI>
0

>  <Rbt.Current_Directory>
/home/itssahil/PROJECTS/Mol_Feturizer/New_Systems/rnas/2fd0

>  <Rbt.Executable>
rbdock ($Id: //depot/dev/client3/rdock/2013.1/src/exe/rbdock.cxx#4 $)

>  <Rbt.Library>
libRbt.so (2013.1, Build901 2013/11/27)

>  <Rbt.Parameter_File>
/export/apps/rDock/src/rDock_2013.1_src/data/scripts/dock_solv.prm

>  <Rbt.Receptor>
prm/blind_docking_100.prm

>  <SCORE>
-8.11113

>  <SCORE.INTER>
-8.33079

>  <SCORE.INTER.CONST>
1

>  <SCORE.INTER.POLAR>
-0.58539

>  <SCORE.INTER.ROT>
12

>  <SCORE.INTER.SOLV>
26.8639

>  <SCORE.INTER.VDW>
-24.1572

>  <SCORE.INTER.norm>
-0.160207

>  <SCORE.INTRA>
-2.79729

>  <SCORE.INTRA.DIHEDRAL>
-5.77787

>  <SCORE.INTRA.DIHEDRAL.0>
23.9727

>  <SCORE.INTRA.POLAR>
0

>  <SCORE.INTRA.POLAR.0>
0

>  <SCORE.INTRA.REPUL>
0

>  <SCORE.INTRA.REPUL.0>
0

>  <SCORE.INTRA.SOLV>
0.328013

>  <SCORE.INTRA.SOLV.lig_0>
-115.028

>  <SCORE.INTRA.VDW>
-0.0723585

>  <SCORE.INTRA.VDW.0>
-6.82393

>  <SCORE.INTRA.norm>
-0.053794

>  <SCORE.RESTR>
3.01694

>  <SCORE.RESTR.CAVITY>
3.01694

>  <SCORE.RESTR.norm>
0.0580181

>  <SCORE.SYSTEM>
0

>  <SCORE.SYSTEM.CONST>
0

>  <SCORE.SYSTEM.DIHEDRAL>
0

>  <SCORE.SYSTEM.SOLV>
0

>  <SCORE.SYSTEM.norm>
0

>  <SCORE.heavy>
52

>  <SCORE.norm>
-0.155983

>  <RMSD>
15.251

$$$$
2fd0_lig
 OpenBabel11021811433D
libRbt.so/2013.1/901 2013/11/27
 52 56  0  0  0  0  0  0  0  0999 V2000
   14.0662  -36.1782   14.5623 C   0  0  2  0  0  0  0  0  0  0  0  0
   13.6884  -35.0719   15.3933 O   0  0  0  0  0  0  0  0  0  0  0  0
   10.2801  -33.1762   17.3121 C   0  0  2  0  0  0  0  0  0  0  0  0
    8.9030  -32.7481   17.6079 N   0  0  0  0  0  0  0  0  0  0  0  0
   10.8604  -37.4902   16.7864 C   0  0  1  0  0  0  0  0  0  0  0  0
    9.3285  -40.6224   13.8247 C   0  0  1  0  0  0  0  0  0  0  0  0
    8.9469  -45.8870   14.5420 C   0  0  1  0  0  0  0  0  0  0  0  0
   15.4354  -36.7494   15.0823 C   0  0  2  0  0  0  0  0  0  0  0  0
   15.3624  -37.1428   16.4825 N   0  0  0  0  0  0  0  0  0  0  0  0
   10.6989  -32.7157   15.8473 C   0  0  0  0  0  0  0  0  0  0  0  0
   11.0697  -37.9994   15.3720 C   0  0  2  0  0  0  0  0  0  0  0  0
   10.3967  -37.1711   14.3825 O   0  0  0  0  0  0  0  0  0  0  0  0
    7.9891  -41.4609   14.0749 C   0  0  2  0  0  0  0  0  0  0  0  0
    7.9297  -41.9415   15.4823 N   0  0  0  0  0  0  0  0  0  0  0  0
    7.5601  -45.9420   13.8627 C   0  0  1  0  0  0  0  0  0  0  0  0
    7.7269  -45.7663   12.4340 O   0  0  0  0  0  0  0  0  0  0  0  0
   16.5908  -35.7090   14.8387 C   0  0  0  0  0  0  0  0  0  0  0  0
   12.2023  -33.1732   15.5317 C   0  0  2  0  0  0  0  0  0  0  0  0
   12.6136  -32.7618   14.1813 N   0  0  0  0  0  0  0  0  0  0  0  0
   10.6075  -39.4441   15.4590 C   0  0  2  0  0  0  0  0  0  0  0  0
    9.3802  -39.6302   14.8079 O   0  0  0  0  0  0  0  0  0  0  0  0
    7.9230  -42.6121   12.9430 C   0  0  1  0  0  0  0  0  0  0  0  0
    7.9789  -41.9723   11.6552 O   0  0  0  0  0  0  0  0  0  0  0  0
    6.6998  -47.2136   14.0949 C   0  0  1  0  0  0  0  0  0  0  0  0
    6.9621  -48.1261   13.0213 O   0  0  0  0  0  0  0  0  0  0  0  0
   16.6157  -35.3412   13.3192 C   0  0  2  0  0  0  0  0  0  0  0  0
   17.6625  -34.4130   13.0532 O   0  0  0  0  0  0  0  0  0  0  0  0
   12.3056  -34.7174   15.6748 C   0  0  2  0  0  0  0  0  0  0  0  0
   10.3379  -39.7895   16.9431 C   0  0  2  0  0  0  0  0  0  0  0  0
   10.8165  -38.6357   17.6193 O   0  0  0  0  0  0  0  0  0  0  0  0
    9.1969  -43.6049   13.0184 C   0  0  2  0  0  0  0  0  0  0  0  0
    9.0898  -44.2322   14.3101 O   0  0  0  0  0  0  0  0  0  0  0  0
    6.9206  -47.9480   15.4375 C   0  0  2  0  0  0  0  0  0  0  0  0
    5.6058  -48.3371   15.8919 O   0  0  0  0  0  0  0  0  0  0  0  0
   15.2459  -34.7259   12.9133 C   0  0  2  0  0  0  0  0  0  0  0  0
   14.1905  -35.7257   13.1893 O   0  0  0  0  0  0  0  0  0  0  0  0
   11.8503  -35.2255   17.0767 C   0  0  2  0  0  0  0  0  0  0  0  0
   11.9494  -36.6699   17.0698 O   0  0  0  0  0  0  0  0  0  0  0  0
   11.0938  -41.0032   17.4724 C   0  0  0  0  0  0  0  0  0  0  0  0
   11.4839  -41.7855   16.3335 O   0  0  0  0  0  0  0  0  0  0  0  0
   10.4179  -42.7044   13.0184 C   0  0  1  0  0  0  0  0  0  0  0  0
   10.5717  -41.5305   13.8433 O   0  0  0  0  0  0  0  0  0  0  0  0
    7.6722  -47.0638   16.4289 C   0  0  2  0  0  0  0  0  0  0  0  0
    8.8981  -46.4755   15.9126 O   0  0  0  0  0  0  0  0  0  0  0  0
   15.1920  -34.3841   11.4581 C   0  0  0  0  0  0  0  0  0  0  0  0
   14.2067  -33.4028   11.2792 O   0  0  0  0  0  0  0  0  0  0  0  0
   10.3796  -34.7535   17.3712 C   0  0  1  0  0  0  0  0  0  0  0  0
   10.0046  -35.2053   18.7183 O   0  0  0  0  0  0  0  0  0  0  0  0
   11.7695  -43.4943   13.1345 C   0  0  0  0  0  0  0  0  0  0  0  0
   12.0785  -43.9449   14.5132 N   0  0  0  0  0  0  0  0  0  0  0  0
    8.0322  -47.5471   17.8320 C   0  0  0  0  0  0  0  0  0  0  0  0
    8.5879  -46.4499   18.6205 O   0  0  0  0  0  0  0  0  0  0  0  0
  1  2  1  1  0  0  0
  1  8  1  0  0  0  0
  1 36  1  0  0  0  0
  3  4  1  6  0  0  0
  3 10  1  0  0  0  0
  3 47  1  0  0  0  0
  5 11  1  0  0  0  0
  5 30  1  0  0  0  0
  5 38  1  1  0  0  0
  6 21  1  1  0  0  0
  6 42  1  0  0  0  0
  7 15  1  0  0  0  0
  7 44  1  0  0  0  0
  7 32  1  1  0  0  0
  8  9  1  1  0  0  0
  8 17  1  0  0  0  0
 11 12  1  6  0  0  0
 11 20  1  0  0  0  0
 13  6  1  0  0  0  0
 13 14  1  1  0  0  0
 15 16  1  6  0  0  0
 15 24  1  0  0  0  0
 17 26  1  0  0  0  0
 18 10  1  0  0  0  0
 18 19  1  6  0  0  0
 20 21  1  6  0  0  0
 20 29  1  0  0  0  0
 22 13  1  0  0  0  0
 22 23  1  6  0  0  0
 24 25  1  6  0  0  0
 24 33  1  0  0  0  0
 26 27  1  1  0  0  0
 26 35  1  0  0  0  0
 28  2  1  1  0  0  0
 28 18  1  0  0  0  0
 29 30  1  0  0  0  0
 29 39  1  1  0  0  0
 31 22  1  0  0  0  0
 31 32  1  1  0  0  0
 31 41  1  0  0  0  0
 33 34  1  1  0  0  0
 33 43  1  0  0  0  0
 35 36  1  0  0  0  0
 35 45  1  6  0  0  0
 37 28  1  0  0  0  0
 37 38  1  6  0  0  0
 39 40  1  0  0  0  0
 41 42  1  0  0  0  0
 41 49  1  1  0  0  0
 43 44  1  0  0  0  0
 43 51  1  1  0  0  0
 45 46  1  0  0  0  0
 47 37  1  0  0  0  0
 47 48  1  1  0  0  0
 49 50  1  0  0  0  0
 51 52  1  0  0  0  0
M  END
>  <CHROM.1>
-148.82338373,104.20266766,134.47958011,-65.69065553,125.35996734,-135.69607542
-20.51952534,120.31178958,-157.25739262,-95.43513600,-78.29752184,-172.62993125
10.82579504,-39.80646724,15.01340624,-0.93969394,-0.74450684,-2.68314779

>  <Name>
2fd0_lig

>  <RI>
0

>  <Rbt.Current_Directory>
/home/itssahil/PROJECTS/Mol_Feturizer/New_Systems/rnas/2fd0

>  <Rbt.Executable>
rbdock ($Id: //depot/dev/client3/rdock/2013.1/src/exe/rbdock.cxx#4 $)

>  <Rbt.Library>
libRbt.so (2013.1, Build901 2013/11/27)

>  <Rbt.Parameter_File>
/export/apps/rDock/src/rDock_2013.1_src/data/scripts/dock_solv.prm

>  <Rbt.Receptor>
prm/blind_docking_100.prm

>  <SCORE>
5.08233

>  <SCORE.INTER>
-13.7113

>  <SCORE.INTER.CONST>
1

>  <SCORE.INTER.POLAR>
-0.959166

>  <SCORE.INTER.ROT>
12

>  <SCORE.INTER.SOLV>
31.4535

>  <SCORE.INTER.VDW>
-28.0282

>  <SCORE.INTER.norm>
-0.263679

>  <SCORE.INTRA>
16.9826

>  <SCORE.INTRA.DIHEDRAL>
24.6894

>  <SCORE.INTRA.DIHEDRAL.0>
23.9727

>  <SCORE.INTRA.POLAR>
0

>  <SCORE.INTRA.POLAR.0>
0

>  <SCORE.INTRA.REPUL>
0.204623

>  <SCORE.INTRA.REPUL.0>
0

>  <SCORE.INTRA.SOLV>
3.73324

>  <SCORE.INTRA.SOLV.lig_0>
-115.028

>  <SCORE.INTRA.VDW>
1.74823

>  <SCORE.INTRA.VDW.0>
-6.82393

>  <SCORE.INTRA.norm>
0.326589

>  <SCORE.RESTR>
1.81099

>  <SCORE.RESTR.CAVITY>
1.81099

>  <SCORE.RESTR.norm>
0.0348267

>  <SCORE.SYSTEM>
0

>  <SCORE.SYSTEM.CONST>
0

>  <SCORE.SYSTEM.DIHEDRAL>
0

>  <SCORE.SYSTEM.SOLV>
0

>  <SCORE.SYSTEM.norm>
0

>  <SCORE.heavy>
52

>  <SCORE.norm>
0.0977372

>  <RMSD>
15.256

$$$$
2fd0_lig
 OpenBabel11021811433D
libRbt.so/2013.1/901 2013/11/27
 52 56  0  0  0  0  0  0  0  0999 V2000
    6.6873  -47.4917   16.5223 C   0  0  2  0  0  0  0  0  0  0  0  0
    7.2611  -47.1892   15.2432 O   0  0  0  0  0  0  0  0  0  0  0  0
    5.2029  -45.8222   11.6672 C   0  0  2  0  0  0  0  0  0  0  0  0
    4.5301  -44.9518   10.6890 N   0  0  0  0  0  0  0  0  0  0  0  0
    9.0095  -44.6253   13.9426 C   0  0  1  0  0  0  0  0  0  0  0  0
    9.6617  -40.2130   14.3300 C   0  0  1  0  0  0  0  0  0  0  0  0
   12.6311  -35.8491   13.8409 C   0  0  1  0  0  0  0  0  0  0  0  0
    7.8462  -47.8813   17.5106 C   0  0  2  0  0  0  0  0  0  0  0  0
    8.8455  -46.8274   17.6172 N   0  0  0  0  0  0  0  0  0  0  0  0
    4.4425  -45.7733   13.0645 C   0  0  0  0  0  0  0  0  0  0  0  0
    9.7546  -43.6824   13.0156 C   0  0  2  0  0  0  0  0  0  0  0  0
   11.1985  -43.7928   13.1609 O   0  0  0  0  0  0  0  0  0  0  0  0
    9.7906  -39.4048   12.9553 C   0  0  2  0  0  0  0  0  0  0  0  0
   11.1514  -39.5734   12.3766 N   0  0  0  0  0  0  0  0  0  0  0  0
   13.4615  -36.4571   14.9935 C   0  0  1  0  0  0  0  0  0  0  0  0
   14.2571  -37.5519   14.4756 O   0  0  0  0  0  0  0  0  0  0  0  0
    8.4976  -49.2474   17.0795 C   0  0  0  0  0  0  0  0  0  0  0  0
    5.1703  -46.7303   14.1247 C   0  0  2  0  0  0  0  0  0  0  0  0
    4.4882  -46.7013   15.4269 N   0  0  0  0  0  0  0  0  0  0  0  0
    9.1514  -42.3288   13.3511 C   0  0  2  0  0  0  0  0  0  0  0  0
   10.0518  -41.5297   14.0690 O   0  0  0  0  0  0  0  0  0  0  0  0
    9.3432  -37.8802   13.2492 C   0  0  1  0  0  0  0  0  0  0  0  0
    8.0093  -37.9050   13.7888 O   0  0  0  0  0  0  0  0  0  0  0  0
   14.4047  -35.5036   15.7759 C   0  0  1  0  0  0  0  0  0  0  0  0
   15.7012  -35.5686   15.1682 O   0  0  0  0  0  0  0  0  0  0  0  0
    7.3721  -50.3295   16.9951 C   0  0  2  0  0  0  0  0  0  0  0  0
    7.9249  -51.5886   16.6245 O   0  0  0  0  0  0  0  0  0  0  0  0
    6.6492  -46.2803   14.2858 C   0  0  2  0  0  0  0  0  0  0  0  0
    7.9497  -42.5439   14.3020 C   0  0  2  0  0  0  0  0  0  0  0  0
    7.8158  -43.9579   14.3135 O   0  0  0  0  0  0  0  0  0  0  0  0
   10.2787  -37.1831   14.3687 C   0  0  2  0  0  0  0  0  0  0  0  0
   11.5929  -37.1648   13.7805 O   0  0  0  0  0  0  0  0  0  0  0  0
   13.9644  -34.0234   15.8521 C   0  0  2  0  0  0  0  0  0  0  0  0
   14.2504  -33.5988   17.2028 O   0  0  0  0  0  0  0  0  0  0  0  0
    6.3083  -49.8892   15.9491 C   0  0  2  0  0  0  0  0  0  0  0  0
    5.7485  -48.5887   16.3791 O   0  0  0  0  0  0  0  0  0  0  0  0
    7.4236  -46.2556   12.9327 C   0  0  2  0  0  0  0  0  0  0  0  0
    8.7639  -45.7814   13.2064 O   0  0  0  0  0  0  0  0  0  0  0  0
    6.6324  -41.9416   13.8261 C   0  0  0  0  0  0  0  0  0  0  0  0
    6.9014  -40.5810   13.4554 O   0  0  0  0  0  0  0  0  0  0  0  0
   10.2896  -38.1398   15.5461 C   0  0  1  0  0  0  0  0  0  0  0  0
   10.5019  -39.5634   15.4447 O   0  0  0  0  0  0  0  0  0  0  0  0
   12.4975  -33.8670   15.4607 C   0  0  2  0  0  0  0  0  0  0  0  0
   12.1351  -34.4871   14.1959 O   0  0  0  0  0  0  0  0  0  0  0  0
    5.1820  -50.8679   15.8462 C   0  0  0  0  0  0  0  0  0  0  0  0
    4.4903  -50.8631   17.0657 O   0  0  0  0  0  0  0  0  0  0  0  0
    6.6848  -45.3233   11.9043 C   0  0  1  0  0  0  0  0  0  0  0  0
    7.4127  -45.3658   10.6284 O   0  0  0  0  0  0  0  0  0  0  0  0
   11.1945  -37.6513   16.7322 C   0  0  0  0  0  0  0  0  0  0  0  0
   11.0946  -38.4992   17.9448 N   0  0  0  0  0  0  0  0  0  0  0  0
   11.8070  -32.5052   15.4396 C   0  0  0  0  0  0  0  0  0  0  0  0
   11.8448  -31.8955   16.7667 O   0  0  0  0  0  0  0  0  0  0  0  0
  1  2  1  6  0  0  0
  1  8  1  0  0  0  0
  1 36  1  0  0  0  0
  3  4  1  6  0  0  0
  3 10  1  0  0  0  0
  3 47  1  0  0  0  0
  5 11  1  0  0  0  0
  5 30  1  0  0  0  0
  5 38  1  6  0  0  0
  6 21  1  6  0  0  0
  6 42  1  0  0  0  0
  7 15  1  0  0  0  0
  7 44  1  0  0  0  0
  7 32  1  1  0  0  0
  8  9  1  6  0  0  0
  8 17  1  0  0  0  0
 11 12  1  1  0  0  0
 11 20  1  0  0  0  0
 13  6  1  0  0  0  0
 13 14  1  1  0  0  0
 15 16  1  6  0  0  0
 15 24  1  0  0  0  0
 17 26  1  0  0  0  0
 18 10  1  0  0  0  0
 18 19  1  1  0  0  0
 20 21  1  1  0  0  0
 20 29  1  0  0  0  0
 22 13  1  0  0  0  0
 22 23  1  1  0  0  0
 24 25  1  6  0  0  0
 24 33  1  0  0  0  0
 26 27  1  6  0  0  0
 26 35  1  0  0  0  0
 28  2  1  1  0  0  0
 28 18  1  0  0  0  0
 29 30  1  0  0  0  0
 29 39  1  6  0  0  0
 31 22  1  0  0  0  0
 31 32  1  6  0  0  0
 31 41  1  0  0  0  0
 33 34  1  1  0  0  0
 33 43  1  0  0  0  0
 35 36  1  0  0  0  0
 35 45  1  1  0  0  0
 37 28  1  0  0  0  0
 37 38  1  1  0  0  0
 39 40  1  0  0  0  0
 41 42  1  0  0  0  0
 41 49  1  1  0  0  0
 43 44  1  0  0  0  0
 43 51  1  6  0  0  0
 45 46  1  0  0  0  0
 47 37  1  0  0  0  0
 47 48  1  6  0  0  0
 49 50  1  0  0  0  0
 51 52  1  0  0  0  0
M  END
>  <CHROM.1>
-152.69500236,-118.97381063,-74.12015691,100.61482809,174.19727756,-50.60733711
-49.67745838,136.41481395,65.68139995,-49.88032450,173.53655108,-59.86123822
9.16817004,-42.07218712,14.69836890,-2.25592591,-0.82396961,-0.53275789

>  <Name>
2fd0_lig

>  <RI>
2.60878e+07

>  <Rbt.Current_Directory>
/home/itssahil/PROJECTS/Mol_Feturizer/New_Systems/rnas/2fd0

>  <Rbt.Executable>
rbdock ($Id: //depot/dev/client3/rdock/2013.1/src/exe/rbdock.cxx#4 $)

>  <Rbt.Library>
libRbt.so (2013.1, Build901 2013/11/27)

>  <Rbt.Parameter_File>
/export/apps/rDock/src/rDock_2013.1_src/data/scripts/dock_solv.prm

>  <Rbt.Receptor>
prm/blind_docking_80.prm

>  <SCORE>
-14.7287

>  <SCORE.INTER>
-21.4869

>  <SCORE.INTER.CONST>
1

>  <SCORE.INTER.POLAR>
-1.02743

>  <SCORE.INTER.ROT>
12

>  <SCORE.INTER.SOLV>
23.8659

>  <SCORE.INTER.VDW>
-30.4551

>  <SCORE.INTER.norm>
-0.41321

>  <SCORE.INTRA>
5.58154

>  <SCORE.INTRA.DIHEDRAL>
1.62989

>  <SCORE.INTRA.DIHEDRAL.0>
23.9727

>  <SCORE.INTRA.POLAR>
0

>  <SCORE.INTRA.POLAR.0>
0

>  <SCORE.INTRA.REPUL>
0

>  <SCORE.INTRA.REPUL.0>
0

>  <SCORE.INTRA.SOLV>
-0.261231

>  <SCORE.INTRA.SOLV.lig_0>
-115.028

>  <SCORE.INTRA.VDW>
4.89721

>  <SCORE.INTRA.VDW.0>
-6.82393

>  <SCORE.INTRA.norm>
0.107337

>  <SCORE.RESTR>
1.17672

>  <SCORE.RESTR.CAVITY>
1.17672

>  <SCORE.RESTR.norm>
0.0226292

>  <SCORE.SYSTEM>
0

>  <SCORE.SYSTEM.CONST>
0

>  <SCORE.SYSTEM.DIHEDRAL>
0

>  <SCORE.SYSTEM.SOLV>
0

>  <SCORE.SYSTEM.norm>
0

>  <SCORE.heavy>
52

>  <SCORE.norm>
-0.283244

>  <RMSD>
15.278

$$$$
2fd0_lig
 OpenBabel11021811433D
libRbt.so/2013.1/901 2013/11/27
 52 56  0  0  0  0  0  0  0  0999 V2000
    6.6323  -46.5632   15.2738 C   0  0  2  0  0  0  0  0  0  0  0  0
    5.8732  -46.2777   14.0909 O   0  0  0  0  0  0  0  0  0  0  0  0
    3.8694  -43.0523   11.9757 C   0  0  2  0  0  0  0  0  0  0  0  0
    3.4727  -41.7048   11.5355 N   0  0  0  0  0  0  0  0  0  0  0  0
    8.1362  -43.8921   11.6525 C   0  0  1  0  0  0  0  0  0  0  0  0
    9.5372  -40.4637   13.6753 C   0  0  1  0  0  0  0  0  0  0  0  0
   12.1407  -36.2545   15.0941 C   0  0  1  0  0  0  0  0  0  0  0  0
    7.8931  -47.4094   14.8666 C   0  0  2  0  0  0  0  0  0  0  0  0
    8.7065  -46.7261   13.8705 N   0  0  0  0  0  0  0  0  0  0  0  0
    3.6384  -43.2117   13.5422 C   0  0  0  0  0  0  0  0  0  0  0  0
    8.2653  -43.0952   12.9378 C   0  0  2  0  0  0  0  0  0  0  0  0
    7.3322  -41.9797   12.9912 O   0  0  0  0  0  0  0  0  0  0  0  0
    9.7789  -38.9971   13.0836 C   0  0  2  0  0  0  0  0  0  0  0  0
   11.1807  -38.8522   12.6049 N   0  0  0  0  0  0  0  0  0  0  0  0
   13.5382  -36.7585   14.6690 C   0  0  1  0  0  0  0  0  0  0  0  0
   13.4702  -37.2446   13.3055 O   0  0  0  0  0  0  0  0  0  0  0  0
    7.4571  -48.8373   14.3690 C   0  0  0  0  0  0  0  0  0  0  0  0
    4.0607  -44.6832   14.0173 C   0  0  2  0  0  0  0  0  0  0  0  0
    3.8592  -44.8561   15.4635 N   0  0  0  0  0  0  0  0  0  0  0  0
    9.7407  -42.7334   12.9666 C   0  0  2  0  0  0  0  0  0  0  0  0
    9.9408  -41.3731   12.6936 O   0  0  0  0  0  0  0  0  0  0  0  0
    9.3165  -37.9393   14.2141 C   0  0  1  0  0  0  0  0  0  0  0  0
    7.9438  -38.2157   14.5460 O   0  0  0  0  0  0  0  0  0  0  0  0
   14.7199  -35.7558   14.7649 C   0  0  1  0  0  0  0  0  0  0  0  0
   14.8604  -35.1158   13.4901 O   0  0  0  0  0  0  0  0  0  0  0  0
    6.5989  -49.5126   15.4880 C   0  0  2  0  0  0  0  0  0  0  0  0
    6.1987  -50.8179   15.0829 O   0  0  0  0  0  0  0  0  0  0  0  0
    5.5514  -44.9282   13.6521 C   0  0  2  0  0  0  0  0  0  0  0  0
   10.4585  -43.4885   11.8224 C   0  0  2  0  0  0  0  0  0  0  0  0
    9.4393  -44.3497   11.3354 O   0  0  0  0  0  0  0  0  0  0  0  0
   10.1630  -38.1102   15.5811 C   0  0  2  0  0  0  0  0  0  0  0  0
   11.5200  -37.8085   15.2055 O   0  0  0  0  0  0  0  0  0  0  0  0
   14.6017  -34.6682   15.8574 C   0  0  2  0  0  0  0  0  0  0  0  0
   15.9197  -34.5500   16.4366 O   0  0  0  0  0  0  0  0  0  0  0  0
    5.3445  -48.6391   15.7762 C   0  0  2  0  0  0  0  0  0  0  0  0
    5.8033  -47.3005   16.2088 O   0  0  0  0  0  0  0  0  0  0  0  0
    5.8419  -44.7273   12.1335 C   0  0  2  0  0  0  0  0  0  0  0  0
    7.2597  -44.9380   11.9295 O   0  0  0  0  0  0  0  0  0  0  0  0
   11.6429  -44.3450   12.2558 C   0  0  0  0  0  0  0  0  0  0  0  0
   12.6053  -43.4617   12.8516 O   0  0  0  0  0  0  0  0  0  0  0  0
   10.0757  -39.5828   15.9349 C   0  0  1  0  0  0  0  0  0  0  0  0
   10.2888  -40.6645   15.0040 O   0  0  0  0  0  0  0  0  0  0  0  0
   13.5188  -35.0257   16.8719 C   0  0  2  0  0  0  0  0  0  0  0  0
   12.2300  -35.3687   16.2917 O   0  0  0  0  0  0  0  0  0  0  0  0
    4.4972  -49.2140   16.8665 C   0  0  0  0  0  0  0  0  0  0  0  0
    3.3339  -48.4379   16.9669 O   0  0  0  0  0  0  0  0  0  0  0  0
    5.4070  -43.2837   11.6866 C   0  0  1  0  0  0  0  0  0  0  0  0
    5.6469  -43.1493   10.2430 O   0  0  0  0  0  0  0  0  0  0  0  0
   10.8854  -39.9582   17.2263 C   0  0  0  0  0  0  0  0  0  0  0  0
   10.2849  -39.4357   18.4777 N   0  0  0  0  0  0  0  0  0  0  0  0
   13.1856  -34.1169   18.0530 C   0  0  0  0  0  0  0  0  0  0  0  0
   12.3977  -32.9707   17.6060 O   0  0  0  0  0  0  0  0  0  0  0  0
  1  2  1  6  0  0  0
  1  8  1  0  0  0  0
  1 36  1  0  0  0  0
  3  4  1  1  0  0  0
  3 10  1  0  0  0  0
  3 47  1  0  0  0  0
  5 11  1  0  0  0  0
  5 30  1  0  0  0  0
  5 38  1  1  0  0  0
  6 21  1  6  0  0  0
  6 42  1  0  0  0  0
  7 15  1  0  0  0  0
  7 44  1  0  0  0  0
  7 32  1  1  0  0  0
  8  9  1  6  0  0  0
  8 17  1  0  0  0  0
 11 12  1  6  0  0  0
 11 20  1  0  0  0  0
 13  6  1  0  0  0  0
 13 14  1  1  0  0  0
 15 16  1  6  0  0  0
 15 24  1  0  0  0  0
 17 26  1  0  0  0  0
 18 10  1  0  0  0  0
 18 19  1  1  0  0  0
 20 21  1  6  0  0  0
 20 29  1  0  0  0  0
 22 13  1  0  0  0  0
 22 23  1  1  0  0  0
 24 25  1  6  0  0  0
 24 33  1  0  0  0  0
 26 27  1  6  0  0  0
 26 35  1  0  0  0  0
 28  2  1  6  0  0  0
 28 18  1  0  0  0  0
 29 30  1  0  0  0  0
 29 39  1  1  0  0  0
 31 22  1  0  0  0  0
 31 32  1  6  0  0  0
 31 41  1  0  0  0  0
 33 34  1  1  0  0  0
 33 43  1  0  0  0  0
 35 36  1  0  0  0  0
 35 45  1  1  0  0  0
 37 28  1  0  0  0  0
 37 38  1  1  0  0  0
 39 40  1  0  0  0  0
 41 42  1  0  0  0  0
 41 49  1  1  0  0  0
 43 44  1  0  0  0  0
 43 51  1  1  0  0  0
 45 46  1  0  0  0  0
 47 37  1  0  0  0  0
 47 48  1  6  0  0  0
 49 50  1  0  0  0  0
 51 52  1  0  0  0  0
M  END
>  <CHROM.1>
-122.33843839,71.15704416,-176.21858707,-179.86967963,70.41513538,-103.52802208
-60.94255626,82.77935140,-174.37308671,-107.83890912,70.57169835,76.27394773
8.99283681,-41.80370061,14.32144487,-2.49067846,-0.80010499,-0.63867816

>  <Name>
2fd0_lig

>  <RI>
2.85265e+07

>  <Rbt.Current_Directory>
/home/itssahil/PROJECTS/Mol_Feturizer/New_Systems/rnas/2fd0

>  <Rbt.Executable>
rbdock ($Id: //depot/dev/client3/rdock/2013.1/src/exe/rbdock.cxx#4 $)

>  <Rbt.Library>
libRbt.so (2013.1, Build901 2013/11/27)

>  <Rbt.Parameter_File>
/export/apps/rDock/src/rDock_2013.1_src/data/scripts/dock_solv.prm

>  <Rbt.Receptor>
prm/blind_docking_60.prm

>  <SCORE>
-12.7843

>  <SCORE.INTER>
-18.4995

>  <SCORE.INTER.CONST>
1

>  <SCORE.INTER.POLAR>
-1.69719

>  <SCORE.INTER.ROT>
12

>  <SCORE.INTER.SOLV>
23.4197

>  <SCORE.INTER.VDW>
-26.0823

>  <SCORE.INTER.norm>
-0.35576

>  <SCORE.INTRA>
4.13147

>  <SCORE.INTRA.DIHEDRAL>
1.76594

>  <SCORE.INTRA.DIHEDRAL.0>
23.9727

>  <SCORE.INTRA.POLAR>
0

>  <SCORE.INTRA.POLAR.0>
0

>  <SCORE.INTRA.REPUL>
0

>  <SCORE.INTRA.REPUL.0>
0

>  <SCORE.INTRA.SOLV>
1.91264

>  <SCORE.INTRA.SOLV.lig_0>
-115.028

>  <SCORE.INTRA.VDW>
2.29218

>  <SCORE.INTRA.VDW.0>
-6.82393

>  <SCORE.INTRA.norm>
0.0794513

>  <SCORE.RESTR>
1.58374

>  <SCORE.RESTR.CAVITY>
1.58374

>  <SCORE.RESTR.norm>
0.0304565

>  <SCORE.SYSTEM>
0

>  <SCORE.SYSTEM.CONST>
0

>  <SCORE.SYSTEM.DIHEDRAL>
0

>  <SCORE.SYSTEM.SOLV>
0

>  <SCORE.SYSTEM.norm>
0

>  <SCORE.heavy>
52

>  <SCORE.norm>
-0.245852

>  <RMSD>
15.300

$$$$
2fd0_lig
 OpenBabel11021811433D
libRbt.so/2013.1/901 2013/11/27
 52 56  0  0  0  0  0  0  0  0999 V2000
    7.6414  -47.8789   15.0012 C   0  0  2  0  0  0  0  0  0  0  0  0
    6.2962  -47.4536   14.7436 O   0  0  0  0  0  0  0  0  0  0  0  0
    4.3124  -43.8956   13.2278 C   0  0  2  0  0  0  0  0  0  0  0  0
    3.8501  -42.5047   13.0917 N   0  0  0  0  0  0  0  0  0  0  0  0
    8.6357  -44.4733   12.7562 C   0  0  1  0  0  0  0  0  0  0  0  0
    9.9633  -40.8141   14.0551 C   0  0  1  0  0  0  0  0  0  0  0  0
   12.3441  -36.4222   15.2072 C   0  0  1  0  0  0  0  0  0  0  0  0
    7.6053  -49.3589   15.5303 C   0  0  2  0  0  0  0  0  0  0  0  0
    6.9399  -50.2537   14.5937 N   0  0  0  0  0  0  0  0  0  0  0  0
    3.8665  -44.4905   14.6351 C   0  0  0  0  0  0  0  0  0  0  0  0
    8.9184  -43.5267   13.9083 C   0  0  2  0  0  0  0  0  0  0  0  0
    7.9625  -42.4309   13.9690 O   0  0  0  0  0  0  0  0  0  0  0  0
   10.2474  -39.4143   13.3344 C   0  0  2  0  0  0  0  0  0  0  0  0
   11.6895  -39.2888   12.9883 N   0  0  0  0  0  0  0  0  0  0  0  0
   13.7819  -36.9379   14.9737 C   0  0  1  0  0  0  0  0  0  0  0  0
   13.8408  -37.6070   13.6897 O   0  0  0  0  0  0  0  0  0  0  0  0
    6.9344  -49.4158   16.9526 C   0  0  0  0  0  0  0  0  0  0  0  0
    4.3614  -46.0085   14.7764 C   0  0  2  0  0  0  0  0  0  0  0  0
    3.9641  -46.5816   16.0709 N   0  0  0  0  0  0  0  0  0  0  0  0
   10.3685  -43.1356   13.6790 C   0  0  2  0  0  0  0  0  0  0  0  0
   10.4778  -41.8140   13.2249 O   0  0  0  0  0  0  0  0  0  0  0  0
    9.6572  -38.2522   14.2895 C   0  0  1  0  0  0  0  0  0  0  0  0
    8.2608  -38.5234   14.5078 O   0  0  0  0  0  0  0  0  0  0  0  0
   14.9328  -35.8970   15.0282 C   0  0  1  0  0  0  0  0  0  0  0  0
   15.1717  -35.4327   13.6934 O   0  0  0  0  0  0  0  0  0  0  0  0
    7.7033  -48.4418   17.9038 C   0  0  2  0  0  0  0  0  0  0  0  0
    7.1368  -48.4778   19.2099 O   0  0  0  0  0  0  0  0  0  0  0  0
    5.9072  -46.0568   14.6223 C   0  0  2  0  0  0  0  0  0  0  0  0
   10.9421  -44.0077   12.5367 C   0  0  2  0  0  0  0  0  0  0  0  0
    9.8958  -44.9403   12.3066 O   0  0  0  0  0  0  0  0  0  0  0  0
   10.3589  -38.2554   15.7461 C   0  0  2  0  0  0  0  0  0  0  0  0
   11.7439  -37.9642   15.4803 O   0  0  0  0  0  0  0  0  0  0  0  0
   14.7011  -34.6746   15.9463 C   0  0  2  0  0  0  0  0  0  0  0  0
   15.9617  -34.4398   16.6113 O   0  0  0  0  0  0  0  0  0  0  0  0
    7.6295  -46.9963   17.3338 C   0  0  2  0  0  0  0  0  0  0  0  0
    8.2417  -46.9993   15.9867 O   0  0  0  0  0  0  0  0  0  0  0  0
    6.4001  -45.4317   13.2816 C   0  0  2  0  0  0  0  0  0  0  0  0
    7.8464  -45.4955   13.2770 O   0  0  0  0  0  0  0  0  0  0  0  0
   12.2068  -44.7835   12.8877 C   0  0  0  0  0  0  0  0  0  0  0  0
   11.7993  -45.9293   13.6507 O   0  0  0  0  0  0  0  0  0  0  0  0
   10.2532  -39.6832   16.2480 C   0  0  1  0  0  0  0  0  0  0  0  0
   10.5752  -40.8533   15.4674 O   0  0  0  0  0  0  0  0  0  0  0  0
   13.5410  -34.9225   16.9067 C   0  0  2  0  0  0  0  0  0  0  0  0
   12.3135  -35.3793   16.2742 O   0  0  0  0  0  0  0  0  0  0  0  0
    8.3789  -46.0184   18.1818 C   0  0  0  0  0  0  0  0  0  0  0  0
    9.4041  -46.7117   18.8406 O   0  0  0  0  0  0  0  0  0  0  0  0
    5.8914  -43.9490   13.1576 C   0  0  1  0  0  0  0  0  0  0  0  0
    6.3301  -43.4113   11.8623 O   0  0  0  0  0  0  0  0  0  0  0  0
   10.9288  -39.8986   17.6485 C   0  0  0  0  0  0  0  0  0  0  0  0
   10.5780  -41.1911   18.2855 N   0  0  0  0  0  0  0  0  0  0  0  0
   13.0906  -33.8716   17.9190 C   0  0  0  0  0  0  0  0  0  0  0  0
   12.4298  -32.7605   17.2383 O   0  0  0  0  0  0  0  0  0  0  0  0
  1  2  1  1  0  0  0
  1  8  1  0  0  0  0
  1 36  1  0  0  0  0
  3  4  1  1  0  0  0
  3 10  1  0  0  0  0
  3 47  1  0  0  0  0
  5 11  1  0  0  0  0
  5 30  1  0  0  0  0
  5 38  1  1  0  0  0
  6 21  1  6  0  0  0
  6 42  1  0  0  0  0
  7 15  1  0  0  0  0
  7 44  1  0  0  0  0
  7 32  1  1  0  0  0
  8  9  1  6  0  0  0
  8 17  1  0  0  0  0
 11 12  1  6  0  0  0
 11 20  1  0  0  0  0
 13  6  1  0  0  0  0
 13 14  1  1  0  0  0
 15 16  1  6  0  0  0
 15 24  1  0  0  0  0
 17 26  1  0  0  0  0
 18 10  1  0  0  0  0
 18 19  1  1  0  0  0
 20 21  1  6  0  0  0
 20 29  1  0  0  0  0
 22 13  1  0  0  0  0
 22 23  1  1  0  0  0
 24 25  1  6  0  0  0
 24 33  1  0  0  0  0
 26 27  1  1  0  0  0
 26 35  1  0  0  0  0
 28  2  1  6  0  0  0
 28 18  1  0  0  0  0
 29 30  1  0  0  0  0
 29 39  1  1  0  0  0
 31 22  1  0  0  0  0
 31 32  1  6  0  0  0
 31 41  1  0  0  0  0
 33 34  1  1  0  0  0
 33 43  1  0  0  0  0
 35 36  1  0  0  0  0
 35 45  1  1  0  0  0
 37 28  1  0  0  0  0
 37 38  1  1  0  0  0
 39 40  1  0  0  0  0
 41 42  1  0  0  0  0
 41 49  1  1  0  0  0
 43 44  1  0  0  0  0
 43 51  1  6  0  0  0
 45 46  1  0  0  0  0
 47 37  1  0  0  0  0
 47 48  1  6  0  0  0
 49 50  1  0  0  0  0
 51 52  1  0  0  0  0
M  END
>  <CHROM.1>
161.48723129,90.46724072,178.45883077,-178.22738638,59.35678164,-163.34024673
78.53685053,80.40787912,27.33346384,-141.91020595,167.11437688,71.13792455
9.54666154,-42.14844819,15.05942543,-2.31110990,-0.73542825,-0.51718857

>  <Name>
2fd0_lig

>  <RI>
2.85265e+07

>  <Rbt.Current_Directory>
/home/itssahil/PROJECTS/Mol_Feturizer/New_Systems/rnas/2fd0

>  <Rbt.Executable>
rbdock ($Id: //depot/dev/client3/rdock/2013.1/src/exe/rbdock.cxx#4 $)

>  <Rbt.Library>
libRbt.so (2013.1, Build901 2013/11/27)

>  <Rbt.Parameter_File>
/export/apps/rDock/src/rDock_2013.1_src/data/scripts/dock_solv.prm

>  <Rbt.Receptor>
prm/blind_docking_60.prm

>  <SCORE>
-11.933

>  <SCORE.INTER>
-16.5094

>  <SCORE.INTER.CONST>
1

>  <SCORE.INTER.POLAR>
-0.832116

>  <SCORE.INTER.ROT>
12

>  <SCORE.INTER.SOLV>
26.0305

>  <SCORE.INTER.VDW>
-28.5094

>  <SCORE.INTER.norm>
-0.317488

>  <SCORE.INTRA>
2.76522

>  <SCORE.INTRA.DIHEDRAL>
-3.95327

>  <SCORE.INTRA.DIHEDRAL.0>
23.9727

>  <SCORE.INTRA.POLAR>
0

>  <SCORE.INTRA.POLAR.0>
0

>  <SCORE.INTRA.REPUL>
0.00685355

>  <SCORE.INTRA.REPUL.0>
0

>  <SCORE.INTRA.SOLV>
-1.77124

>  <SCORE.INTRA.SOLV.lig_0>
-115.028

>  <SCORE.INTRA.VDW>
5.59321

>  <SCORE.INTRA.VDW.0>
-6.82393

>  <SCORE.INTRA.norm>
0.0531773

>  <SCORE.RESTR>
1.8112

>  <SCORE.RESTR.CAVITY>
1.8112

>  <SCORE.RESTR.norm>
0.0348307

>  <SCORE.SYSTEM>
0

>  <SCORE.SYSTEM.CONST>
0

>  <SCORE.SYSTEM.DIHEDRAL>
0

>  <SCORE.SYSTEM.SOLV>
0

>  <SCORE.SYSTEM.norm>
0

>  <SCORE.heavy>
52

>  <SCORE.norm>
-0.22948

>  <RMSD>
15.314

$$$$
2fd0_lig
 OpenBabel11021811433D
libRbt.so/2013.1/901 2013/11/27
 52 56  0  0  0  0  0  0  0  0999 V2000
   14.5823  -36.2787   15.7005 C   0  0  2  0  0  0  0  0  0  0  0  0
   14.4408  -35.2793   16.7194 O   0  0  0  0  0  0  0  0  0  0  0  0
   11.4415  -34.4000   19.7400 C   0  0  2  0  0  0  0  0  0  0  0  0
   10.1831  -33.9817   20.3790 N   0  0  0  0  0  0  0  0  0  0  0  0
   11.0841  -37.8745   17.1109 C   0  0  1  0  0  0  0  0  0  0  0  0
    8.5838  -41.3987   15.9395 C   0  0  1  0  0  0  0  0  0  0  0  0
    7.5433  -42.7254   12.4637 C   0  0  1  0  0  0  0  0  0  0  0  0
   15.7360  -35.8401   14.7268 C   0  0  2  0  0  0  0  0  0  0  0  0
   16.9911  -35.6269   15.4339 N   0  0  0  0  0  0  0  0  0  0  0  0
   12.0478  -33.2057   18.8802 C   0  0  0  0  0  0  0  0  0  0  0  0
   11.1078  -38.6805   15.8250 C   0  0  2  0  0  0  0  0  0  0  0  0
   10.4439  -37.9902   14.7292 O   0  0  0  0  0  0  0  0  0  0  0  0
    9.6068  -42.5276   15.4511 C   0  0  2  0  0  0  0  0  0  0  0  0
   10.0544  -42.2584   14.0574 N   0  0  0  0  0  0  0  0  0  0  0  0
    8.3461  -43.3193   11.2844 C   0  0  1  0  0  0  0  0  0  0  0  0
    7.6254  -44.4562   10.7478 O   0  0  0  0  0  0  0  0  0  0  0  0
   15.3108  -34.5607   13.9151 C   0  0  0  0  0  0  0  0  0  0  0  0
   13.4235  -33.6599   18.1943 C   0  0  2  0  0  0  0  0  0  0  0  0
   14.0039  -32.5739   17.3908 N   0  0  0  0  0  0  0  0  0  0  0  0
   10.4988  -40.0077   16.2446 C   0  0  2  0  0  0  0  0  0  0  0  0
    9.2048  -40.1643   15.7289 O   0  0  0  0  0  0  0  0  0  0  0  0
    8.8949  -43.9585   15.6894 C   0  0  1  0  0  0  0  0  0  0  0  0
    8.5428  -44.0529   17.0816 O   0  0  0  0  0  0  0  0  0  0  0  0
    8.6949  -42.3698   10.1064 C   0  0  1  0  0  0  0  0  0  0  0  0
    7.6656  -42.4970    9.1172 O   0  0  0  0  0  0  0  0  0  0  0  0
   13.9662  -34.8647   13.1773 C   0  0  2  0  0  0  0  0  0  0  0  0
   13.5555  -33.7345   12.4144 O   0  0  0  0  0  0  0  0  0  0  0  0
   13.1608  -34.9043   17.3010 C   0  0  2  0  0  0  0  0  0  0  0  0
   10.3275  -40.0101   17.7825 C   0  0  2  0  0  0  0  0  0  0  0  0
   10.9893  -38.8137   18.1676 O   0  0  0  0  0  0  0  0  0  0  0  0
    7.5154  -44.0910   14.8567 C   0  0  2  0  0  0  0  0  0  0  0  0
    7.9175  -44.0087   13.4764 O   0  0  0  0  0  0  0  0  0  0  0  0
    8.8594  -40.8746   10.4641 C   0  0  2  0  0  0  0  0  0  0  0  0
    9.9972  -40.4127    9.7035 O   0  0  0  0  0  0  0  0  0  0  0  0
   12.8721  -35.2242   14.2230 C   0  0  2  0  0  0  0  0  0  0  0  0
   13.3294  -36.4101   14.9807 O   0  0  0  0  0  0  0  0  0  0  0  0
   12.5123  -36.0850   18.0861 C   0  0  2  0  0  0  0  0  0  0  0  0
   12.2780  -37.1585   17.1433 O   0  0  0  0  0  0  0  0  0  0  0  0
   10.9895  -41.1779   18.5053 C   0  0  0  0  0  0  0  0  0  0  0  0
   10.4182  -41.2366   19.8212 O   0  0  0  0  0  0  0  0  0  0  0  0
    6.7098  -42.8522   15.1997 C   0  0  1  0  0  0  0  0  0  0  0  0
    7.2343  -41.5080   15.2062 O   0  0  0  0  0  0  0  0  0  0  0  0
    9.0145  -40.6852   11.9706 C   0  0  2  0  0  0  0  0  0  0  0  0
    7.9928  -41.3368   12.7749 O   0  0  0  0  0  0  0  0  0  0  0  0
   11.5660  -35.5618   13.5769 C   0  0  0  0  0  0  0  0  0  0  0  0
   10.5440  -35.2934   14.4984 O   0  0  0  0  0  0  0  0  0  0  0  0
   11.1730  -35.6135   18.7619 C   0  0  1  0  0  0  0  0  0  0  0  0
   10.6189  -36.7347   19.5334 O   0  0  0  0  0  0  0  0  0  0  0  0
    5.3372  -42.7768   14.4416 C   0  0  0  0  0  0  0  0  0  0  0  0
    4.8683  -41.3912   14.1968 N   0  0  0  0  0  0  0  0  0  0  0  0
    9.1833  -39.3036   12.5988 C   0  0  0  0  0  0  0  0  0  0  0  0
    8.1315  -39.0610   13.5834 O   0  0  0  0  0  0  0  0  0  0  0  0
  1  2  1  1  0  0  0
  1  8  1  0  0  0  0
  1 36  1  0  0  0  0
  3  4  1  6  0  0  0
  3 10  1  0  0  0  0
  3 47  1  0  0  0  0
  5 11  1  0  0  0  0
  5 30  1  0  0  0  0
  5 38  1  1  0  0  0
  6 21  1  6  0  0  0
  6 42  1  0  0  0  0
  7 15  1  0  0  0  0
  7 44  1  0  0  0  0
  7 32  1  1  0  0  0
  8  9  1  1  0  0  0
  8 17  1  0  0  0  0
 11 12  1  6  0  0  0
 11 20  1  0  0  0  0
 13  6  1  0  0  0  0
 13 14  1  6  0  0  0
 15 16  1  6  0  0  0
 15 24  1  0  0  0  0
 17 26  1  0  0  0  0
 18 10  1  0  0  0  0
 18 19  1  6  0  0  0
 20 21  1  6  0  0  0
 20 29  1  0  0  0  0
 22 13  1  0  0  0  0
 22 23  1  1  0  0  0
 24 25  1  6  0  0  0
 24 33  1  0  0  0  0
 26 27  1  1  0  0  0
 26 35  1  0  0  0  0
 28  2  1  1  0  0  0
 28 18  1  0  0  0  0
 29 30  1  0  0  0  0
 29 39  1  1  0  0  0
 31 22  1  0  0  0  0
 31 32  1  6  0  0  0
 31 41  1  0  0  0  0
 33 34  1  6  0  0  0
 33 43  1  0  0  0  0
 35 36  1  0  0  0  0
 35 45  1  6  0  0  0
 37 28  1  0  0  0  0
 37 38  1  6  0  0  0
 39 40  1  0  0  0  0
 41 42  1  0  0  0  0
 41 49  1  6  0  0  0
 43 44  1  0  0  0  0
 43 51  1  6  0  0  0
 45 46  1  0  0  0  0
 47 37  1  0  0  0  0
 47 48  1  1  0  0  0
 49 50  1  0  0  0  0
 51 52  1  0  0  0  0
M  END
>  <CHROM.1>
144.71896855,167.99933783,-51.37289319,177.00094266,174.18119157,-171.73936968
-163.62518693,-111.83244235,-154.28885353,-135.36334385,-150.86789692,122.59317259
10.49396978,-38.88428610,15.15262621,-0.49379490,-0.92434850,-1.71404508

>  <Name>
2fd0_lig

>  <RI>
0

>  <Rbt.Current_Directory>
/home/itssahil/PROJECTS/Mol_Feturizer/New_Systems/rnas/2fd0

>  <Rbt.Executable>
rbdock ($Id: //depot/dev/client3/rdock/2013.1/src/exe/rbdock.cxx#4 $)

>  <Rbt.Library>
libRbt.so (2013.1, Build901 2013/11/27)

>  <Rbt.Parameter_File>
/export/apps/rDock/src/rDock_2013.1_src/data/scripts/dock_solv.prm

>  <Rbt.Receptor>
prm/blind_docking_100.prm

>  <SCORE>
0.729815

>  <SCORE.INTER>
-12.1451

>  <SCORE.INTER.CONST>
1

>  <SCORE.INTER.POLAR>
-1.05305

>  <SCORE.INTER.ROT>
12

>  <SCORE.INTER.SOLV>
30.4151

>  <SCORE.INTER.VDW>
-26.3249

>  <SCORE.INTER.norm>
-0.233559

>  <SCORE.INTRA>
10.4528

>  <SCORE.INTRA.DIHEDRAL>
5.47881

>  <SCORE.INTRA.DIHEDRAL.0>
23.9727

>  <SCORE.INTRA.POLAR>
0

>  <SCORE.INTRA.POLAR.0>
0

>  <SCORE.INTRA.REPUL>
0

>  <SCORE.INTRA.REPUL.0>
0

>  <SCORE.INTRA.SOLV>
5.65532

>  <SCORE.INTRA.SOLV.lig_0>
-115.028

>  <SCORE.INTRA.VDW>
4.88575

>  <SCORE.INTRA.VDW.0>
-6.82393

>  <SCORE.INTRA.norm>
0.201016

>  <SCORE.RESTR>
2.42206

>  <SCORE.RESTR.CAVITY>
2.42206

>  <SCORE.RESTR.norm>
0.046578

>  <SCORE.SYSTEM>
0

>  <SCORE.SYSTEM.CONST>
0

>  <SCORE.SYSTEM.DIHEDRAL>
0

>  <SCORE.SYSTEM.SOLV>
0

>  <SCORE.SYSTEM.norm>
0

>  <SCORE.heavy>
52

>  <SCORE.norm>
0.0140349

>  <RMSD>
15.379

$$$$
2fd0_lig
 OpenBabel11021811433D
libRbt.so/2013.1/901 2013/11/27
 52 56  0  0  0  0  0  0  0  0999 V2000
    7.7250  -44.8183   14.3893 C   0  0  2  0  0  0  0  0  0  0  0  0
    6.5274  -44.7001   13.6090 O   0  0  0  0  0  0  0  0  0  0  0  0
    3.7843  -41.8150   11.8644 C   0  0  2  0  0  0  0  0  0  0  0  0
    3.2060  -40.5474   11.3892 N   0  0  0  0  0  0  0  0  0  0  0  0
    7.9768  -42.7605   10.7274 C   0  0  1  0  0  0  0  0  0  0  0  0
    9.7930  -39.9655   13.0482 C   0  0  1  0  0  0  0  0  0  0  0  0
   12.4442  -36.2907   14.7087 C   0  0  1  0  0  0  0  0  0  0  0  0
    8.7912  -45.6138   13.5515 C   0  0  2  0  0  0  0  0  0  0  0  0
    9.0583  -44.9773   12.2693 N   0  0  0  0  0  0  0  0  0  0  0  0
    4.1250  -41.7191   13.4161 C   0  0  0  0  0  0  0  0  0  0  0  0
    8.3824  -42.2914   12.1127 C   0  0  2  0  0  0  0  0  0  0  0  0
    7.6231  -41.1275   12.5451 O   0  0  0  0  0  0  0  0  0  0  0  0
   10.1963  -38.4500   12.7322 C   0  0  2  0  0  0  0  0  0  0  0  0
   11.6455  -38.3526   12.4072 N   0  0  0  0  0  0  0  0  0  0  0  0
   13.8106  -36.5968   15.3620 C   0  0  1  0  0  0  0  0  0  0  0  0
   14.5062  -37.5840   14.5612 O   0  0  0  0  0  0  0  0  0  0  0  0
    8.3371  -47.1091   13.3657 C   0  0  0  0  0  0  0  0  0  0  0  0
    4.7442  -43.1040   13.9337 C   0  0  2  0  0  0  0  0  0  0  0  0
    5.0707  -43.0411   15.3659 N   0  0  0  0  0  0  0  0  0  0  0  0
    9.8835  -42.0976   11.9799 C   0  0  2  0  0  0  0  0  0  0  0  0
   10.2262  -40.7385   11.9671 O   0  0  0  0  0  0  0  0  0  0  0  0
    9.7006  -37.5496   13.9790 C   0  0  1  0  0  0  0  0  0  0  0  0
    8.2855  -37.7554   14.1405 O   0  0  0  0  0  0  0  0  0  0  0  0
   14.7740  -35.4022   15.5986 C   0  0  1  0  0  0  0  0  0  0  0  0
   15.6430  -35.3044   14.4631 O   0  0  0  0  0  0  0  0  0  0  0  0
    8.0783  -47.7286   14.7778 C   0  0  2  0  0  0  0  0  0  0  0  0
    7.6819  -49.0909   14.6538 O   0  0  0  0  0  0  0  0  0  0  0  0
    6.0198  -43.4317   13.1084 C   0  0  2  0  0  0  0  0  0  0  0  0
   10.3339  -42.6444   10.6042 C   0  0  2  0  0  0  0  0  0  0  0  0
    9.1524  -43.2651   10.1181 O   0  0  0  0  0  0  0  0  0  0  0  0
   10.3928  -38.0087   15.3663 C   0  0  2  0  0  0  0  0  0  0  0  0
   11.7985  -37.7698   15.1648 O   0  0  0  0  0  0  0  0  0  0  0  0
   14.1071  -34.0274   15.8348 C   0  0  2  0  0  0  0  0  0  0  0  0
   14.8668  -33.3998   16.8909 O   0  0  0  0  0  0  0  0  0  0  0  0
    6.9669  -46.9171   15.5031 C   0  0  2  0  0  0  0  0  0  0  0  0
    7.4243  -45.5153   15.6259 O   0  0  0  0  0  0  0  0  0  0  0  0
    5.7499  -43.4801   11.5735 C   0  0  2  0  0  0  0  0  0  0  0  0
    7.0126  -43.7470   10.9174 O   0  0  0  0  0  0  0  0  0  0  0  0
   11.4397  -43.6927   10.6553 C   0  0  0  0  0  0  0  0  0  0  0  0
   12.3420  -43.3019   11.7014 O   0  0  0  0  0  0  0  0  0  0  0  0
   10.1660  -39.5057   15.4609 C   0  0  1  0  0  0  0  0  0  0  0  0
   10.3928  -40.4397   14.3846 O   0  0  0  0  0  0  0  0  0  0  0  0
   12.6244  -34.1861   16.1607 C   0  0  2  0  0  0  0  0  0  0  0  0
   11.8787  -35.0080   15.2206 O   0  0  0  0  0  0  0  0  0  0  0  0
    6.6963  -47.4390   16.8784 C   0  0  0  0  0  0  0  0  0  0  0  0
    5.3120  -47.3916   17.0958 O   0  0  0  0  0  0  0  0  0  0  0  0
    5.1299  -42.1181   11.0907 C   0  0  1  0  0  0  0  0  0  0  0  0
    4.8417  -42.2193    9.6533 O   0  0  0  0  0  0  0  0  0  0  0  0
   10.8146  -40.1506   16.7367 C   0  0  0  0  0  0  0  0  0  0  0  0
   10.6286  -41.6196   16.8204 N   0  0  0  0  0  0  0  0  0  0  0  0
   11.7222  -32.9836   16.4288 C   0  0  0  0  0  0  0  0  0  0  0  0
   10.3188  -33.3896   16.4214 O   0  0  0  0  0  0  0  0  0  0  0  0
  1  2  1  6  0  0  0
  1  8  1  0  0  0  0
  1 36  1  0  0  0  0
  3  4  1  6  0  0  0
  3 10  1  0  0  0  0
  3 47  1  0  0  0  0
  5 11  1  0  0  0  0
  5 30  1  0  0  0  0
  5 38  1  1  0  0  0
  6 21  1  6  0  0  0
  6 42  1  0  0  0  0
  7 15  1  0  0  0  0
  7 44  1  0  0  0  0
  7 32  1  1  0  0  0
  8  9  1  6  0  0  0
  8 17  1  0  0  0  0
 11 12  1  6  0  0  0
 11 20  1  0  0  0  0
 13  6  1  0  0  0  0
 13 14  1  1  0  0  0
 15 16  1  6  0  0  0
 15 24  1  0  0  0  0
 17 26  1  0  0  0  0
 18 10  1  0  0  0  0
 18 19  1  1  0  0  0
 20 21  1  6  0  0  0
 20 29  1  0  0  0  0
 22 13  1  0  0  0  0
 22 23  1  1  0  0  0
 24 25  1  6  0  0  0
 24 33  1  0  0  0  0
 26 27  1  6  0  0  0
 26 35  1  0  0  0  0
 28  2  1  1  0  0  0
 28 18  1  0  0  0  0
 29 30  1  0  0  0  0
 29 39  1  1  0  0  0
 31 22  1  0  0  0  0
 31 32  1  6  0  0  0
 31 41  1  0  0  0  0
 33 34  1  1  0  0  0
 33 43  1  0  0  0  0
 35 36  1  0  0  0  0
 35 45  1  1  0  0  0
 37 28  1  0  0  0  0
 37 38  1  6  0  0  0
 39 40  1  0  0  0  0
 41 42  1  0  0  0  0
 41 49  1  1  0  0  0
 43 44  1  0  0  0  0
 43 51  1  6  0  0  0
 45 46  1  0  0  0  0
 47 37  1  0  0  0  0
 47 48  1  6  0  0  0
 49 50  1  0  0  0  0
 51 52  1  0  0  0  0
M  END
>  <CHROM.1>
-113.79036223,61.49267573,-175.13896647,153.87250574,55.55676326,-108.63832527
-37.65847508,55.05237316,-140.40699127,-77.92338521,-178.50125556,167.59019100
9.26059043,-40.99244357,13.82121679,-2.22401308,-0.50156337,-0.15474230

>  <Name>
2fd0_lig

>  <RI>
2.60878e+07

>  <Rbt.Current_Directory>
/home/itssahil/PROJECTS/Mol_Feturizer/New_Systems/rnas/2fd0

>  <Rbt.Executable>
rbdock ($Id: //depot/dev/client3/rdock/2013.1/src/exe/rbdock.cxx#4 $)

>  <Rbt.Library>
libRbt.so (2013.1, Build901 2013/11/27)

>  <Rbt.Parameter_File>
/export/apps/rDock/src/rDock_2013.1_src/data/scripts/dock_solv.prm

>  <Rbt.Receptor>
prm/blind_docking_80.prm

>  <SCORE>
0.017706

>  <SCORE.INTER>
-9.21497

>  <SCORE.INTER.CONST>
1

>  <SCORE.INTER.POLAR>
-0.458932

>  <SCORE.INTER.ROT>
12

>  <SCORE.INTER.SOLV>
28.7299

>  <SCORE.INTER.VDW>
-25.7902

>  <SCORE.INTER.norm>
-0.177211

>  <SCORE.INTRA>
8.02145

>  <SCORE.INTRA.DIHEDRAL>
1.76209

>  <SCORE.INTRA.DIHEDRAL.0>
23.9727

>  <SCORE.INTRA.POLAR>
0

>  <SCORE.INTRA.POLAR.0>
0

>  <SCORE.INTRA.REPUL>
0

>  <SCORE.INTRA.REPUL.0>
0

>  <SCORE.INTRA.SOLV>
4.71731

>  <SCORE.INTRA.SOLV.lig_0>
-115.028

>  <SCORE.INTRA.VDW>
4.78175

>  <SCORE.INTRA.VDW.0>
-6.82393

>  <SCORE.INTRA.norm>
0.154259

>  <SCORE.RESTR>
1.21122

>  <SCORE.RESTR.CAVITY>
1.21122

>  <SCORE.RESTR.norm>
0.0232927

>  <SCORE.SYSTEM>
0

>  <SCORE.SYSTEM.CONST>
0

>  <SCORE.SYSTEM.DIHEDRAL>
0

>  <SCORE.SYSTEM.SOLV>
0

>  <SCORE.SYSTEM.norm>
0

>  <SCORE.heavy>
52

>  <SCORE.norm>
0.0003405

>  <RMSD>
15.411

$$$$
2fd0_lig
 OpenBabel11021811433D
libRbt.so/2013.1/901 2013/11/27
 52 56  0  0  0  0  0  0  0  0999 V2000
    8.1843  -47.2607   16.1716 C   0  0  2  0  0  0  0  0  0  0  0  0
    6.7551  -47.1656   16.2462 O   0  0  0  0  0  0  0  0  0  0  0  0
    5.1035  -47.2641   12.2268 C   0  0  2  0  0  0  0  0  0  0  0  0
    4.2482  -46.9890   11.0607 N   0  0  0  0  0  0  0  0  0  0  0  0
    8.1045  -44.1573   13.6015 C   0  0  1  0  0  0  0  0  0  0  0  0
    9.5311  -40.1965   13.7760 C   0  0  1  0  0  0  0  0  0  0  0  0
   12.5162  -35.8022   13.9254 C   0  0  1  0  0  0  0  0  0  0  0  0
    8.6745  -48.2860   17.2578 C   0  0  2  0  0  0  0  0  0  0  0  0
    8.0502  -49.5912   17.0926 N   0  0  0  0  0  0  0  0  0  0  0  0
    4.2272  -47.8110   13.4376 C   0  0  0  0  0  0  0  0  0  0  0  0
    8.3683  -42.8982   14.4069 C   0  0  2  0  0  0  0  0  0  0  0  0
    7.3761  -41.8638   14.1541 O   0  0  0  0  0  0  0  0  0  0  0  0
    9.7456  -39.0831   12.6474 C   0  0  2  0  0  0  0  0  0  0  0  0
   11.1134  -39.1832   12.0690 N   0  0  0  0  0  0  0  0  0  0  0  0
   13.5575  -36.2743   14.9649 C   0  0  1  0  0  0  0  0  0  0  0  0
   14.3959  -37.2924   14.3645 O   0  0  0  0  0  0  0  0  0  0  0  0
    8.4299  -47.7122   18.7026 C   0  0  0  0  0  0  0  0  0  0  0  0
    5.1620  -48.1204   14.7024 C   0  0  2  0  0  0  0  0  0  0  0  0
    4.3754  -48.6252   15.8374 N   0  0  0  0  0  0  0  0  0  0  0  0
    9.8013  -42.5530   14.0384 C   0  0  2  0  0  0  0  0  0  0  0  0
    9.8597  -41.4286   13.2035 O   0  0  0  0  0  0  0  0  0  0  0  0
    9.3698  -37.6545   13.3023 C   0  0  1  0  0  0  0  0  0  0  0  0
    8.0200  -37.7335   13.7952 O   0  0  0  0  0  0  0  0  0  0  0  0
   14.4825  -35.1958   15.5913 C   0  0  1  0  0  0  0  0  0  0  0  0
   15.6845  -35.1390   14.8128 O   0  0  0  0  0  0  0  0  0  0  0  0
    9.1334  -46.3200   18.8098 C   0  0  2  0  0  0  0  0  0  0  0  0
    8.9505  -45.7737   20.1122 O   0  0  0  0  0  0  0  0  0  0  0  0
    5.9149  -46.8228   15.1088 C   0  0  2  0  0  0  0  0  0  0  0  0
   10.3908  -43.7132   13.2012 C   0  0  2  0  0  0  0  0  0  0  0  0
    9.3743  -44.7017   13.2868 O   0  0  0  0  0  0  0  0  0  0  0  0
   10.3045  -37.3113   14.5762 C   0  0  2  0  0  0  0  0  0  0  0  0
   11.6359  -37.2256   14.0343 O   0  0  0  0  0  0  0  0  0  0  0  0
   13.8907  -33.7713   15.6979 C   0  0  2  0  0  0  0  0  0  0  0  0
   14.3052  -33.2705   16.9878 O   0  0  0  0  0  0  0  0  0  0  0  0
    8.5394  -45.3566   17.7427 C   0  0  2  0  0  0  0  0  0  0  0  0
    8.7645  -45.9517   16.4068 O   0  0  0  0  0  0  0  0  0  0  0  0
    6.7444  -46.2141   13.9373 C   0  0  2  0  0  0  0  0  0  0  0  0
    7.3571  -44.9960   14.4243 O   0  0  0  0  0  0  0  0  0  0  0  0
   11.6854  -44.3090   13.7427 C   0  0  0  0  0  0  0  0  0  0  0  0
   12.6311  -43.2341   13.8491 O   0  0  0  0  0  0  0  0  0  0  0  0
   10.2281  -38.5278   15.4794 C   0  0  1  0  0  0  0  0  0  0  0  0
   10.3685  -39.8923   15.0317 O   0  0  0  0  0  0  0  0  0  0  0  0
   12.3764  -33.7912   15.5085 C   0  0  2  0  0  0  0  0  0  0  0  0
   11.9205  -34.4915   14.3180 O   0  0  0  0  0  0  0  0  0  0  0  0
    9.1974  -44.0136   17.7691 C   0  0  0  0  0  0  0  0  0  0  0  0
    8.8421  -43.3800   18.9683 O   0  0  0  0  0  0  0  0  0  0  0  0
    5.8111  -45.9325   12.7036 C   0  0  1  0  0  0  0  0  0  0  0  0
    6.6344  -45.4095   11.6044 O   0  0  0  0  0  0  0  0  0  0  0  0
   11.1194  -38.4009   16.7654 C   0  0  0  0  0  0  0  0  0  0  0  0
   10.7173  -37.2888   17.6603 N   0  0  0  0  0  0  0  0  0  0  0  0
   11.5387  -32.5152   15.5554 C   0  0  0  0  0  0  0  0  0  0  0  0
   10.2439  -32.7798   16.1783 O   0  0  0  0  0  0  0  0  0  0  0  0
  1  2  1  1  0  0  0
  1  8  1  0  0  0  0
  1 36  1  0  0  0  0
  3  4  1  6  0  0  0
  3 10  1  0  0  0  0
  3 47  1  0  0  0  0
  5 11  1  0  0  0  0
  5 30  1  0  0  0  0
  5 38  1  1  0  0  0
  6 21  1  6  0  0  0
  6 42  1  0  0  0  0
  7 15  1  0  0  0  0
  7 44  1  0  0  0  0
  7 32  1  1  0  0  0
  8  9  1  1  0  0  0
  8 17  1  0  0  0  0
 11 12  1  6  0  0  0
 11 20  1  0  0  0  0
 13  6  1  0  0  0  0
 13 14  1  1  0  0  0
 15 16  1  6  0  0  0
 15 24  1  0  0  0  0
 17 26  1  0  0  0  0
 18 10  1  0  0  0  0
 18 19  1  1  0  0  0
 20 21  1  6  0  0  0
 20 29  1  0  0  0  0
 22 13  1  0  0  0  0
 22 23  1  1  0  0  0
 24 25  1  6  0  0  0
 24 33  1  0  0  0  0
 26 27  1  1  0  0  0
 26 35  1  0  0  0  0
 28  2  1  1  0  0  0
 28 18  1  0  0  0  0
 29 30  1  0  0  0  0
 29 39  1  1  0  0  0
 31 22  1  0  0  0  0
 31 32  1  6  0  0  0
 31 41  1  0  0  0  0
 33 34  1  1  0  0  0
 33 43  1  0  0  0  0
 35 36  1  0  0  0  0
 35 45  1  6  0  0  0
 37 28  1  0  0  0  0
 37 38  1  1  0  0  0
 39 40  1  0  0  0  0
 41 42  1  0  0  0  0
 41 49  1  1  0  0  0
 43 44  1  0  0  0  0
 43 51  1  6  0  0  0
 45 46  1  0  0  0  0
 47 37  1  0  0  0  0
 47 48  1  6  0  0  0
 49 50  1  0  0  0  0
 51 52  1  0  0  0  0
M  END
>  <CHROM.1>
-151.98090881,170.69148407,177.23841464,113.00320375,69.77776961,108.63862681
-56.73596461,111.35810827,-68.25952132,-175.98839052,62.67052510,-144.14133761
9.53137072,-41.68785048,15.02847147,-2.40212327,-0.94539710,-0.73416845

>  <Name>
2fd0_lig

>  <RI>
2.60878e+07

>  <Rbt.Current_Directory>
/home/itssahil/PROJECTS/Mol_Feturizer/New_Systems/rnas/2fd0

>  <Rbt.Executable>
rbdock ($Id: //depot/dev/client3/rdock/2013.1/src/exe/rbdock.cxx#4 $)

>  <Rbt.Library>
libRbt.so (2013.1, Build901 2013/11/27)

>  <Rbt.Parameter_File>
/export/apps/rDock/src/rDock_2013.1_src/data/scripts/dock_solv.prm

>  <Rbt.Receptor>
prm/blind_docking_80.prm

>  <SCORE>
-19.4047

>  <SCORE.INTER>
-22.6636

>  <SCORE.INTER.CONST>
1

>  <SCORE.INTER.POLAR>
-0.925317

>  <SCORE.INTER.ROT>
12

>  <SCORE.INTER.SOLV>
19.5576

>  <SCORE.INTER.VDW>
-30.1438

>  <SCORE.INTER.norm>
-0.435838

>  <SCORE.INTRA>
2.25458

>  <SCORE.INTRA.DIHEDRAL>
5.1513

>  <SCORE.INTRA.DIHEDRAL.0>
23.9727

>  <SCORE.INTRA.POLAR>
0

>  <SCORE.INTRA.POLAR.0>
0

>  <SCORE.INTRA.REPUL>
0

>  <SCORE.INTRA.REPUL.0>
0

>  <SCORE.INTRA.SOLV>
-3.41409

>  <SCORE.INTRA.SOLV.lig_0>
-115.028

>  <SCORE.INTRA.VDW>
1.38597

>  <SCORE.INTRA.VDW.0>
-6.82393

>  <SCORE.INTRA.norm>
0.0433572

>  <SCORE.RESTR>
1.0043

>  <SCORE.RESTR.CAVITY>
1.0043

>  <SCORE.RESTR.norm>
0.0193135

>  <SCORE.SYSTEM>
0

>  <SCORE.SYSTEM.CONST>
0

>  <SCORE.SYSTEM.DIHEDRAL>
0

>  <SCORE.SYSTEM.SOLV>
0

>  <SCORE.SYSTEM.norm>
0

>  <SCORE.heavy>
52

>  <SCORE.norm>
-0.373167

>  <RMSD>
15.446

$$$$
2fd0_lig
 OpenBabel11021811433D
libRbt.so/2013.1/901 2013/11/27
 52 56  0  0  0  0  0  0  0  0999 V2000
    7.2646  -48.7164   16.0474 C   0  0  2  0  0  0  0  0  0  0  0  0
    7.6641  -47.4030   15.6323 O   0  0  0  0  0  0  0  0  0  0  0  0
    8.6585  -44.3169   18.5270 C   0  0  2  0  0  0  0  0  0  0  0  0
    9.4280  -43.4293   19.4142 N   0  0  0  0  0  0  0  0  0  0  0  0
    9.0294  -43.6305   14.1412 C   0  0  1  0  0  0  0  0  0  0  0  0
   10.4703  -40.7241   13.6664 C   0  0  1  0  0  0  0  0  0  0  0  0
   12.2817  -36.8632   16.3935 C   0  0  1  0  0  0  0  0  0  0  0  0
    6.9641  -49.5760   14.7658 C   0  0  2  0  0  0  0  0  0  0  0  0
    8.1104  -49.6325   13.8694 N   0  0  0  0  0  0  0  0  0  0  0  0
    8.9376  -45.8404   18.8929 C   0  0  0  0  0  0  0  0  0  0  0  0
   10.5453  -43.5881   14.0771 C   0  0  2  0  0  0  0  0  0  0  0  0
   11.1295  -42.9572   15.2513 O   0  0  0  0  0  0  0  0  0  0  0  0
   10.4954  -39.3121   12.9147 C   0  0  2  0  0  0  0  0  0  0  0  0
   11.8973  -38.8608   12.6990 N   0  0  0  0  0  0  0  0  0  0  0  0
   11.3433  -35.6436   16.5335 C   0  0  1  0  0  0  0  0  0  0  0  0
   10.0911  -36.0763   17.1204 O   0  0  0  0  0  0  0  0  0  0  0  0
    5.6856  -49.0306   14.0279 C   0  0  0  0  0  0  0  0  0  0  0  0
    8.0902  -46.8047   17.9329 C   0  0  2  0  0  0  0  0  0  0  0  0
    8.3325  -48.2201   18.2488 N   0  0  0  0  0  0  0  0  0  0  0  0
   10.8102  -42.9006   12.7484 C   0  0  2  0  0  0  0  0  0  0  0  0
   11.2820  -41.5935   12.9322 O   0  0  0  0  0  0  0  0  0  0  0  0
    9.5606  -38.3002   13.7591 C   0  0  1  0  0  0  0  0  0  0  0  0
    8.2495  -38.8852   13.8584 O   0  0  0  0  0  0  0  0  0  0  0  0
   11.8646  -34.4301   17.3500 C   0  0  1  0  0  0  0  0  0  0  0  0
   11.4212  -34.5858   18.7040 O   0  0  0  0  0  0  0  0  0  0  0  0
    4.4978  -49.0068   15.0444 C   0  0  2  0  0  0  0  0  0  0  0  0
    3.3138  -48.5352   14.4088 O   0  0  0  0  0  0  0  0  0  0  0  0
    8.4710  -46.5141   16.4544 C   0  0  2  0  0  0  0  0  0  0  0  0
    9.4680  -42.7469   11.9938 C   0  0  2  0  0  0  0  0  0  0  0  0
    8.5707  -43.4879   12.8082 O   0  0  0  0  0  0  0  0  0  0  0  0
   10.0941  -38.1090   15.2734 C   0  0  2  0  0  0  0  0  0  0  0  0
   11.3944  -37.5082   15.1249 O   0  0  0  0  0  0  0  0  0  0  0  0
   13.3961  -34.2174   17.3492 C   0  0  2  0  0  0  0  0  0  0  0  0
   13.5935  -32.7919   17.2251 O   0  0  0  0  0  0  0  0  0  0  0  0
    4.8603  -48.0830   16.2423 C   0  0  2  0  0  0  0  0  0  0  0  0
    6.0828  -48.6162   16.8831 O   0  0  0  0  0  0  0  0  0  0  0  0
    8.2697  -45.0187   16.0618 C   0  0  2  0  0  0  0  0  0  0  0  0
    8.6975  -44.8678   14.6869 O   0  0  0  0  0  0  0  0  0  0  0  0
    9.4434  -43.3412   10.5900 C   0  0  0  0  0  0  0  0  0  0  0  0
   10.5930  -42.8317    9.8972 O   0  0  0  0  0  0  0  0  0  0  0  0
   10.2701  -39.5112   15.8252 C   0  0  1  0  0  0  0  0  0  0  0  0
   10.9296  -40.5899   15.1299 O   0  0  0  0  0  0  0  0  0  0  0  0
   14.0610  -35.0248   16.2377 C   0  0  2  0  0  0  0  0  0  0  0  0
   13.6985  -36.4331   16.2074 O   0  0  0  0  0  0  0  0  0  0  0  0
    3.7757  -48.0452   17.2716 C   0  0  0  0  0  0  0  0  0  0  0  0
    2.6375  -47.4774   16.6818 O   0  0  0  0  0  0  0  0  0  0  0  0
    9.0976  -44.0911   17.0245 C   0  0  1  0  0  0  0  0  0  0  0  0
    8.8428  -42.6911   16.6580 O   0  0  0  0  0  0  0  0  0  0  0  0
   10.8328  -39.5336   17.2906 C   0  0  0  0  0  0  0  0  0  0  0  0
   10.7893  -40.8739   17.9239 N   0  0  0  0  0  0  0  0  0  0  0  0
   15.5720  -35.0061   16.0176 C   0  0  0  0  0  0  0  0  0  0  0  0
   15.9366  -35.8961   14.9178 O   0  0  0  0  0  0  0  0  0  0  0  0
  1  2  1  6  0  0  0
  1  8  1  0  0  0  0
  1 36  1  0  0  0  0
  3  4  1  1  0  0  0
  3 10  1  0  0  0  0
  3 47  1  0  0  0  0
  5 11  1  0  0  0  0
  5 30  1  0  0  0  0
  5 38  1  6  0  0  0
  6 21  1  6  0  0  0
  6 42  1  0  0  0  0
  7 15  1  0  0  0  0
  7 44  1  0  0  0  0
  7 32  1  6  0  0  0
  8  9  1  6  0  0  0
  8 17  1  0  0  0  0
 11 12  1  1  0  0  0
 11 20  1  0  0  0  0
 13  6  1  0  0  0  0
 13 14  1  1  0  0  0
 15 16  1  1  0  0  0
 15 24  1  0  0  0  0
 17 26  1  0  0  0  0
 18 10  1  0  0  0  0
 18 19  1  1  0  0  0
 20 21  1  1  0  0  0
 20 29  1  0  0  0  0
 22 13  1  0  0  0  0
 22 23  1  1  0  0  0
 24 25  1  1  0  0  0
 24 33  1  0  0  0  0
 26 27  1  6  0  0  0
 26 35  1  0  0  0  0
 28  2  1  6  0  0  0
 28 18  1  0  0  0  0
 29 30  1  0  0  0  0
 29 39  1  6  0  0  0
 31 22  1  0  0  0  0
 31 32  1  6  0  0  0
 31 41  1  0  0  0  0
 33 34  1  6  0  0  0
 33 43  1  0  0  0  0
 35 36  1  0  0  0  0
 35 45  1  1  0  0  0
 37 28  1  0  0  0  0
 37 38  1  6  0  0  0
 39 40  1  0  0  0  0
 41 42  1  0  0  0  0
 41 49  1  1  0  0  0
 43 44  1  0  0  0  0
 43 51  1  1  0  0  0
 45 46  1  0  0  0  0
 47 37  1  0  0  0  0
 47 48  1  6  0  0  0
 49 50  1  0  0  0  0
 51 52  1  0  0  0  0
M  END
>  <CHROM.1>
-156.44033405,103.44291472,-138.05104975,-71.91564843,-57.54725931,-32.69455089
-50.70435770,169.32720687,-63.80162340,-160.44323913,170.01618757,178.28116383
9.55932802,-42.11872794,15.50103642,2.77855513,-1.04163787,-1.95510110

>  <Name>
2fd0_lig

>  <RI>
0

>  <Rbt.Current_Directory>
/home/itssahil/PROJECTS/Mol_Feturizer/New_Systems/rnas/2fd0

>  <Rbt.Executable>
rbdock ($Id: //depot/dev/client3/rdock/2013.1/src/exe/rbdock.cxx#4 $)

>  <Rbt.Library>
libRbt.so (2013.1, Build901 2013/11/27)

>  <Rbt.Parameter_File>
/export/apps/rDock/src/rDock_2013.1_src/data/scripts/dock_solv.prm

>  <Rbt.Receptor>
prm/blind_docking_100.prm

>  <SCORE>
-3.84993

>  <SCORE.INTER>
-15.7022

>  <SCORE.INTER.CONST>
1

>  <SCORE.INTER.POLAR>
-0.682917

>  <SCORE.INTER.ROT>
12

>  <SCORE.INTER.SOLV>
30.8459

>  <SCORE.INTER.VDW>
-30.0737

>  <SCORE.INTER.norm>
-0.301965

>  <SCORE.INTRA>
9.53603

>  <SCORE.INTRA.DIHEDRAL>
-1.70276

>  <SCORE.INTRA.DIHEDRAL.0>
23.9727

>  <SCORE.INTRA.POLAR>
0

>  <SCORE.INTRA.POLAR.0>
0

>  <SCORE.INTRA.REPUL>
0

>  <SCORE.INTRA.REPUL.0>
0

>  <SCORE.INTRA.SOLV>
3.09522

>  <SCORE.INTRA.SOLV.lig_0>
-115.028

>  <SCORE.INTRA.VDW>
8.8398

>  <SCORE.INTRA.VDW.0>
-6.82393

>  <SCORE.INTRA.norm>
0.183385

>  <SCORE.RESTR>
2.31623

>  <SCORE.RESTR.CAVITY>
2.31623

>  <SCORE.RESTR.norm>
0.044543

>  <SCORE.SYSTEM>
0

>  <SCORE.SYSTEM.CONST>
0

>  <SCORE.SYSTEM.DIHEDRAL>
0

>  <SCORE.SYSTEM.SOLV>
0

>  <SCORE.SYSTEM.norm>
0

>  <SCORE.heavy>
52

>  <SCORE.norm>
-0.0740371

>  <RMSD>
15.447

$$$$
2fd0_lig
 OpenBabel11021811433D
libRbt.so/2013.1/901 2013/11/27
 52 56  0  0  0  0  0  0  0  0999 V2000
   13.6376  -34.4263   17.1195 C   0  0  2  0  0  0  0  0  0  0  0  0
   13.6413  -35.5576   16.2380 O   0  0  0  0  0  0  0  0  0  0  0  0
   15.5238  -33.9939   12.6459 C   0  0  2  0  0  0  0  0  0  0  0  0
   16.1624  -33.9217   11.3215 N   0  0  0  0  0  0  0  0  0  0  0  0
   11.8906  -36.6691   13.7473 C   0  0  1  0  0  0  0  0  0  0  0  0
   10.2406  -40.2863   16.0167 C   0  0  1  0  0  0  0  0  0  0  0  0
    7.7189  -44.2640   14.4451 C   0  0  1  0  0  0  0  0  0  0  0  0
   12.7458  -34.7683   18.3682 C   0  0  2  0  0  0  0  0  0  0  0  0
   13.2076  -35.9680   19.0524 N   0  0  0  0  0  0  0  0  0  0  0  0
   16.3661  -34.9348   13.6145 C   0  0  0  0  0  0  0  0  0  0  0  0
   11.5345  -37.1318   15.1482 C   0  0  2  0  0  0  0  0  0  0  0  0
   12.7036  -37.5615   15.9010 O   0  0  0  0  0  0  0  0  0  0  0  0
   11.0472  -41.6589   16.1746 C   0  0  2  0  0  0  0  0  0  0  0  0
   11.3350  -42.2514   14.8399 N   0  0  0  0  0  0  0  0  0  0  0  0
    8.3524  -45.6730   14.4087 C   0  0  1  0  0  0  0  0  0  0  0  0
    8.1822  -46.3007   15.7036 O   0  0  0  0  0  0  0  0  0  0  0  0
   11.2356  -34.8955   17.9445 C   0  0  0  0  0  0  0  0  0  0  0  0
   15.6748  -35.0030   15.0591 C   0  0  2  0  0  0  0  0  0  0  0  0
   16.4330  -35.8694   15.9737 N   0  0  0  0  0  0  0  0  0  0  0  0
   10.4754  -38.1919   14.8971 C   0  0  2  0  0  0  0  0  0  0  0  0
   10.9716  -39.4803   15.1394 O   0  0  0  0  0  0  0  0  0  0  0  0
   10.2069  -42.5977   17.1863 C   0  0  1  0  0  0  0  0  0  0  0  0
   10.0337  -41.8774   18.4201 O   0  0  0  0  0  0  0  0  0  0  0  0
    7.8412  -46.6592   13.3238 C   0  0  1  0  0  0  0  0  0  0  0  0
    6.7883  -47.4425   13.9002 O   0  0  0  0  0  0  0  0  0  0  0  0
   10.8080  -33.5734   17.2275 C   0  0  2  0  0  0  0  0  0  0  0  0
    9.4383  -33.6412   16.8432 O   0  0  0  0  0  0  0  0  0  0  0  0
   14.2214  -35.5314   14.9039 C   0  0  2  0  0  0  0  0  0  0  0  0
   10.1033  -38.1744   13.3952 C   0  0  2  0  0  0  0  0  0  0  0  0
   10.7995  -37.0315   12.9191 O   0  0  0  0  0  0  0  0  0  0  0  0
    8.7233  -42.9111   16.6253 C   0  0  2  0  0  0  0  0  0  0  0  0
    8.9458  -43.6438   15.4057 O   0  0  0  0  0  0  0  0  0  0  0  0
    7.3262  -46.0209   12.0131 C   0  0  2  0  0  0  0  0  0  0  0  0
    7.8213  -46.8610   10.9474 O   0  0  0  0  0  0  0  0  0  0  0  0
   11.7003  -33.3535   15.9724 C   0  0  2  0  0  0  0  0  0  0  0  0
   13.1095  -33.2723   16.4161 O   0  0  0  0  0  0  0  0  0  0  0  0
   13.3698  -34.6752   13.9177 C   0  0  2  0  0  0  0  0  0  0  0  0
   12.0621  -35.2894   13.8249 O   0  0  0  0  0  0  0  0  0  0  0  0
    8.6193  -37.9895   13.0986 C   0  0  0  0  0  0  0  0  0  0  0  0
    7.8976  -38.4932   14.2328 O   0  0  0  0  0  0  0  0  0  0  0  0
    8.1245  -41.5618   16.2757 C   0  0  1  0  0  0  0  0  0  0  0  0
    8.8026  -40.5328   15.5249 O   0  0  0  0  0  0  0  0  0  0  0  0
    7.7716  -44.5654   11.9002 C   0  0  2  0  0  0  0  0  0  0  0  0
    7.4787  -43.7466   13.0661 O   0  0  0  0  0  0  0  0  0  0  0  0
   11.3644  -32.0824   15.2593 C   0  0  0  0  0  0  0  0  0  0  0  0
   11.1352  -31.0913   16.2241 O   0  0  0  0  0  0  0  0  0  0  0  0
   14.0732  -34.6099   12.5128 C   0  0  1  0  0  0  0  0  0  0  0  0
   13.2706  -33.7543   11.6277 O   0  0  0  0  0  0  0  0  0  0  0  0
    6.6826  -41.6642   15.6636 C   0  0  0  0  0  0  0  0  0  0  0  0
    6.1238  -40.3586   15.2363 N   0  0  0  0  0  0  0  0  0  0  0  0
    7.3912  -43.6937   10.7056 C   0  0  0  0  0  0  0  0  0  0  0  0
    8.0704  -42.4024   10.7819 O   0  0  0  0  0  0  0  0  0  0  0  0
  1  2  1  6  0  0  0
  1  8  1  0  0  0  0
  1 36  1  0  0  0  0
  3  4  1  6  0  0  0
  3 10  1  0  0  0  0
  3 47  1  0  0  0  0
  5 11  1  0  0  0  0
  5 30  1  0  0  0  0
  5 38  1  1  0  0  0
  6 21  1  6  0  0  0
  6 42  1  0  0  0  0
  7 15  1  0  0  0  0
  7 44  1  0  0  0  0
  7 32  1  6  0  0  0
  8  9  1  6  0  0  0
  8 17  1  0  0  0  0
 11 12  1  6  0  0  0
 11 20  1  0  0  0  0
 13  6  1  0  0  0  0
 13 14  1  6  0  0  0
 15 16  1  1  0  0  0
 15 24  1  0  0  0  0
 17 26  1  0  0  0  0
 18 10  1  0  0  0  0
 18 19  1  1  0  0  0
 20 21  1  6  0  0  0
 20 29  1  0  0  0  0
 22 13  1  0  0  0  0
 22 23  1  1  0  0  0
 24 25  1  1  0  0  0
 24 33  1  0  0  0  0
 26 27  1  6  0  0  0
 26 35  1  0  0  0  0
 28  2  1  1  0  0  0
 28 18  1  0  0  0  0
 29 30  1  0  0  0  0
 29 39  1  1  0  0  0
 31 22  1  0  0  0  0
 31 32  1  6  0  0  0
 31 41  1  0  0  0  0
 33 34  1  6  0  0  0
 33 43  1  0  0  0  0
 35 36  1  0  0  0  0
 35 45  1  1  0  0  0
 37 28  1  0  0  0  0
 37 38  1  6  0  0  0
 39 40  1  0  0  0  0
 41 42  1  0  0  0  0
 41 49  1  6  0  0  0
 43 44  1  0  0  0  0
 43 51  1  6  0  0  0
 45 46  1  0  0  0  0
 47 37  1  0  0  0  0
 47 48  1  6  0  0  0
 49 50  1  0  0  0  0
 51 52  1  0  0  0  0
M  END
>  <CHROM.1>
171.72926278,99.40908968,-177.31228806,-128.83614710,126.82697929,52.63135592
-26.58417050,177.73744322,40.95792743,-41.57833213,-176.21193677,-173.64635638
10.71241709,-38.82618716,14.77801948,0.58100610,0.99349993,1.03702934

>  <Name>
2fd0_lig

>  <RI>
0

>  <Rbt.Current_Directory>
/home/itssahil/PROJECTS/Mol_Feturizer/New_Systems/rnas/2fd0

>  <Rbt.Executable>
rbdock ($Id: //depot/dev/client3/rdock/2013.1/src/exe/rbdock.cxx#4 $)

>  <Rbt.Library>
libRbt.so (2013.1, Build901 2013/11/27)

>  <Rbt.Parameter_File>
/export/apps/rDock/src/rDock_2013.1_src/data/scripts/dock_solv.prm

>  <Rbt.Receptor>
prm/blind_docking_100.prm

>  <SCORE>
1.85306

>  <SCORE.INTER>
-7.46473

>  <SCORE.INTER.CONST>
1

>  <SCORE.INTER.POLAR>
-0.440846

>  <SCORE.INTER.ROT>
12

>  <SCORE.INTER.SOLV>
30.5736

>  <SCORE.INTER.VDW>
-25.2982

>  <SCORE.INTER.norm>
-0.143553

>  <SCORE.INTRA>
7.25899

>  <SCORE.INTRA.DIHEDRAL>
3.22175

>  <SCORE.INTRA.DIHEDRAL.0>
23.9727

>  <SCORE.INTRA.POLAR>
0

>  <SCORE.INTRA.POLAR.0>
0

>  <SCORE.INTRA.REPUL>
0

>  <SCORE.INTRA.REPUL.0>
0

>  <SCORE.INTRA.SOLV>
-0.154156

>  <SCORE.INTRA.SOLV.lig_0>
-115.028

>  <SCORE.INTRA.VDW>
5.72519

>  <SCORE.INTRA.VDW.0>
-6.82393

>  <SCORE.INTRA.norm>
0.139596

>  <SCORE.RESTR>
2.0588

>  <SCORE.RESTR.CAVITY>
2.0588

>  <SCORE.RESTR.norm>
0.0395923

>  <SCORE.SYSTEM>
0

>  <SCORE.SYSTEM.CONST>
0

>  <SCORE.SYSTEM.DIHEDRAL>
0

>  <SCORE.SYSTEM.SOLV>
0

>  <SCORE.SYSTEM.norm>
0

>  <SCORE.heavy>
52

>  <SCORE.norm>
0.0356358

>  <RMSD>
15.480

$$$$
2fd0_lig
 OpenBabel11021811433D
libRbt.so/2013.1/901 2013/11/27
 52 56  0  0  0  0  0  0  0  0999 V2000
   12.2367  -34.8530   16.4735 C   0  0  2  0  0  0  0  0  0  0  0  0
   13.6487  -34.7443   16.2466 O   0  0  0  0  0  0  0  0  0  0  0  0
   15.8967  -34.2861   12.5548 C   0  0  2  0  0  0  0  0  0  0  0  0
   16.5985  -34.5970   11.2987 N   0  0  0  0  0  0  0  0  0  0  0  0
   11.8837  -36.1693   13.7829 C   0  0  1  0  0  0  0  0  0  0  0  0
    8.3534  -39.0918   13.6316 C   0  0  1  0  0  0  0  0  0  0  0  0
    8.2189  -43.8211   12.9527 C   0  0  1  0  0  0  0  0  0  0  0  0
   11.6753  -33.4269   16.8235 C   0  0  2  0  0  0  0  0  0  0  0  0
   11.9679  -32.4569   15.7774 N   0  0  0  0  0  0  0  0  0  0  0  0
   16.5508  -35.0860   13.7653 C   0  0  0  0  0  0  0  0  0  0  0  0
   10.3860  -36.2054   14.0263 C   0  0  2  0  0  0  0  0  0  0  0  0
   10.0594  -36.3017   15.4413 O   0  0  0  0  0  0  0  0  0  0  0  0
    7.8803  -39.8565   14.9548 C   0  0  2  0  0  0  0  0  0  0  0  0
    8.9558  -40.7593   15.4483 N   0  0  0  0  0  0  0  0  0  0  0  0
    8.4744  -44.7503   14.1606 C   0  0  1  0  0  0  0  0  0  0  0  0
    7.2121  -45.3085   14.6021 O   0  0  0  0  0  0  0  0  0  0  0  0
   12.2253  -32.9490   18.2184 C   0  0  0  0  0  0  0  0  0  0  0  0
   15.7921  -34.7374   15.1336 C   0  0  2  0  0  0  0  0  0  0  0  0
   16.3760  -35.4666   16.2691 N   0  0  0  0  0  0  0  0  0  0  0  0
    9.9279  -37.3628   13.1551 C   0  0  2  0  0  0  0  0  0  0  0  0
    9.5736  -38.4775   13.9276 O   0  0  0  0  0  0  0  0  0  0  0  0
    6.4705  -40.5715   14.6199 C   0  0  1  0  0  0  0  0  0  0  0  0
    5.5532  -39.5568   14.1728 O   0  0  0  0  0  0  0  0  0  0  0  0
    9.4763  -45.9200   13.9640 C   0  0  1  0  0  0  0  0  0  0  0  0
    8.7299  -47.0797   13.5739 O   0  0  0  0  0  0  0  0  0  0  0  0
   11.8680  -34.0301   19.2900 C   0  0  2  0  0  0  0  0  0  0  0  0
   12.3338  -33.6255   20.5735 O   0  0  0  0  0  0  0  0  0  0  0  0
   14.2865  -35.0943   14.9865 C   0  0  2  0  0  0  0  0  0  0  0  0
   11.1198  -37.8312   12.2865 C   0  0  2  0  0  0  0  0  0  0  0  0
   12.1037  -36.8428   12.5558 O   0  0  0  0  0  0  0  0  0  0  0  0
    6.6066  -41.6337   13.4085 C   0  0  2  0  0  0  0  0  0  0  0  0
    7.5156  -42.6338   13.9057 O   0  0  0  0  0  0  0  0  0  0  0  0
   10.6036  -45.6835   12.9325 C   0  0  2  0  0  0  0  0  0  0  0  0
   11.7985  -46.2396   13.5237 O   0  0  0  0  0  0  0  0  0  0  0  0
   12.5184  -35.3864   18.8934 C   0  0  2  0  0  0  0  0  0  0  0  0
   11.9966  -35.7780   17.5653 O   0  0  0  0  0  0  0  0  0  0  0  0
   13.6120  -34.3789   13.7765 C   0  0  2  0  0  0  0  0  0  0  0  0
   12.2353  -34.8235   13.7197 O   0  0  0  0  0  0  0  0  0  0  0  0
   10.8579  -37.8499   10.7847 C   0  0  0  0  0  0  0  0  0  0  0  0
   10.0805  -39.0247   10.5078 O   0  0  0  0  0  0  0  0  0  0  0  0
    7.2860  -40.8819   12.2796 C   0  0  1  0  0  0  0  0  0  0  0  0
    8.4573  -40.0533   12.4336 O   0  0  0  0  0  0  0  0  0  0  0  0
   10.7268  -44.2024   12.5850 C   0  0  2  0  0  0  0  0  0  0  0  0
    9.4798  -43.5618   12.1976 O   0  0  0  0  0  0  0  0  0  0  0  0
   12.1838  -36.4753   19.8628 C   0  0  0  0  0  0  0  0  0  0  0  0
   13.3062  -37.3063   19.9861 O   0  0  0  0  0  0  0  0  0  0  0  0
   14.3804  -34.7229   12.4484 C   0  0  1  0  0  0  0  0  0  0  0  0
   13.7497  -33.9918   11.3407 O   0  0  0  0  0  0  0  0  0  0  0  0
    7.5498  -41.7720   11.0137 C   0  0  0  0  0  0  0  0  0  0  0  0
    6.3455  -41.9845   10.1747 N   0  0  0  0  0  0  0  0  0  0  0  0
   11.7569  -43.6904   11.5807 C   0  0  0  0  0  0  0  0  0  0  0  0
   13.0826  -44.2146   11.9004 O   0  0  0  0  0  0  0  0  0  0  0  0
  1  2  1  1  0  0  0
  1  8  1  0  0  0  0
  1 36  1  0  0  0  0
  3  4  1  6  0  0  0
  3 10  1  0  0  0  0
  3 47  1  0  0  0  0
  5 11  1  0  0  0  0
  5 30  1  0  0  0  0
  5 38  1  6  0  0  0
  6 21  1  1  0  0  0
  6 42  1  0  0  0  0
  7 15  1  0  0  0  0
  7 44  1  0  0  0  0
  7 32  1  1  0  0  0
  8  9  1  6  0  0  0
  8 17  1  0  0  0  0
 11 12  1  1  0  0  0
 11 20  1  0  0  0  0
 13  6  1  0  0  0  0
 13 14  1  6  0  0  0
 15 16  1  6  0  0  0
 15 24  1  0  0  0  0
 17 26  1  0  0  0  0
 18 10  1  0  0  0  0
 18 19  1  1  0  0  0
 20 21  1  1  0  0  0
 20 29  1  0  0  0  0
 22 13  1  0  0  0  0
 22 23  1  6  0  0  0
 24 25  1  6  0  0  0
 24 33  1  0  0  0  0
 26 27  1  1  0  0  0
 26 35  1  0  0  0  0
 28  2  1  1  0  0  0
 28 18  1  0  0  0  0
 29 30  1  0  0  0  0
 29 39  1  6  0  0  0
 31 22  1  0  0  0  0
 31 32  1  1  0  0  0
 31 41  1  0  0  0  0
 33 34  1  1  0  0  0
 33 43  1  0  0  0  0
 35 36  1  0  0  0  0
 35 45  1  1  0  0  0
 37 28  1  0  0  0  0
 37 38  1  6  0  0  0
 39 40  1  0  0  0  0
 41 42  1  0  0  0  0
 41 49  1  6  0  0  0
 43 44  1  0  0  0  0
 43 51  1  6  0  0  0
 45 46  1  0  0  0  0
 47 37  1  0  0  0  0
 47 48  1  6  0  0  0
 49 50  1  0  0  0  0
 51 52  1  0  0  0  0
M  END
>  <CHROM.1>
-119.72811290,166.82913385,-155.88607477,-157.33407775,131.85395870,176.14043765
-77.62848715,-168.46196358,-143.99195745,-48.81408930,78.22543782,-50.20904194
10.98486364,-38.65002654,14.26188667,0.85692700,0.83049240,0.88105580

>  <Name>
2fd0_lig

>  <RI>
0

>  <Rbt.Current_Directory>
/home/itssahil/PROJECTS/Mol_Feturizer/New_Systems/rnas/2fd0

>  <Rbt.Executable>
rbdock ($Id: //depot/dev/client3/rdock/2013.1/src/exe/rbdock.cxx#4 $)

>  <Rbt.Library>
libRbt.so (2013.1, Build901 2013/11/27)

>  <Rbt.Parameter_File>
/export/apps/rDock/src/rDock_2013.1_src/data/scripts/dock_solv.prm

>  <Rbt.Receptor>
prm/blind_docking_100.prm

>  <SCORE>
-0.978263

>  <SCORE.INTER>
-9.54109

>  <SCORE.INTER.CONST>
1

>  <SCORE.INTER.POLAR>
-0.912032

>  <SCORE.INTER.ROT>
12

>  <SCORE.INTER.SOLV>
29.9497

>  <SCORE.INTER.VDW>
-24.9038

>  <SCORE.INTER.norm>
-0.183483

>  <SCORE.INTRA>
2.90134

>  <SCORE.INTRA.DIHEDRAL>
3.72618

>  <SCORE.INTRA.DIHEDRAL.0>
23.9727

>  <SCORE.INTRA.POLAR>
0

>  <SCORE.INTRA.POLAR.0>
0

>  <SCORE.INTRA.REPUL>
0.0219145

>  <SCORE.INTRA.REPUL.0>
0

>  <SCORE.INTRA.SOLV>
-1.45517

>  <SCORE.INTRA.SOLV.lig_0>
-115.028

>  <SCORE.INTRA.VDW>
1.65626

>  <SCORE.INTRA.VDW.0>
-6.82393

>  <SCORE.INTRA.norm>
0.055795

>  <SCORE.RESTR>
5.66149

>  <SCORE.RESTR.CAVITY>
5.66149

>  <SCORE.RESTR.norm>
0.108875

>  <SCORE.SYSTEM>
0

>  <SCORE.SYSTEM.CONST>
0

>  <SCORE.SYSTEM.DIHEDRAL>
0

>  <SCORE.SYSTEM.SOLV>
0

>  <SCORE.SYSTEM.norm>
0

>  <SCORE.heavy>
52

>  <SCORE.norm>
-0.0188127

>  <RMSD>
15.506

$$$$
2fd0_lig
 OpenBabel11021811433D
libRbt.so/2013.1/901 2013/11/27
 52 56  0  0  0  0  0  0  0  0999 V2000
    7.0429  -45.9713   14.3416 C   0  0  2  0  0  0  0  0  0  0  0  0
    6.5556  -45.8969   12.9948 O   0  0  0  0  0  0  0  0  0  0  0  0
    3.7657  -43.6715   10.5136 C   0  0  2  0  0  0  0  0  0  0  0  0
    2.5622  -42.9528   10.0640 N   0  0  0  0  0  0  0  0  0  0  0  0
    7.2640  -42.0720   13.3248 C   0  0  1  0  0  0  0  0  0  0  0  0
    9.8507  -40.1986   14.0596 C   0  0  1  0  0  0  0  0  0  0  0  0
   11.8154  -35.2961   14.6634 C   0  0  1  0  0  0  0  0  0  0  0  0
    8.2647  -46.9599   14.3774 C   0  0  2  0  0  0  0  0  0  0  0  0
    9.3182  -46.5539   13.4575 N   0  0  0  0  0  0  0  0  0  0  0  0
    3.3886  -45.1494   10.9683 C   0  0  0  0  0  0  0  0  0  0  0  0
    8.5654  -42.7621   13.6904 C   0  0  2  0  0  0  0  0  0  0  0  0
    8.8852  -42.6232   15.1034 O   0  0  0  0  0  0  0  0  0  0  0  0
    9.6360  -39.0133   13.0068 C   0  0  2  0  0  0  0  0  0  0  0  0
   10.9092  -38.7066   12.2996 N   0  0  0  0  0  0  0  0  0  0  0  0
   13.1416  -35.7023   13.9823 C   0  0  1  0  0  0  0  0  0  0  0  0
   12.9420  -35.7444   12.5476 O   0  0  0  0  0  0  0  0  0  0  0  0
    7.7873  -48.4313   14.0887 C   0  0  0  0  0  0  0  0  0  0  0  0
    4.7022  -45.9336   11.4468 C   0  0  2  0  0  0  0  0  0  0  0  0
    4.3806  -47.3028   11.8753 N   0  0  0  0  0  0  0  0  0  0  0  0
    9.5594  -42.1504   12.7176 C   0  0  2  0  0  0  0  0  0  0  0  0
   10.4310  -41.2635   13.3647 O   0  0  0  0  0  0  0  0  0  0  0  0
    8.9670  -37.7768   13.8034 C   0  0  1  0  0  0  0  0  0  0  0  0
    7.7494  -38.2462   14.4101 O   0  0  0  0  0  0  0  0  0  0  0  0
   14.3909  -34.8262   14.2697 C   0  0  1  0  0  0  0  0  0  0  0  0
   14.4799  -33.8330   13.2403 O   0  0  0  0  0  0  0  0  0  0  0  0
    6.6677  -48.8007   15.1157 C   0  0  2  0  0  0  0  0  0  0  0  0
    6.2202  -50.1353   14.8991 O   0  0  0  0  0  0  0  0  0  0  0  0
    5.3663  -45.1504   12.6135 C   0  0  2  0  0  0  0  0  0  0  0  0
    8.7840  -41.2861   11.6948 C   0  0  2  0  0  0  0  0  0  0  0  0
    7.4300  -41.5828   12.0053 O   0  0  0  0  0  0  0  0  0  0  0  0
    9.9100  -37.2563   15.0092 C   0  0  2  0  0  0  0  0  0  0  0  0
   11.1029  -36.7829   14.3561 O   0  0  0  0  0  0  0  0  0  0  0  0
   14.4253  -34.1215   15.6455 C   0  0  2  0  0  0  0  0  0  0  0  0
   15.7870  -34.2402   16.1125 O   0  0  0  0  0  0  0  0  0  0  0  0
    5.4775  -47.8111   14.9618 C   0  0  2  0  0  0  0  0  0  0  0  0
    5.9803  -46.4418   15.2104 O   0  0  0  0  0  0  0  0  0  0  0  0
    5.7033  -43.6756   12.2359 C   0  0  2  0  0  0  0  0  0  0  0  0
    6.2709  -43.0445   13.4088 O   0  0  0  0  0  0  0  0  0  0  0  0
    9.0287  -41.6394   10.2321 C   0  0  0  0  0  0  0  0  0  0  0  0
    8.3556  -42.8825    9.9812 O   0  0  0  0  0  0  0  0  0  0  0  0
   10.2597  -38.4915   15.8175 C   0  0  1  0  0  0  0  0  0  0  0  0
   10.7089  -39.7414   15.2533 O   0  0  0  0  0  0  0  0  0  0  0  0
   13.3982  -34.7280   16.5978 C   0  0  2  0  0  0  0  0  0  0  0  0
   12.0505  -34.8239   16.0594 O   0  0  0  0  0  0  0  0  0  0  0  0
    4.3842  -48.0892   15.9439 C   0  0  0  0  0  0  0  0  0  0  0  0
    3.7364  -46.8784   16.2264 O   0  0  0  0  0  0  0  0  0  0  0  0
    4.4045  -42.9304   11.7561 C   0  0  1  0  0  0  0  0  0  0  0  0
    4.7694  -41.5630   11.3605 O   0  0  0  0  0  0  0  0  0  0  0  0
   11.2201  -38.1914   17.0225 C   0  0  0  0  0  0  0  0  0  0  0  0
   10.7293  -37.1187   17.9212 N   0  0  0  0  0  0  0  0  0  0  0  0
   13.2131  -34.2117   18.0230 C   0  0  0  0  0  0  0  0  0  0  0  0
   12.7194  -32.8368   18.0055 O   0  0  0  0  0  0  0  0  0  0  0  0
  1  2  1  6  0  0  0
  1  8  1  0  0  0  0
  1 36  1  0  0  0  0
  3  4  1  1  0  0  0
  3 10  1  0  0  0  0
  3 47  1  0  0  0  0
  5 11  1  0  0  0  0
  5 30  1  0  0  0  0
  5 38  1  6  0  0  0
  6 21  1  6  0  0  0
  6 42  1  0  0  0  0
  7 15  1  0  0  0  0
  7 44  1  0  0  0  0
  7 32  1  1  0  0  0
  8  9  1  6  0  0  0
  8 17  1  0  0  0  0
 11 12  1  1  0  0  0
 11 20  1  0  0  0  0
 13  6  1  0  0  0  0
 13 14  1  1  0  0  0
 15 16  1  6  0  0  0
 15 24  1  0  0  0  0
 17 26  1  0  0  0  0
 18 10  1  0  0  0  0
 18 19  1  1  0  0  0
 20 21  1  1  0  0  0
 20 29  1  0  0  0  0
 22 13  1  0  0  0  0
 22 23  1  1  0  0  0
 24 25  1  6  0  0  0
 24 33  1  0  0  0  0
 26 27  1  6  0  0  0
 26 35  1  0  0  0  0
 28  2  1  6  0  0  0
 28 18  1  0  0  0  0
 29 30  1  0  0  0  0
 29 39  1  6  0  0  0
 31 22  1  0  0  0  0
 31 32  1  6  0  0  0
 31 41  1  0  0  0  0
 33 34  1  1  0  0  0
 33 43  1  0  0  0  0
 35 36  1  0  0  0  0
 35 45  1  1  0  0  0
 37 28  1  0  0  0  0
 37 38  1  1  0  0  0
 39 40  1  0  0  0  0
 41 42  1  0  0  0  0
 41 49  1  1  0  0  0
 43 44  1  0  0  0  0
 43 51  1  1  0  0  0
 45 46  1  0  0  0  0
 47 37  1  0  0  0  0
 47 48  1  6  0  0  0
 49 50  1  0  0  0  0
 51 52  1  0  0  0  0
M  END
>  <CHROM.1>
175.22945776,-103.07744180,-86.55001566,164.20105582,-57.21562695,-146.35952129
72.69838444,131.31504218,150.47299828,146.05269954,53.52164338,64.83209436
8.76283979,-41.18719542,13.90355821,-2.55272395,-0.85703640,-0.65793832

>  <Name>
2fd0_lig

>  <RI>
2.60878e+07

>  <Rbt.Current_Directory>
/home/itssahil/PROJECTS/Mol_Feturizer/New_Systems/rnas/2fd0

>  <Rbt.Executable>
rbdock ($Id: //depot/dev/client3/rdock/2013.1/src/exe/rbdock.cxx#4 $)

>  <Rbt.Library>
libRbt.so (2013.1, Build901 2013/11/27)

>  <Rbt.Parameter_File>
/export/apps/rDock/src/rDock_2013.1_src/data/scripts/dock_solv.prm

>  <Rbt.Receptor>
prm/blind_docking_80.prm

>  <SCORE>
-2.67113

>  <SCORE.INTER>
-10.1594

>  <SCORE.INTER.CONST>
1

>  <SCORE.INTER.POLAR>
-0.935225

>  <SCORE.INTER.ROT>
12

>  <SCORE.INTER.SOLV>
22.4432

>  <SCORE.INTER.VDW>
-22.7366

>  <SCORE.INTER.norm>
-0.195373

>  <SCORE.INTRA>
6.76095

>  <SCORE.INTRA.DIHEDRAL>
5.91016

>  <SCORE.INTRA.DIHEDRAL.0>
23.9727

>  <SCORE.INTRA.POLAR>
0

>  <SCORE.INTRA.POLAR.0>
0

>  <SCORE.INTRA.REPUL>
0

>  <SCORE.INTRA.REPUL.0>
0

>  <SCORE.INTRA.SOLV>
2.55875

>  <SCORE.INTRA.SOLV.lig_0>
-115.028

>  <SCORE.INTRA.VDW>
2.52649

>  <SCORE.INTRA.VDW.0>
-6.82393

>  <SCORE.INTRA.norm>
0.130018

>  <SCORE.RESTR>
0.727292

>  <SCORE.RESTR.CAVITY>
0.727292

>  <SCORE.RESTR.norm>
0.0139864

>  <SCORE.SYSTEM>
0

>  <SCORE.SYSTEM.CONST>
0

>  <SCORE.SYSTEM.DIHEDRAL>
0

>  <SCORE.SYSTEM.SOLV>
0

>  <SCORE.SYSTEM.norm>
0

>  <SCORE.heavy>
52

>  <SCORE.norm>
-0.051368

>  <RMSD>
15.531

$$$$
2fd0_lig
 OpenBabel11021811433D
libRbt.so/2013.1/901 2013/11/27
 52 56  0  0  0  0  0  0  0  0999 V2000
    4.8164  -45.3301   13.2122 C   0  0  2  0  0  0  0  0  0  0  0  0
    6.1753  -45.1263   13.6230 O   0  0  0  0  0  0  0  0  0  0  0  0
    7.6183  -48.7380   15.5636 C   0  0  2  0  0  0  0  0  0  0  0  0
    8.4686  -49.8819   15.9315 N   0  0  0  0  0  0  0  0  0  0  0  0
    8.6613  -44.1308   14.6585 C   0  0  1  0  0  0  0  0  0  0  0  0
    9.6606  -40.2104   14.1057 C   0  0  1  0  0  0  0  0  0  0  0  0
   12.1376  -35.5611   14.0471 C   0  0  1  0  0  0  0  0  0  0  0  0
    4.6602  -44.8241   11.7320 C   0  0  2  0  0  0  0  0  0  0  0  0
    5.5891  -45.4907   10.8300 N   0  0  0  0  0  0  0  0  0  0  0  0
    7.2854  -48.7753   14.0077 C   0  0  0  0  0  0  0  0  0  0  0  0
    9.0575  -42.7948   15.2599 C   0  0  2  0  0  0  0  0  0  0  0  0
    7.9904  -41.8095   15.1660 O   0  0  0  0  0  0  0  0  0  0  0  0
    9.5074  -39.2139   12.8634 C   0  0  2  0  0  0  0  0  0  0  0  0
   10.7840  -39.1280   12.1031 N   0  0  0  0  0  0  0  0  0  0  0  0
   12.7101  -35.6073   12.6126 C   0  0  1  0  0  0  0  0  0  0  0  0
   11.6917  -35.1610   11.6833 O   0  0  0  0  0  0  0  0  0  0  0  0
    4.8217  -43.2600   11.6679 C   0  0  0  0  0  0  0  0  0  0  0  0
    6.3503  -47.5350   13.6116 C   0  0  2  0  0  0  0  0  0  0  0  0
    6.0297  -47.5445   12.1767 N   0  0  0  0  0  0  0  0  0  0  0  0
   10.3433  -42.4585   14.5236 C   0  0  2  0  0  0  0  0  0  0  0  0
   10.1507  -41.4191   13.6032 O   0  0  0  0  0  0  0  0  0  0  0  0
    8.9430  -37.8126   13.4367 C   0  0  1  0  0  0  0  0  0  0  0  0
    7.7084  -38.0798   14.1261 O   0  0  0  0  0  0  0  0  0  0  0  0
   14.0057  -34.7984   12.3332 C   0  0  1  0  0  0  0  0  0  0  0  0
   13.6227  -33.5049   11.8489 O   0  0  0  0  0  0  0  0  0  0  0  0
    3.7912  -42.6137   12.6502 C   0  0  2  0  0  0  0  0  0  0  0  0
    3.8930  -41.1938   12.6082 O   0  0  0  0  0  0  0  0  0  0  0  0
    7.0725  -46.2116   13.9893 C   0  0  2  0  0  0  0  0  0  0  0  0
   10.7625  -43.6823   13.6744 C   0  0  2  0  0  0  0  0  0  0  0  0
    9.8398  -44.6778   14.0931 O   0  0  0  0  0  0  0  0  0  0  0  0
    9.9449  -37.1598   14.5250 C   0  0  2  0  0  0  0  0  0  0  0  0
   11.1541  -36.8949   13.7894 O   0  0  0  0  0  0  0  0  0  0  0  0
   14.9657  -34.6170   13.5315 C   0  0  2  0  0  0  0  0  0  0  0  0
   16.2963  -34.7922   12.9974 O   0  0  0  0  0  0  0  0  0  0  0  0
    4.0643  -43.1221   14.0948 C   0  0  2  0  0  0  0  0  0  0  0  0
    3.9326  -44.5959   14.0983 O   0  0  0  0  0  0  0  0  0  0  0  0
    7.4723  -46.1505   15.4951 C   0  0  2  0  0  0  0  0  0  0  0  0
    8.1708  -44.9007   15.7100 O   0  0  0  0  0  0  0  0  0  0  0  0
   12.1737  -44.1973   13.9344 C   0  0  0  0  0  0  0  0  0  0  0  0
   12.3249  -45.4095   13.1802 O   0  0  0  0  0  0  0  0  0  0  0  0
   10.2241  -38.2575   15.5342 C   0  0  1  0  0  0  0  0  0  0  0  0
   10.5731  -39.6157   15.1939 O   0  0  0  0  0  0  0  0  0  0  0  0
   14.6268  -35.5900   14.6576 C   0  0  2  0  0  0  0  0  0  0  0  0
   13.2301  -35.5895   15.0633 O   0  0  0  0  0  0  0  0  0  0  0  0
    3.0863  -42.5666   15.0808 C   0  0  0  0  0  0  0  0  0  0  0  0
    3.4477  -43.0249   16.3555 O   0  0  0  0  0  0  0  0  0  0  0  0
    8.3763  -47.3830   15.8646 C   0  0  1  0  0  0  0  0  0  0  0  0
    8.6894  -47.3196   17.2989 O   0  0  0  0  0  0  0  0  0  0  0  0
   11.2279  -37.8226   16.6601 C   0  0  0  0  0  0  0  0  0  0  0  0
   11.1181  -38.6301   17.8992 N   0  0  0  0  0  0  0  0  0  0  0  0
   15.4133  -35.6178   15.9663 C   0  0  0  0  0  0  0  0  0  0  0  0
   14.9068  -36.6725   16.8413 O   0  0  0  0  0  0  0  0  0  0  0  0
  1  2  1  1  0  0  0
  1  8  1  0  0  0  0
  1 36  1  0  0  0  0
  3  4  1  6  0  0  0
  3 10  1  0  0  0  0
  3 47  1  0  0  0  0
  5 11  1  0  0  0  0
  5 30  1  0  0  0  0
  5 38  1  1  0  0  0
  6 21  1  6  0  0  0
  6 42  1  0  0  0  0
  7 15  1  0  0  0  0
  7 44  1  0  0  0  0
  7 32  1  1  0  0  0
  8  9  1  6  0  0  0
  8 17  1  0  0  0  0
 11 12  1  6  0  0  0
 11 20  1  0  0  0  0
 13  6  1  0  0  0  0
 13 14  1  1  0  0  0
 15 16  1  6  0  0  0
 15 24  1  0  0  0  0
 17 26  1  0  0  0  0
 18 10  1  0  0  0  0
 18 19  1  6  0  0  0
 20 21  1  6  0  0  0
 20 29  1  0  0  0  0
 22 13  1  0  0  0  0
 22 23  1  1  0  0  0
 24 25  1  1  0  0  0
 24 33  1  0  0  0  0
 26 27  1  1  0  0  0
 26 35  1  0  0  0  0
 28  2  1  1  0  0  0
 28 18  1  0  0  0  0
 29 30  1  0  0  0  0
 29 39  1  1  0  0  0
 31 22  1  0  0  0  0
 31 32  1  6  0  0  0
 31 41  1  0  0  0  0
 33 34  1  6  0  0  0
 33 43  1  0  0  0  0
 35 36  1  0  0  0  0
 35 45  1  1  0  0  0
 37 28  1  0  0  0  0
 37 38  1  6  0  0  0
 39 40  1  0  0  0  0
 41 42  1  0  0  0  0
 41 49  1  1  0  0  0
 43 44  1  0  0  0  0
 43 51  1  1  0  0  0
 45 46  1  0  0  0  0
 47 37  1  0  0  0  0
 47 48  1  1  0  0  0
 49 50  1  0  0  0  0
 51 52  1  0  0  0  0
M  END
>  <CHROM.1>
-117.32449716,168.60006718,-178.96995477,-155.27668316,57.51452077,9.34730009
173.51948656,143.84416119,-177.19558072,-14.95892833,157.54681278,-177.98886354
9.24649363,-41.42652158,14.15623190,2.19177955,0.25505398,2.94623933

>  <Name>
2fd0_lig

>  <RI>
2.85265e+07

>  <Rbt.Current_Directory>
/home/itssahil/PROJECTS/Mol_Feturizer/New_Systems/rnas/2fd0

>  <Rbt.Executable>
rbdock ($Id: //depot/dev/client3/rdock/2013.1/src/exe/rbdock.cxx#4 $)

>  <Rbt.Library>
libRbt.so (2013.1, Build901 2013/11/27)

>  <Rbt.Parameter_File>
/export/apps/rDock/src/rDock_2013.1_src/data/scripts/dock_solv.prm

>  <Rbt.Receptor>
prm/blind_docking_60.prm

>  <SCORE>
-5.28215

>  <SCORE.INTER>
-17.6655

>  <SCORE.INTER.CONST>
1

>  <SCORE.INTER.POLAR>
-0.890362

>  <SCORE.INTER.ROT>
12

>  <SCORE.INTER.SOLV>
26.2807

>  <SCORE.INTER.VDW>
-29.1694

>  <SCORE.INTER.norm>
-0.339721

>  <SCORE.INTRA>
10.8886

>  <SCORE.INTRA.DIHEDRAL>
6.86389

>  <SCORE.INTRA.DIHEDRAL.0>
23.9727

>  <SCORE.INTRA.POLAR>
0

>  <SCORE.INTRA.POLAR.0>
0

>  <SCORE.INTRA.REPUL>
0

>  <SCORE.INTRA.REPUL.0>
0

>  <SCORE.INTRA.SOLV>
-0.556635

>  <SCORE.INTRA.SOLV.lig_0>
-115.028

>  <SCORE.INTRA.VDW>
7.73498

>  <SCORE.INTRA.VDW.0>
-6.82393

>  <SCORE.INTRA.norm>
0.209396

>  <SCORE.RESTR>
1.49475

>  <SCORE.RESTR.CAVITY>
1.49475

>  <SCORE.RESTR.norm>
0.0287453

>  <SCORE.SYSTEM>
0

>  <SCORE.SYSTEM.CONST>
0

>  <SCORE.SYSTEM.DIHEDRAL>
0

>  <SCORE.SYSTEM.SOLV>
0

>  <SCORE.SYSTEM.norm>
0

>  <SCORE.heavy>
52

>  <SCORE.norm>
-0.10158

>  <RMSD>
15.588

$$$$
2fd0_lig
 OpenBabel11021811433D
libRbt.so/2013.1/901 2013/11/27
 52 56  0  0  0  0  0  0  0  0999 V2000
    7.1206  -46.6547   15.7056 C   0  0  2  0  0  0  0  0  0  0  0  0
    8.0091  -46.5243   14.5873 O   0  0  0  0  0  0  0  0  0  0  0  0
    7.7727  -44.4797   10.7590 C   0  0  2  0  0  0  0  0  0  0  0  0
    7.6469  -43.4170    9.7482 N   0  0  0  0  0  0  0  0  0  0  0  0
   10.3879  -44.0144   14.4602 C   0  0  1  0  0  0  0  0  0  0  0  0
    9.8109  -39.4732   14.6973 C   0  0  1  0  0  0  0  0  0  0  0  0
   12.8721  -35.3055   14.0393 C   0  0  1  0  0  0  0  0  0  0  0  0
    7.9617  -47.0723   16.9664 C   0  0  2  0  0  0  0  0  0  0  0  0
    9.0268  -46.1199   17.2478 N   0  0  0  0  0  0  0  0  0  0  0  0
    6.4977  -44.4895   11.7115 C   0  0  0  0  0  0  0  0  0  0  0  0
   10.4023  -42.7819   13.5746 C   0  0  2  0  0  0  0  0  0  0  0  0
   11.7537  -42.3204   13.2937 O   0  0  0  0  0  0  0  0  0  0  0  0
   10.2575  -39.0714   13.2145 C   0  0  2  0  0  0  0  0  0  0  0  0
   11.7164  -39.3006   13.0289 N   0  0  0  0  0  0  0  0  0  0  0  0
   13.6346  -36.0902   15.1305 C   0  0  1  0  0  0  0  0  0  0  0  0
   14.4330  -37.1217   14.4993 O   0  0  0  0  0  0  0  0  0  0  0  0
    8.5281  -48.5297   16.7888 C   0  0  0  0  0  0  0  0  0  0  0  0
    6.6318  -45.6545   12.8043 C   0  0  2  0  0  0  0  0  0  0  0  0
    5.4662  -45.6836   13.7000 N   0  0  0  0  0  0  0  0  0  0  0  0
    9.5085  -41.8114   14.3283 C   0  0  2  0  0  0  0  0  0  0  0  0
   10.2531  -40.7806   14.9181 O   0  0  0  0  0  0  0  0  0  0  0  0
    9.7517  -37.5594   12.9521 C   0  0  1  0  0  0  0  0  0  0  0  0
    8.3284  -37.5245   13.1625 O   0  0  0  0  0  0  0  0  0  0  0  0
   14.5574  -35.2802   16.0810 C   0  0  1  0  0  0  0  0  0  0  0  0
   15.8799  -35.2927   15.5288 O   0  0  0  0  0  0  0  0  0  0  0  0
    7.3328  -49.4954   16.5001 C   0  0  2  0  0  0  0  0  0  0  0  0
    7.8027  -50.8314   16.3507 O   0  0  0  0  0  0  0  0  0  0  0  0
    7.9324  -45.4345   13.6264 C   0  0  2  0  0  0  0  0  0  0  0  0
    8.8460  -42.5621   15.5081 C   0  0  2  0  0  0  0  0  0  0  0  0
    9.2302  -43.9088   15.2704 O   0  0  0  0  0  0  0  0  0  0  0  0
   10.3974  -36.5167   14.0057 C   0  0  2  0  0  0  0  0  0  0  0  0
   11.8130  -36.5727   13.7475 O   0  0  0  0  0  0  0  0  0  0  0  0
   14.1424  -33.8145   16.3456 C   0  0  2  0  0  0  0  0  0  0  0  0
   14.3715  -33.5907   17.7541 O   0  0  0  0  0  0  0  0  0  0  0  0
    6.6030  -49.0421   15.2033 C   0  0  2  0  0  0  0  0  0  0  0  0
    6.1173  -47.6592   15.4060 O   0  0  0  0  0  0  0  0  0  0  0  0
    9.2069  -45.3595   12.7314 C   0  0  2  0  0  0  0  0  0  0  0  0
   10.3364  -45.1097   13.6019 O   0  0  0  0  0  0  0  0  0  0  0  0
    7.3232  -42.4972   15.5427 C   0  0  0  0  0  0  0  0  0  0  0  0
    6.8576  -42.8364   14.2276 O   0  0  0  0  0  0  0  0  0  0  0  0
   10.1332  -37.1059   15.3785 C   0  0  1  0  0  0  0  0  0  0  0  0
   10.3652  -38.4838   15.7387 O   0  0  0  0  0  0  0  0  0  0  0  0
   12.6991  -33.5671   15.9149 C   0  0  2  0  0  0  0  0  0  0  0  0
   12.3859  -33.9944   14.5604 O   0  0  0  0  0  0  0  0  0  0  0  0
    5.4234  -49.9068   14.8903 C   0  0  0  0  0  0  0  0  0  0  0  0
    5.1026  -49.7299   13.5370 O   0  0  0  0  0  0  0  0  0  0  0  0
    9.0475  -44.2209   11.6586 C   0  0  1  0  0  0  0  0  0  0  0  0
   10.2422  -44.2145   10.8029 O   0  0  0  0  0  0  0  0  0  0  0  0
   10.7339  -36.2468   16.5470 C   0  0  0  0  0  0  0  0  0  0  0  0
   11.0248  -37.0299   17.7723 N   0  0  0  0  0  0  0  0  0  0  0  0
   12.0366  -32.1985   16.0554 C   0  0  0  0  0  0  0  0  0  0  0  0
   11.4374  -31.7912   14.7867 O   0  0  0  0  0  0  0  0  0  0  0  0
  1  2  1  6  0  0  0
  1  8  1  0  0  0  0
  1 36  1  0  0  0  0
  3  4  1  6  0  0  0
  3 10  1  0  0  0  0
  3 47  1  0  0  0  0
  5 11  1  0  0  0  0
  5 30  1  0  0  0  0
  5 38  1  6  0  0  0
  6 21  1  1  0  0  0
  6 42  1  0  0  0  0
  7 15  1  0  0  0  0
  7 44  1  0  0  0  0
  7 32  1  1  0  0  0
  8  9  1  6  0  0  0
  8 17  1  0  0  0  0
 11 12  1  1  0  0  0
 11 20  1  0  0  0  0
 13  6  1  0  0  0  0
 13 14  1  1  0  0  0
 15 16  1  6  0  0  0
 15 24  1  0  0  0  0
 17 26  1  0  0  0  0
 18 10  1  0  0  0  0
 18 19  1  1  0  0  0
 20 21  1  1  0  0  0
 20 29  1  0  0  0  0
 22 13  1  0  0  0  0
 22 23  1  1  0  0  0
 24 25  1  6  0  0  0
 24 33  1  0  0  0  0
 26 27  1  6  0  0  0
 26 35  1  0  0  0  0
 28  2  1  1  0  0  0
 28 18  1  0  0  0  0
 29 30  1  0  0  0  0
 29 39  1  6  0  0  0
 31 22  1  0  0  0  0
 31 32  1  6  0  0  0
 31 41  1  0  0  0  0
 33 34  1  1  0  0  0
 33 43  1  0  0  0  0
 35 36  1  0  0  0  0
 35 45  1  1  0  0  0
 37 28  1  0  0  0  0
 37 38  1  1  0  0  0
 39 40  1  0  0  0  0
 41 42  1  0  0  0  0
 41 49  1  1  0  0  0
 43 44  1  0  0  0  0
 43 51  1  6  0  0  0
 45 46  1  0  0  0  0
 47 37  1  0  0  0  0
 47 48  1  6  0  0  0
 49 50  1  0  0  0  0
 51 52  1  0  0  0  0
M  END
>  <CHROM.1>
-137.30877458,-64.20734628,-77.12394306,115.00845150,130.54879940,-69.73148495
48.88574837,152.67259858,-160.86710241,-56.31838810,-154.59766942,128.37889085
9.77378152,-41.44318049,14.54993261,-2.46778716,-1.03890616,-0.75790210

>  <Name>
2fd0_lig

>  <RI>
0

>  <Rbt.Current_Directory>
/home/itssahil/PROJECTS/Mol_Feturizer/New_Systems/rnas/2fd0

>  <Rbt.Executable>
rbdock ($Id: //depot/dev/client3/rdock/2013.1/src/exe/rbdock.cxx#4 $)

>  <Rbt.Library>
libRbt.so (2013.1, Build901 2013/11/27)

>  <Rbt.Parameter_File>
/export/apps/rDock/src/rDock_2013.1_src/data/scripts/dock_solv.prm

>  <Rbt.Receptor>
prm/blind_docking_100.prm

>  <SCORE>
3.96566

>  <SCORE.INTER>
-10.516

>  <SCORE.INTER.CONST>
1

>  <SCORE.INTER.POLAR>
-1.22466

>  <SCORE.INTER.ROT>
12

>  <SCORE.INTER.SOLV>
27.8835

>  <SCORE.INTER.VDW>
-23.823

>  <SCORE.INTER.norm>
-0.202231

>  <SCORE.INTRA>
10.1269

>  <SCORE.INTRA.DIHEDRAL>
9.27102

>  <SCORE.INTRA.DIHEDRAL.0>
23.9727

>  <SCORE.INTRA.POLAR>
0

>  <SCORE.INTRA.POLAR.0>
0

>  <SCORE.INTRA.REPUL>
0

>  <SCORE.INTRA.REPUL.0>
0

>  <SCORE.INTRA.SOLV>
5.72982

>  <SCORE.INTRA.SOLV.lig_0>
-115.028

>  <SCORE.INTRA.VDW>
2.62652

>  <SCORE.INTRA.VDW.0>
-6.82393

>  <SCORE.INTRA.norm>
0.194749

>  <SCORE.RESTR>
4.35476

>  <SCORE.RESTR.CAVITY>
4.35476

>  <SCORE.RESTR.norm>
0.0837453

>  <SCORE.SYSTEM>
0

>  <SCORE.SYSTEM.CONST>
0

>  <SCORE.SYSTEM.DIHEDRAL>
0

>  <SCORE.SYSTEM.SOLV>
0

>  <SCORE.SYSTEM.norm>
0

>  <SCORE.heavy>
52

>  <SCORE.norm>
0.0762628

>  <RMSD>
15.645

$$$$
2fd0_lig
 OpenBabel11021811433D
libRbt.so/2013.1/901 2013/11/27
 52 56  0  0  0  0  0  0  0  0999 V2000
    5.7228  -44.5744   14.0512 C   0  0  2  0  0  0  0  0  0  0  0  0
    5.1902  -45.8430   14.4563 O   0  0  0  0  0  0  0  0  0  0  0  0
    7.0809  -48.3946   17.4240 C   0  0  2  0  0  0  0  0  0  0  0  0
    7.8515  -49.4873   18.0397 N   0  0  0  0  0  0  0  0  0  0  0  0
    8.5107  -44.3206   15.2216 C   0  0  1  0  0  0  0  0  0  0  0  0
    9.4631  -40.1234   14.5077 C   0  0  1  0  0  0  0  0  0  0  0  0
   12.6635  -35.9260   13.8623 C   0  0  1  0  0  0  0  0  0  0  0  0
    4.5252  -43.5917   13.7840 C   0  0  2  0  0  0  0  0  0  0  0  0
    3.6656  -43.4538   14.9514 N   0  0  0  0  0  0  0  0  0  0  0  0
    5.8996  -48.9845   16.5355 C   0  0  0  0  0  0  0  0  0  0  0  0
    9.1038  -43.7681   13.9385 C   0  0  2  0  0  0  0  0  0  0  0  0
   10.5353  -44.0127   13.8425 O   0  0  0  0  0  0  0  0  0  0  0  0
    9.6298  -39.3232   13.1325 C   0  0  2  0  0  0  0  0  0  0  0  0
   10.9685  -39.5836   12.5364 N   0  0  0  0  0  0  0  0  0  0  0  0
   13.5307  -36.4783   15.0158 C   0  0  1  0  0  0  0  0  0  0  0  0
   14.2747  -37.6267   14.5390 O   0  0  0  0  0  0  0  0  0  0  0  0
    3.7077  -44.0550   12.5216 C   0  0  0  0  0  0  0  0  0  0  0  0
    5.0552  -47.7928   15.8750 C   0  0  2  0  0  0  0  0  0  0  0  0
    3.9575  -48.3115   15.0456 N   0  0  0  0  0  0  0  0  0  0  0  0
    8.6760  -42.3104   13.9665 C   0  0  2  0  0  0  0  0  0  0  0  0
    9.7586  -41.4632   14.2404 O   0  0  0  0  0  0  0  0  0  0  0  0
    9.2918  -37.7721   13.4337 C   0  0  1  0  0  0  0  0  0  0  0  0
    7.9662  -37.7065   13.9900 O   0  0  0  0  0  0  0  0  0  0  0  0
   14.5319  -35.5009   15.6892 C   0  0  1  0  0  0  0  0  0  0  0  0
   15.7972  -35.6420   15.0308 O   0  0  0  0  0  0  0  0  0  0  0  0
    4.6889  -44.1719   11.3099 C   0  0  2  0  0  0  0  0  0  0  0  0
    3.9827  -44.5725   10.1399 O   0  0  0  0  0  0  0  0  0  0  0  0
    6.0041  -46.9115   15.0157 C   0  0  2  0  0  0  0  0  0  0  0  0
    7.6908  -42.1057   15.1420 C   0  0  2  0  0  0  0  0  0  0  0  0
    7.4691  -43.4344   15.5925 O   0  0  0  0  0  0  0  0  0  0  0  0
   10.2868  -37.1430   14.5421 C   0  0  2  0  0  0  0  0  0  0  0  0
   11.5917  -37.2137   13.9374 O   0  0  0  0  0  0  0  0  0  0  0  0
   14.1320  -34.0074   15.6839 C   0  0  2  0  0  0  0  0  0  0  0  0
   14.4900  -33.5015   16.9887 O   0  0  0  0  0  0  0  0  0  0  0  0
    5.7985  -45.2107   11.6410 C   0  0  2  0  0  0  0  0  0  0  0  0
    6.5169  -44.7497   12.8496 O   0  0  0  0  0  0  0  0  0  0  0  0
    7.2126  -46.3552   15.8288 C   0  0  2  0  0  0  0  0  0  0  0  0
    8.0391  -45.5946   14.9153 O   0  0  0  0  0  0  0  0  0  0  0  0
    6.3455  -41.4984   14.7603 C   0  0  0  0  0  0  0  0  0  0  0  0
    6.6135  -40.4201   13.8511 O   0  0  0  0  0  0  0  0  0  0  0  0
   10.2468  -38.1005   15.7181 C   0  0  1  0  0  0  0  0  0  0  0  0
   10.3597  -39.5351   15.6125 O   0  0  0  0  0  0  0  0  0  0  0  0
   12.6529  -33.8372   15.3478 C   0  0  2  0  0  0  0  0  0  0  0  0
   12.2178  -34.5301   14.1454 O   0  0  0  0  0  0  0  0  0  0  0  0
    6.7935  -45.3434   10.5321 C   0  0  0  0  0  0  0  0  0  0  0  0
    7.3873  -46.6096   10.6313 O   0  0  0  0  0  0  0  0  0  0  0  0
    8.0173  -47.5394   16.4790 C   0  0  1  0  0  0  0  0  0  0  0  0
    9.1146  -46.9757   17.2776 O   0  0  0  0  0  0  0  0  0  0  0  0
   11.1979  -37.6775   16.8933 C   0  0  0  0  0  0  0  0  0  0  0  0
   11.0404  -38.5058   18.1133 N   0  0  0  0  0  0  0  0  0  0  0  0
   11.9957  -32.4613   15.2647 C   0  0  0  0  0  0  0  0  0  0  0  0
   10.7628  -32.4387   16.0481 O   0  0  0  0  0  0  0  0  0  0  0  0
  1  2  1  6  0  0  0
  1  8  1  0  0  0  0
  1 36  1  0  0  0  0
  3  4  1  6  0  0  0
  3 10  1  0  0  0  0
  3 47  1  0  0  0  0
  5 11  1  0  0  0  0
  5 30  1  0  0  0  0
  5 38  1  6  0  0  0
  6 21  1  6  0  0  0
  6 42  1  0  0  0  0
  7 15  1  0  0  0  0
  7 44  1  0  0  0  0
  7 32  1  1  0  0  0
  8  9  1  1  0  0  0
  8 17  1  0  0  0  0
 11 12  1  1  0  0  0
 11 20  1  0  0  0  0
 13  6  1  0  0  0  0
 13 14  1  1  0  0  0
 15 16  1  6  0  0  0
 15 24  1  0  0  0  0
 17 26  1  0  0  0  0
 18 10  1  0  0  0  0
 18 19  1  6  0  0  0
 20 21  1  1  0  0  0
 20 29  1  0  0  0  0
 22 13  1  0  0  0  0
 22 23  1  1  0  0  0
 24 25  1  6  0  0  0
 24 33  1  0  0  0  0
 26 27  1  6  0  0  0
 26 35  1  0  0  0  0
 28  2  1  1  0  0  0
 28 18  1  0  0  0  0
 29 30  1  0  0  0  0
 29 39  1  6  0  0  0
 31 22  1  0  0  0  0
 31 32  1  6  0  0  0
 31 41  1  0  0  0  0
 33 34  1  1  0  0  0
 33 43  1  0  0  0  0
 35 36  1  0  0  0  0
 35 45  1  6  0  0  0
 37 28  1  0  0  0  0
 37 38  1  6  0  0  0
 39 40  1  0  0  0  0
 41 42  1  0  0  0  0
 41 49  1  1  0  0  0
 43 44  1  0  0  0  0
 43 51  1  6  0  0  0
 45 46  1  0  0  0  0
 47 37  1  0  0  0  0
 47 48  1  1  0  0  0
 49 50  1  0  0  0  0
 51 52  1  0  0  0  0
M  END
>  <CHROM.1>
-168.44401135,-169.78141029,-95.52012350,102.86849751,-169.92226232,155.24913845
-43.79503319,130.50821007,-155.82925636,132.33615449,172.64435725,-130.56631975
8.87918370,-41.42985641,14.59931483,2.30052600,0.69637459,2.69402392

>  <Name>
2fd0_lig

>  <RI>
2.60878e+07

>  <Rbt.Current_Directory>
/home/itssahil/PROJECTS/Mol_Feturizer/New_Systems/rnas/2fd0

>  <Rbt.Executable>
rbdock ($Id: //depot/dev/client3/rdock/2013.1/src/exe/rbdock.cxx#4 $)

>  <Rbt.Library>
libRbt.so (2013.1, Build901 2013/11/27)

>  <Rbt.Parameter_File>
/export/apps/rDock/src/rDock_2013.1_src/data/scripts/dock_solv.prm

>  <Rbt.Receptor>
prm/blind_docking_80.prm

>  <SCORE>
-2.1196

>  <SCORE.INTER>
-11.7102

>  <SCORE.INTER.CONST>
1

>  <SCORE.INTER.POLAR>
-0.957927

>  <SCORE.INTER.ROT>
12

>  <SCORE.INTER.SOLV>
20.733

>  <SCORE.INTER.VDW>
-23.1247

>  <SCORE.INTER.norm>
-0.225196

>  <SCORE.INTRA>
7.87793

>  <SCORE.INTRA.DIHEDRAL>
12.2335

>  <SCORE.INTRA.DIHEDRAL.0>
23.9727

>  <SCORE.INTRA.POLAR>
0

>  <SCORE.INTRA.POLAR.0>
0

>  <SCORE.INTRA.REPUL>
0

>  <SCORE.INTRA.REPUL.0>
0

>  <SCORE.INTRA.SOLV>
-2.95058

>  <SCORE.INTRA.SOLV.lig_0>
-115.028

>  <SCORE.INTRA.VDW>
3.23647

>  <SCORE.INTRA.VDW.0>
-6.82393

>  <SCORE.INTRA.norm>
0.151499

>  <SCORE.RESTR>
1.71265

>  <SCORE.RESTR.CAVITY>
1.71265

>  <SCORE.RESTR.norm>
0.0329356

>  <SCORE.SYSTEM>
0

>  <SCORE.SYSTEM.CONST>
0

>  <SCORE.SYSTEM.DIHEDRAL>
0

>  <SCORE.SYSTEM.SOLV>
0

>  <SCORE.SYSTEM.norm>
0

>  <SCORE.heavy>
52

>  <SCORE.norm>
-0.0407615

>  <RMSD>
15.652

$$$$
2fd0_lig
 OpenBabel11021811433D
libRbt.so/2013.1/901 2013/11/27
 52 56  0  0  0  0  0  0  0  0999 V2000
   13.4485  -35.9264   13.6480 C   0  0  2  0  0  0  0  0  0  0  0  0
   13.2763  -34.8761   14.6093 O   0  0  0  0  0  0  0  0  0  0  0  0
   10.7314  -34.0359   18.0313 C   0  0  2  0  0  0  0  0  0  0  0  0
    9.5381  -33.8024   18.8611 N   0  0  0  0  0  0  0  0  0  0  0  0
   10.7632  -37.8625   15.9486 C   0  0  1  0  0  0  0  0  0  0  0  0
    8.0070  -40.1107   13.1600 C   0  0  1  0  0  0  0  0  0  0  0  0
    9.7654  -44.0020   11.7481 C   0  0  1  0  0  0  0  0  0  0  0  0
   14.6479  -36.8330   14.1075 C   0  0  2  0  0  0  0  0  0  0  0  0
   14.4399  -37.3713   15.4445 N   0  0  0  0  0  0  0  0  0  0  0  0
   10.7798  -32.9950   16.8284 C   0  0  0  0  0  0  0  0  0  0  0  0
   10.3508  -38.0721   14.5031 C   0  0  2  0  0  0  0  0  0  0  0  0
    9.3669  -37.0942   14.0629 O   0  0  0  0  0  0  0  0  0  0  0  0
    7.0009  -41.3042   13.5101 C   0  0  2  0  0  0  0  0  0  0  0  0
    7.6691  -42.3123   14.3775 N   0  0  0  0  0  0  0  0  0  0  0  0
    9.6567  -44.9653   12.9514 C   0  0  1  0  0  0  0  0  0  0  0  0
    8.8772  -46.1227   12.5606 O   0  0  0  0  0  0  0  0  0  0  0  0
   16.0027  -36.0378   14.0141 C   0  0  0  0  0  0  0  0  0  0  0  0
   12.0856  -33.2441   15.9328 C   0  0  2  0  0  0  0  0  0  0  0  0
   12.1531  -32.2957   14.8112 N   0  0  0  0  0  0  0  0  0  0  0  0
    9.9036  -39.5241   14.4843 C   0  0  2  0  0  0  0  0  0  0  0  0
    8.5105  -39.6304   14.3723 O   0  0  0  0  0  0  0  0  0  0  0  0
    6.4159  -41.8667   12.1128 C   0  0  1  0  0  0  0  0  0  0  0  0
    5.7992  -40.7691   11.4157 O   0  0  0  0  0  0  0  0  0  0  0  0
   10.9811  -45.4683   13.5869 C   0  0  1  0  0  0  0  0  0  0  0  0
   11.3236  -46.7139   12.9661 O   0  0  0  0  0  0  0  0  0  0  0  0
   16.1631  -35.4996   12.5549 C   0  0  2  0  0  0  0  0  0  0  0  0
   17.3894  -34.7874   12.4236 O   0  0  0  0  0  0  0  0  0  0  0  0
   12.0661  -34.7035   15.3985 C   0  0  2  0  0  0  0  0  0  0  0  0
   10.2531  -40.1677   15.8475 C   0  0  2  0  0  0  0  0  0  0  0  0
   11.0162  -39.1510   16.4811 O   0  0  0  0  0  0  0  0  0  0  0  0
    7.5891  -42.4221   11.1487 C   0  0  2  0  0  0  0  0  0  0  0  0
    8.1630  -43.5241   11.8765 O   0  0  0  0  0  0  0  0  0  0  0  0
   12.1912  -44.5114   13.4835 C   0  0  2  0  0  0  0  0  0  0  0  0
   12.8574  -44.5827   14.7632 O   0  0  0  0  0  0  0  0  0  0  0  0
   14.9679  -34.5641   12.2141 C   0  0  2  0  0  0  0  0  0  0  0  0
   13.7180  -35.3450   12.3462 O   0  0  0  0  0  0  0  0  0  0  0  0
   11.9608  -35.7622   16.5382 C   0  0  2  0  0  0  0  0  0  0  0  0
   11.9065  -37.0683   15.9158 O   0  0  0  0  0  0  0  0  0  0  0  0
   11.1068  -41.4283   15.7677 C   0  0  0  0  0  0  0  0  0  0  0  0
   10.2160  -42.5242   15.5094 O   0  0  0  0  0  0  0  0  0  0  0  0
    8.6158  -41.3080   11.0701 C   0  0  1  0  0  0  0  0  0  0  0  0
    9.1223  -40.5773   12.2065 O   0  0  0  0  0  0  0  0  0  0  0  0
   11.7447  -43.1017   13.1054 C   0  0  2  0  0  0  0  0  0  0  0  0
   10.8811  -43.0291   11.9373 O   0  0  0  0  0  0  0  0  0  0  0  0
   15.0433  -34.0424   10.8144 C   0  0  0  0  0  0  0  0  0  0  0  0
   16.2541  -33.3497   10.6742 O   0  0  0  0  0  0  0  0  0  0  0  0
   10.6820  -35.4903   17.4119 C   0  0  1  0  0  0  0  0  0  0  0  0
   10.6443  -36.4731   18.5037 O   0  0  0  0  0  0  0  0  0  0  0  0
    9.8698  -41.6819   10.2029 C   0  0  0  0  0  0  0  0  0  0  0  0
   10.4770  -40.5230    9.5046 N   0  0  0  0  0  0  0  0  0  0  0  0
   12.7412  -41.9587   12.9256 C   0  0  0  0  0  0  0  0  0  0  0  0
   13.7386  -41.9814   13.9929 O   0  0  0  0  0  0  0  0  0  0  0  0
  1  2  1  1  0  0  0
  1  8  1  0  0  0  0
  1 36  1  0  0  0  0
  3  4  1  6  0  0  0
  3 10  1  0  0  0  0
  3 47  1  0  0  0  0
  5 11  1  0  0  0  0
  5 30  1  0  0  0  0
  5 38  1  6  0  0  0
  6 21  1  1  0  0  0
  6 42  1  0  0  0  0
  7 15  1  0  0  0  0
  7 44  1  0  0  0  0
  7 32  1  1  0  0  0
  8  9  1  1  0  0  0
  8 17  1  0  0  0  0
 11 12  1  1  0  0  0
 11 20  1  0  0  0  0
 13  6  1  0  0  0  0
 13 14  1  6  0  0  0
 15 16  1  6  0  0  0
 15 24  1  0  0  0  0
 17 26  1  0  0  0  0
 18 10  1  0  0  0  0
 18 19  1  6  0  0  0
 20 21  1  1  0  0  0
 20 29  1  0  0  0  0
 22 13  1  0  0  0  0
 22 23  1  6  0  0  0
 24 25  1  6  0  0  0
 24 33  1  0  0  0  0
 26 27  1  1  0  0  0
 26 35  1  0  0  0  0
 28  2  1  1  0  0  0
 28 18  1  0  0  0  0
 29 30  1  0  0  0  0
 29 39  1  6  0  0  0
 31 22  1  0  0  0  0
 31 32  1  1  0  0  0
 31 41  1  0  0  0  0
 33 34  1  1  0  0  0
 33 43  1  0  0  0  0
 35 36  1  0  0  0  0
 35 45  1  6  0  0  0
 37 28  1  0  0  0  0
 37 38  1  6  0  0  0
 39 40  1  0  0  0  0
 41 42  1  0  0  0  0
 41 49  1  1  0  0  0
 43 44  1  0  0  0  0
 43 51  1  6  0  0  0
 45 46  1  0  0  0  0
 47 37  1  0  0  0  0
 47 48  1  1  0  0  0
 49 50  1  0  0  0  0
 51 52  1  0  0  0  0
M  END
>  <CHROM.1>
-117.81672571,119.11556673,128.57019907,169.79388877,109.66149196,-161.49314858
-83.00350157,-150.27098347,-58.46025319,-111.78028047,148.42748943,-43.24828742
11.22322224,-39.12732108,13.88405057,-1.10369313,-0.52793419,-2.67963395

>  <Name>
2fd0_lig

>  <RI>
0

>  <Rbt.Current_Directory>
/home/itssahil/PROJECTS/Mol_Feturizer/New_Systems/rnas/2fd0

>  <Rbt.Executable>
rbdock ($Id: //depot/dev/client3/rdock/2013.1/src/exe/rbdock.cxx#4 $)

>  <Rbt.Library>
libRbt.so (2013.1, Build901 2013/11/27)

>  <Rbt.Parameter_File>
/export/apps/rDock/src/rDock_2013.1_src/data/scripts/dock_solv.prm

>  <Rbt.Receptor>
prm/blind_docking_100.prm

>  <SCORE>
12.4812

>  <SCORE.INTER>
-10.9653

>  <SCORE.INTER.CONST>
1

>  <SCORE.INTER.POLAR>
-0.931873

>  <SCORE.INTER.ROT>
12

>  <SCORE.INTER.SOLV>
31.7598

>  <SCORE.INTER.VDW>
-26.3906

>  <SCORE.INTER.norm>
-0.210872

>  <SCORE.INTRA>
21.2429

>  <SCORE.INTRA.DIHEDRAL>
22.2773

>  <SCORE.INTRA.DIHEDRAL.0>
23.9727

>  <SCORE.INTRA.POLAR>
0

>  <SCORE.INTRA.POLAR.0>
0

>  <SCORE.INTRA.REPUL>
0.0860755

>  <SCORE.INTRA.REPUL.0>
0

>  <SCORE.INTRA.SOLV>
4.23327

>  <SCORE.INTRA.SOLV.lig_0>
-115.028

>  <SCORE.INTRA.VDW>
7.55722

>  <SCORE.INTRA.VDW.0>
-6.82393

>  <SCORE.INTRA.norm>
0.408517

>  <SCORE.RESTR>
2.20361

>  <SCORE.RESTR.CAVITY>
2.20361

>  <SCORE.RESTR.norm>
0.0423771

>  <SCORE.SYSTEM>
0

>  <SCORE.SYSTEM.CONST>
0

>  <SCORE.SYSTEM.DIHEDRAL>
0

>  <SCORE.SYSTEM.SOLV>
0

>  <SCORE.SYSTEM.norm>
0

>  <SCORE.heavy>
52

>  <SCORE.norm>
0.240022

>  <RMSD>
15.663

$$$$
2fd0_lig
 OpenBabel11021811433D
libRbt.so/2013.1/901 2013/11/27
 52 56  0  0  0  0  0  0  0  0999 V2000
   13.6437  -34.6433   17.8469 C   0  0  2  0  0  0  0  0  0  0  0  0
   13.6557  -34.3069   16.4528 O   0  0  0  0  0  0  0  0  0  0  0  0
   15.5757  -35.5918   12.7710 C   0  0  2  0  0  0  0  0  0  0  0  0
   16.1503  -36.4474   11.7200 N   0  0  0  0  0  0  0  0  0  0  0  0
   11.5822  -36.6516   14.4601 C   0  0  1  0  0  0  0  0  0  0  0  0
   10.0242  -39.8384   14.9695 C   0  0  1  0  0  0  0  0  0  0  0  0
    8.9186  -44.9144   14.9685 C   0  0  1  0  0  0  0  0  0  0  0  0
   12.1633  -34.9580   18.2725 C   0  0  2  0  0  0  0  0  0  0  0  0
   11.5826  -36.0240   17.4680 N   0  0  0  0  0  0  0  0  0  0  0  0
   16.3088  -35.8544   14.1590 C   0  0  0  0  0  0  0  0  0  0  0  0
   10.0751  -36.5805   14.6249 C   0  0  2  0  0  0  0  0  0  0  0  0
    9.6749  -36.5296   16.0232 O   0  0  0  0  0  0  0  0  0  0  0  0
    9.8284  -40.9536   13.8393 C   0  0  2  0  0  0  0  0  0  0  0  0
    8.3962  -41.3452   13.7354 N   0  0  0  0  0  0  0  0  0  0  0  0
    7.5055  -44.5249   14.4792 C   0  0  1  0  0  0  0  0  0  0  0  0
    7.6265  -43.7140   13.2844 O   0  0  0  0  0  0  0  0  0  0  0  0
   11.2869  -33.6524   18.2128 C   0  0  0  0  0  0  0  0  0  0  0  0
   15.6890  -34.9138   15.2994 C   0  0  2  0  0  0  0  0  0  0  0  0
   16.3480  -35.1390   16.5943 N   0  0  0  0  0  0  0  0  0  0  0  0
    9.5897  -37.7843   13.8350 C   0  0  2  0  0  0  0  0  0  0  0  0
    9.1308  -38.8025   14.6820 O   0  0  0  0  0  0  0  0  0  0  0  0
   10.8568  -42.1563   14.1660 C   0  0  1  0  0  0  0  0  0  0  0  0
   12.1846  -41.6037   14.2167 O   0  0  0  0  0  0  0  0  0  0  0  0
    6.5089  -45.6776   14.1808 C   0  0  1  0  0  0  0  0  0  0  0  0
    6.6088  -45.9979   12.7874 O   0  0  0  0  0  0  0  0  0  0  0  0
   11.9630  -32.5592   19.1030 C   0  0  2  0  0  0  0  0  0  0  0  0
   11.1886  -31.3641   19.0904 O   0  0  0  0  0  0  0  0  0  0  0  0
   14.1651  -35.1951   15.4190 C   0  0  2  0  0  0  0  0  0  0  0  0
   10.7914  -38.3962   13.0761 C   0  0  2  0  0  0  0  0  0  0  0  0
   11.8198  -37.4448   13.3103 O   0  0  0  0  0  0  0  0  0  0  0  0
   10.5762  -42.8113   15.6174 C   0  0  2  0  0  0  0  0  0  0  0  0
    9.2503  -43.3637   15.5140 O   0  0  0  0  0  0  0  0  0  0  0  0
    6.7005  -46.9723   15.0040 C   0  0  2  0  0  0  0  0  0  0  0  0
    5.3706  -47.4149   15.3531 O   0  0  0  0  0  0  0  0  0  0  0  0
   13.3945  -32.2688   18.5680 C   0  0  2  0  0  0  0  0  0  0  0  0
   14.1689  -33.5289   18.6134 O   0  0  0  0  0  0  0  0  0  0  0  0
   13.4087  -35.0074   14.0686 C   0  0  2  0  0  0  0  0  0  0  0  0
   12.0183  -35.3391   14.2983 O   0  0  0  0  0  0  0  0  0  0  0  0
   10.6019  -38.5360   11.5698 C   0  0  0  0  0  0  0  0  0  0  0  0
    9.7589  -39.6783   11.3560 O   0  0  0  0  0  0  0  0  0  0  0  0
   10.5403  -41.6484   16.5910 C   0  0  1  0  0  0  0  0  0  0  0  0
    9.8102  -40.4221   16.3781 O   0  0  0  0  0  0  0  0  0  0  0  0
    7.5987  -46.7252   16.2131 C   0  0  2  0  0  0  0  0  0  0  0  0
    8.8618  -46.0709   15.9100 O   0  0  0  0  0  0  0  0  0  0  0  0
   14.1110  -31.2537   19.4007 C   0  0  0  0  0  0  0  0  0  0  0  0
   13.5302  -30.0018   19.1536 O   0  0  0  0  0  0  0  0  0  0  0  0
   14.0420  -35.9277   12.9620 C   0  0  1  0  0  0  0  0  0  0  0  0
   13.3390  -35.6859   11.6944 O   0  0  0  0  0  0  0  0  0  0  0  0
   10.2297  -42.0856   18.0664 C   0  0  0  0  0  0  0  0  0  0  0  0
   10.0674  -40.9468   19.0025 N   0  0  0  0  0  0  0  0  0  0  0  0
    7.9617  -47.8396   17.1920 C   0  0  0  0  0  0  0  0  0  0  0  0
    8.4689  -49.0045   16.4708 O   0  0  0  0  0  0  0  0  0  0  0  0
  1  2  1  6  0  0  0
  1  8  1  0  0  0  0
  1 36  1  0  0  0  0
  3  4  1  6  0  0  0
  3 10  1  0  0  0  0
  3 47  1  0  0  0  0
  5 11  1  0  0  0  0
  5 30  1  0  0  0  0
  5 38  1  6  0  0  0
  6 21  1  6  0  0  0
  6 42  1  0  0  0  0
  7 15  1  0  0  0  0
  7 44  1  0  0  0  0
  7 32  1  1  0  0  0
  8  9  1  6  0  0  0
  8 17  1  0  0  0  0
 11 12  1  1  0  0  0
 11 20  1  0  0  0  0
 13  6  1  0  0  0  0
 13 14  1  1  0  0  0
 15 16  1  6  0  0  0
 15 24  1  0  0  0  0
 17 26  1  0  0  0  0
 18 10  1  0  0  0  0
 18 19  1  1  0  0  0
 20 21  1  1  0  0  0
 20 29  1  0  0  0  0
 22 13  1  0  0  0  0
 22 23  1  1  0  0  0
 24 25  1  6  0  0  0
 24 33  1  0  0  0  0
 26 27  1  6  0  0  0
 26 35  1  0  0  0  0
 28  2  1  1  0  0  0
 28 18  1  0  0  0  0
 29 30  1  0  0  0  0
 29 39  1  6  0  0  0
 31 22  1  0  0  0  0
 31 32  1  6  0  0  0
 31 41  1  0  0  0  0
 33 34  1  1  0  0  0
 33 43  1  0  0  0  0
 35 36  1  0  0  0  0
 35 45  1  1  0  0  0
 37 28  1  0  0  0  0
 37 38  1  1  0  0  0
 39 40  1  0  0  0  0
 41 42  1  0  0  0  0
 41 49  1  1  0  0  0
 43 44  1  0  0  0  0
 43 51  1  6  0  0  0
 45 46  1  0  0  0  0
 47 37  1  0  0  0  0
 47 48  1  6  0  0  0
 49 50  1  0  0  0  0
 51 52  1  0  0  0  0
M  END
>  <CHROM.1>
-106.49140069,-177.97302649,-89.10998964,-153.37116092,-97.62424102,-87.65775598
-77.14029826,88.31707496,-72.13696041,-73.91167116,-174.61432409,51.04084948
11.01637493,-38.98658052,15.42180898,0.62704626,1.01460231,0.99795225

>  <Name>
2fd0_lig

>  <RI>
0

>  <Rbt.Current_Directory>
/home/itssahil/PROJECTS/Mol_Feturizer/New_Systems/rnas/2fd0

>  <Rbt.Executable>
rbdock ($Id: //depot/dev/client3/rdock/2013.1/src/exe/rbdock.cxx#4 $)

>  <Rbt.Library>
libRbt.so (2013.1, Build901 2013/11/27)

>  <Rbt.Parameter_File>
/export/apps/rDock/src/rDock_2013.1_src/data/scripts/dock_solv.prm

>  <Rbt.Receptor>
prm/blind_docking_100.prm

>  <SCORE>
9.01652

>  <SCORE.INTER>
-10.1862

>  <SCORE.INTER.CONST>
1

>  <SCORE.INTER.POLAR>
-1.31022

>  <SCORE.INTER.ROT>
12

>  <SCORE.INTER.SOLV>
23.0929

>  <SCORE.INTER.VDW>
-21.721

>  <SCORE.INTER.norm>
-0.195888

>  <SCORE.INTRA>
13.4694

>  <SCORE.INTRA.DIHEDRAL>
4.34225

>  <SCORE.INTRA.DIHEDRAL.0>
23.9727

>  <SCORE.INTRA.POLAR>
0

>  <SCORE.INTRA.POLAR.0>
0

>  <SCORE.INTRA.REPUL>
0

>  <SCORE.INTRA.REPUL.0>
0

>  <SCORE.INTRA.SOLV>
4.59911

>  <SCORE.INTRA.SOLV.lig_0>
-115.028

>  <SCORE.INTRA.VDW>
8.99872

>  <SCORE.INTRA.VDW.0>
-6.82393

>  <SCORE.INTRA.norm>
0.259027

>  <SCORE.RESTR>
5.73331

>  <SCORE.RESTR.CAVITY>
5.73331

>  <SCORE.RESTR.norm>
0.110256

>  <SCORE.SYSTEM>
0

>  <SCORE.SYSTEM.CONST>
0

>  <SCORE.SYSTEM.DIHEDRAL>
0

>  <SCORE.SYSTEM.SOLV>
0

>  <SCORE.SYSTEM.norm>
0

>  <SCORE.heavy>
52

>  <SCORE.norm>
0.173395

>  <RMSD>
15.751

$$$$
2fd0_lig
 OpenBabel11021811433D
libRbt.so/2013.1/901 2013/11/27
 52 56  0  0  0  0  0  0  0  0999 V2000
   15.0377  -36.1366   13.8265 C   0  0  2  0  0  0  0  0  0  0  0  0
   14.8242  -35.4310   15.0568 O   0  0  0  0  0  0  0  0  0  0  0  0
   11.2885  -33.4895   16.6759 C   0  0  2  0  0  0  0  0  0  0  0  0
   10.2356  -32.4932   16.9325 N   0  0  0  0  0  0  0  0  0  0  0  0
   11.9064  -36.5806   13.0036 C   0  0  1  0  0  0  0  0  0  0  0  0
   11.5882  -41.0106   14.0758 C   0  0  1  0  0  0  0  0  0  0  0  0
    7.5936  -43.6173   14.5110 C   0  0  1  0  0  0  0  0  0  0  0  0
   16.4234  -36.8746   13.9073 C   0  0  2  0  0  0  0  0  0  0  0  0
   16.4928  -37.7748   15.0499 N   0  0  0  0  0  0  0  0  0  0  0  0
   12.7217  -32.8703   16.9848 C   0  0  0  0  0  0  0  0  0  0  0  0
   12.5275  -37.6548   13.8776 C   0  0  2  0  0  0  0  0  0  0  0  0
   13.7431  -38.2044   13.2959 O   0  0  0  0  0  0  0  0  0  0  0  0
   10.6443  -42.0369   13.2914 C   0  0  2  0  0  0  0  0  0  0  0  0
    9.3055  -41.4336   13.0489 N   0  0  0  0  0  0  0  0  0  0  0  0
    8.2695  -44.9852   14.7556 C   0  0  1  0  0  0  0  0  0  0  0  0
    8.0107  -45.4025   16.1190 O   0  0  0  0  0  0  0  0  0  0  0  0
   17.6000  -35.8298   13.9284 C   0  0  0  0  0  0  0  0  0  0  0  0
   13.8656  -33.9603   16.7154 C   0  0  2  0  0  0  0  0  0  0  0  0
   15.2017  -33.4119   16.9911 N   0  0  0  0  0  0  0  0  0  0  0  0
   11.3824  -38.6330   14.0791 C   0  0  2  0  0  0  0  0  0  0  0  0
   11.5832  -39.8146   13.3523 O   0  0  0  0  0  0  0  0  0  0  0  0
   10.6431  -43.4223   14.1232 C   0  0  1  0  0  0  0  0  0  0  0  0
   12.0065  -43.8644   14.2513 O   0  0  0  0  0  0  0  0  0  0  0  0
    7.8799  -46.1545   13.8112 C   0  0  1  0  0  0  0  0  0  0  0  0
    6.8065  -46.8790   14.4253 O   0  0  0  0  0  0  0  0  0  0  0  0
   17.4674  -34.9071   12.6731 C   0  0  2  0  0  0  0  0  0  0  0  0
   18.5273  -33.9563   12.6453 O   0  0  0  0  0  0  0  0  0  0  0  0
   13.7776  -34.4367   15.2386 C   0  0  2  0  0  0  0  0  0  0  0  0
   10.0909  -38.0108   13.4967 C   0  0  2  0  0  0  0  0  0  0  0  0
   10.5040  -36.6906   13.1739 O   0  0  0  0  0  0  0  0  0  0  0  0
   10.0820  -43.2219   15.6263 C   0  0  2  0  0  0  0  0  0  0  0  0
    8.7172  -42.7982   15.4487 O   0  0  0  0  0  0  0  0  0  0  0  0
    7.4572  -45.7587   12.3776 C   0  0  2  0  0  0  0  0  0  0  0  0
    8.0641  -46.7377   11.5060 O   0  0  0  0  0  0  0  0  0  0  0  0
   16.0971  -34.1721   12.7136 C   0  0  2  0  0  0  0  0  0  0  0  0
   15.0258  -35.1927   12.7246 O   0  0  0  0  0  0  0  0  0  0  0  0
   12.3716  -35.0002   14.8688 C   0  0  2  0  0  0  0  0  0  0  0  0
   12.4033  -35.3655   13.4682 O   0  0  0  0  0  0  0  0  0  0  0  0
    8.9200  -37.9222   14.4691 C   0  0  0  0  0  0  0  0  0  0  0  0
    9.3992  -37.2515   15.6446 O   0  0  0  0  0  0  0  0  0  0  0  0
   10.8745  -42.0666   16.2082 C   0  0  1  0  0  0  0  0  0  0  0  0
   11.1216  -40.8170   15.5302 O   0  0  0  0  0  0  0  0  0  0  0  0
    7.8670  -44.3228   12.0620 C   0  0  2  0  0  0  0  0  0  0  0  0
    7.4538  -43.3399   13.0513 O   0  0  0  0  0  0  0  0  0  0  0  0
   15.8924  -33.2975   11.5176 C   0  0  0  0  0  0  0  0  0  0  0  0
   16.2331  -34.0368   10.3761 O   0  0  0  0  0  0  0  0  0  0  0  0
   11.2646  -33.9206   15.1544 C   0  0  1  0  0  0  0  0  0  0  0  0
    9.9519  -34.5037   14.8441 O   0  0  0  0  0  0  0  0  0  0  0  0
   10.4356  -41.6874   17.6669 C   0  0  0  0  0  0  0  0  0  0  0  0
    9.9741  -42.8461   18.4693 N   0  0  0  0  0  0  0  0  0  0  0  0
    7.5616  -43.6722   10.7146 C   0  0  0  0  0  0  0  0  0  0  0  0
    6.1181  -43.5919   10.5045 O   0  0  0  0  0  0  0  0  0  0  0  0
  1  2  1  1  0  0  0
  1  8  1  0  0  0  0
  1 36  1  0  0  0  0
  3  4  1  6  0  0  0
  3 10  1  0  0  0  0
  3 47  1  0  0  0  0
  5 11  1  0  0  0  0
  5 30  1  0  0  0  0
  5 38  1  1  0  0  0
  6 21  1  6  0  0  0
  6 42  1  0  0  0  0
  7 15  1  0  0  0  0
  7 44  1  0  0  0  0
  7 32  1  6  0  0  0
  8  9  1  1  0  0  0
  8 17  1  0  0  0  0
 11 12  1  6  0  0  0
 11 20  1  0  0  0  0
 13  6  1  0  0  0  0
 13 14  1  1  0  0  0
 15 16  1  1  0  0  0
 15 24  1  0  0  0  0
 17 26  1  0  0  0  0
 18 10  1  0  0  0  0
 18 19  1  6  0  0  0
 20 21  1  6  0  0  0
 20 29  1  0  0  0  0
 22 13  1  0  0  0  0
 22 23  1  1  0  0  0
 24 25  1  1  0  0  0
 24 33  1  0  0  0  0
 26 27  1  1  0  0  0
 26 35  1  0  0  0  0
 28  2  1  1  0  0  0
 28 18  1  0  0  0  0
 29 30  1  0  0  0  0
 29 39  1  1  0  0  0
 31 22  1  0  0  0  0
 31 32  1  6  0  0  0
 31 41  1  0  0  0  0
 33 34  1  6  0  0  0
 33 43  1  0  0  0  0
 35 36  1  0  0  0  0
 35 45  1  6  0  0  0
 37 28  1  0  0  0  0
 37 38  1  6  0  0  0
 39 40  1  0  0  0  0
 41 42  1  0  0  0  0
 41 49  1  1  0  0  0
 43 44  1  0  0  0  0
 43 51  1  6  0  0  0
 45 46  1  0  0  0  0
 47 37  1  0  0  0  0
 47 48  1  1  0  0  0
 49 50  1  0  0  0  0
 51 52  1  0  0  0  0
M  END
>  <CHROM.1>
167.69870078,-50.21568027,132.67875340,29.08337476,122.92474491,178.10737667
52.82030115,52.49131501,47.01251520,133.56552035,32.73491394,62.43262193
11.54119056,-39.01756164,14.16944335,-0.86571690,-0.57216257,-2.67342343

>  <Name>
2fd0_lig

>  <RI>
0

>  <Rbt.Current_Directory>
/home/itssahil/PROJECTS/Mol_Feturizer/New_Systems/rnas/2fd0

>  <Rbt.Executable>
rbdock ($Id: //depot/dev/client3/rdock/2013.1/src/exe/rbdock.cxx#4 $)

>  <Rbt.Library>
libRbt.so (2013.1, Build901 2013/11/27)

>  <Rbt.Parameter_File>
/export/apps/rDock/src/rDock_2013.1_src/data/scripts/dock_solv.prm

>  <Rbt.Receptor>
prm/blind_docking_100.prm

>  <SCORE>
16.6471

>  <SCORE.INTER>
0.474257

>  <SCORE.INTER.CONST>
1

>  <SCORE.INTER.POLAR>
-1.15721

>  <SCORE.INTER.ROT>
12

>  <SCORE.INTER.SOLV>
33.2152

>  <SCORE.INTER.VDW>
-18.4982

>  <SCORE.INTER.norm>
0.00912032

>  <SCORE.INTRA>
10.26

>  <SCORE.INTRA.DIHEDRAL>
5.19735

>  <SCORE.INTRA.DIHEDRAL.0>
23.9727

>  <SCORE.INTRA.POLAR>
0

>  <SCORE.INTRA.POLAR.0>
0

>  <SCORE.INTRA.REPUL>
0

>  <SCORE.INTRA.REPUL.0>
0

>  <SCORE.INTRA.SOLV>
3.37563

>  <SCORE.INTRA.SOLV.lig_0>
-115.028

>  <SCORE.INTRA.VDW>
5.97355

>  <SCORE.INTRA.VDW.0>
-6.82393

>  <SCORE.INTRA.norm>
0.197308

>  <SCORE.RESTR>
5.91284

>  <SCORE.RESTR.CAVITY>
5.91284

>  <SCORE.RESTR.norm>
0.113708

>  <SCORE.SYSTEM>
0

>  <SCORE.SYSTEM.CONST>
0

>  <SCORE.SYSTEM.DIHEDRAL>
0

>  <SCORE.SYSTEM.SOLV>
0

>  <SCORE.SYSTEM.norm>
0

>  <SCORE.heavy>
52

>  <SCORE.norm>
0.320137

>  <RMSD>
15.758

$$$$
2fd0_lig
 OpenBabel11021811433D
libRbt.so/2013.1/901 2013/11/27
 52 56  0  0  0  0  0  0  0  0999 V2000
    5.3247  -47.0873   13.4956 C   0  0  2  0  0  0  0  0  0  0  0  0
    6.6314  -47.6757   13.4390 O   0  0  0  0  0  0  0  0  0  0  0  0
    7.7679  -47.9990   17.6218 C   0  0  2  0  0  0  0  0  0  0  0  0
    8.5533  -48.2542   18.8405 N   0  0  0  0  0  0  0  0  0  0  0  0
    8.6861  -44.3634   15.0785 C   0  0  1  0  0  0  0  0  0  0  0  0
    9.5648  -40.0413   14.6950 C   0  0  1  0  0  0  0  0  0  0  0  0
   12.6709  -35.7858   13.9310 C   0  0  1  0  0  0  0  0  0  0  0  0
    4.4028  -47.8152   12.4508 C   0  0  2  0  0  0  0  0  0  0  0  0
    4.3448  -49.2512   12.6862 N   0  0  0  0  0  0  0  0  0  0  0  0
    7.6680  -49.3216   16.7423 C   0  0  0  0  0  0  0  0  0  0  0  0
    9.3719  -43.6672   13.9173 C   0  0  2  0  0  0  0  0  0  0  0  0
   10.8150  -43.8552   13.9360 O   0  0  0  0  0  0  0  0  0  0  0  0
    9.7770  -39.2977   13.2945 C   0  0  2  0  0  0  0  0  0  0  0  0
   11.1467  -39.5525   12.7708 N   0  0  0  0  0  0  0  0  0  0  0  0
   13.9450  -36.6427   14.1043 C   0  0  1  0  0  0  0  0  0  0  0  0
   14.1494  -37.4325   12.9067 O   0  0  0  0  0  0  0  0  0  0  0  0
    4.8760  -47.4934   10.9848 C   0  0  0  0  0  0  0  0  0  0  0  0
    6.8032  -49.0443   15.4215 C   0  0  2  0  0  0  0  0  0  0  0  0
    6.6976  -50.2515   14.5887 N   0  0  0  0  0  0  0  0  0  0  0  0
    8.8838  -42.2339   14.0442 C   0  0  2  0  0  0  0  0  0  0  0  0
    9.9007  -41.3841   14.5009 O   0  0  0  0  0  0  0  0  0  0  0  0
    9.3926  -37.7433   13.5112 C   0  0  1  0  0  0  0  0  0  0  0  0
    8.0420  -37.6845   14.0044 O   0  0  0  0  0  0  0  0  0  0  0  0
   15.2699  -35.8983   14.4228 C   0  0  1  0  0  0  0  0  0  0  0  0
   15.9395  -35.6386   13.1825 O   0  0  0  0  0  0  0  0  0  0  0  0
    4.9052  -45.9409   10.8020 C   0  0  2  0  0  0  0  0  0  0  0  0
    5.3121  -45.6074    9.4786 O   0  0  0  0  0  0  0  0  0  0  0  0
    7.4634  -47.8930   14.6127 C   0  0  2  0  0  0  0  0  0  0  0  0
    7.7866  -42.1789   15.1340 C   0  0  2  0  0  0  0  0  0  0  0  0
    7.5791  -43.5522   15.4312 O   0  0  0  0  0  0  0  0  0  0  0  0
   10.3224  -37.0438   14.6339 C   0  0  2  0  0  0  0  0  0  0  0  0
   11.6548  -37.1103   14.0918 O   0  0  0  0  0  0  0  0  0  0  0  0
   15.1329  -34.5698   15.2020 C   0  0  2  0  0  0  0  0  0  0  0  0
   16.2075  -34.5694   16.1673 O   0  0  0  0  0  0  0  0  0  0  0  0
    5.8897  -45.3169   11.8322 C   0  0  2  0  0  0  0  0  0  0  0  0
    5.4229  -45.6721   13.1906 O   0  0  0  0  0  0  0  0  0  0  0  0
    7.6370  -46.5892   15.4501 C   0  0  2  0  0  0  0  0  0  0  0  0
    8.2977  -45.6149   14.6074 O   0  0  0  0  0  0  0  0  0  0  0  0
    6.4585  -41.5798   14.6851 C   0  0  0  0  0  0  0  0  0  0  0  0
    6.7231  -40.2295   14.2754 O   0  0  0  0  0  0  0  0  0  0  0  0
   10.2493  -37.9501   15.8483 C   0  0  1  0  0  0  0  0  0  0  0  0
   10.3974  -39.3849   15.8115 O   0  0  0  0  0  0  0  0  0  0  0  0
   13.7477  -34.4432   15.8304 C   0  0  2  0  0  0  0  0  0  0  0  0
   12.6404  -34.6627   14.9132 O   0  0  0  0  0  0  0  0  0  0  0  0
    5.9367  -43.8253   11.7330 C   0  0  0  0  0  0  0  0  0  0  0  0
    4.6695  -43.3280   12.0684 O   0  0  0  0  0  0  0  0  0  0  0  0
    8.4750  -46.8874   16.7468 C   0  0  1  0  0  0  0  0  0  0  0  0
    8.5733  -45.6507   17.5344 O   0  0  0  0  0  0  0  0  0  0  0  0
   11.1366  -37.4546   17.0448 C   0  0  0  0  0  0  0  0  0  0  0  0
   10.6001  -36.2504   17.7242 N   0  0  0  0  0  0  0  0  0  0  0  0
   13.3398  -33.2202   16.6488 C   0  0  0  0  0  0  0  0  0  0  0  0
   14.2214  -33.0643   17.8034 O   0  0  0  0  0  0  0  0  0  0  0  0
  1  2  1  6  0  0  0
  1  8  1  0  0  0  0
  1 36  1  0  0  0  0
  3  4  1  1  0  0  0
  3 10  1  0  0  0  0
  3 47  1  0  0  0  0
  5 11  1  0  0  0  0
  5 30  1  0  0  0  0
  5 38  1  6  0  0  0
  6 21  1  6  0  0  0
  6 42  1  0  0  0  0
  7 15  1  0  0  0  0
  7 44  1  0  0  0  0
  7 32  1  1  0  0  0
  8  9  1  1  0  0  0
  8 17  1  0  0  0  0
 11 12  1  1  0  0  0
 11 20  1  0  0  0  0
 13  6  1  0  0  0  0
 13 14  1  1  0  0  0
 15 16  1  6  0  0  0
 15 24  1  0  0  0  0
 17 26  1  0  0  0  0
 18 10  1  0  0  0  0
 18 19  1  6  0  0  0
 20 21  1  1  0  0  0
 20 29  1  0  0  0  0
 22 13  1  0  0  0  0
 22 23  1  1  0  0  0
 24 25  1  6  0  0  0
 24 33  1  0  0  0  0
 26 27  1  6  0  0  0
 26 35  1  0  0  0  0
 28  2  1  6  0  0  0
 28 18  1  0  0  0  0
 29 30  1  0  0  0  0
 29 39  1  6  0  0  0
 31 22  1  0  0  0  0
 31 32  1  6  0  0  0
 31 41  1  0  0  0  0
 33 34  1  1  0  0  0
 33 43  1  0  0  0  0
 35 36  1  0  0  0  0
 35 45  1  1  0  0  0
 37 28  1  0  0  0  0
 37 38  1  6  0  0  0
 39 40  1  0  0  0  0
 41 42  1  0  0  0  0
 41 49  1  1  0  0  0
 43 44  1  0  0  0  0
 43 51  1  6  0  0  0
 45 46  1  0  0  0  0
 47 37  1  0  0  0  0
 47 48  1  1  0  0  0
 49 50  1  0  0  0  0
 51 52  1  0  0  0  0
M  END
>  <CHROM.1>
-142.41438641,178.32141241,-87.30459014,150.19271655,-178.26901312,70.88601246
-60.78753544,127.04128531,63.90046764,-175.59717748,72.08205136,-60.00225192
9.28522352,-41.76536706,14.48967845,2.41698239,0.81850908,2.56270443

>  <Name>
2fd0_lig

>  <RI>
2.60878e+07

>  <Rbt.Current_Directory>
/home/itssahil/PROJECTS/Mol_Feturizer/New_Systems/rnas/2fd0

>  <Rbt.Executable>
rbdock ($Id: //depot/dev/client3/rdock/2013.1/src/exe/rbdock.cxx#4 $)

>  <Rbt.Library>
libRbt.so (2013.1, Build901 2013/11/27)

>  <Rbt.Parameter_File>
/export/apps/rDock/src/rDock_2013.1_src/data/scripts/dock_solv.prm

>  <Rbt.Receptor>
prm/blind_docking_80.prm

>  <SCORE>
-22.4539

>  <SCORE.INTER>
-23.9512

>  <SCORE.INTER.CONST>
1

>  <SCORE.INTER.POLAR>
-1.87304

>  <SCORE.INTER.ROT>
12

>  <SCORE.INTER.SOLV>
20.772

>  <SCORE.INTER.VDW>
-28.248

>  <SCORE.INTER.norm>
-0.4606

>  <SCORE.INTRA>
-1.00702

>  <SCORE.INTRA.DIHEDRAL>
-3.03224

>  <SCORE.INTRA.DIHEDRAL.0>
23.9727

>  <SCORE.INTRA.POLAR>
0

>  <SCORE.INTRA.POLAR.0>
0

>  <SCORE.INTRA.REPUL>
0

>  <SCORE.INTRA.REPUL.0>
0

>  <SCORE.INTRA.SOLV>
0.400834

>  <SCORE.INTRA.SOLV.lig_0>
-115.028

>  <SCORE.INTRA.VDW>
0.308685

>  <SCORE.INTRA.VDW.0>
-6.82393

>  <SCORE.INTRA.norm>
-0.0193657

>  <SCORE.RESTR>
2.50431

>  <SCORE.RESTR.CAVITY>
2.50431

>  <SCORE.RESTR.norm>
0.0481598

>  <SCORE.SYSTEM>
0

>  <SCORE.SYSTEM.CONST>
0

>  <SCORE.SYSTEM.DIHEDRAL>
0

>  <SCORE.SYSTEM.SOLV>
0

>  <SCORE.SYSTEM.norm>
0

>  <SCORE.heavy>
52

>  <SCORE.norm>
-0.431805

>  <RMSD>
15.818

$$$$
2fd0_lig
 OpenBabel11021811433D
libRbt.so/2013.1/901 2013/11/27
 52 56  0  0  0  0  0  0  0  0999 V2000
    5.2640  -43.4246   12.4882 C   0  0  2  0  0  0  0  0  0  0  0  0
    4.9263  -44.4115   13.4726 O   0  0  0  0  0  0  0  0  0  0  0  0
    7.5900  -47.3404   15.2668 C   0  0  2  0  0  0  0  0  0  0  0  0
    8.3245  -48.5908   15.5196 N   0  0  0  0  0  0  0  0  0  0  0  0
    8.5262  -44.0050   12.0009 C   0  0  1  0  0  0  0  0  0  0  0  0
    9.7779  -40.1865   13.5541 C   0  0  1  0  0  0  0  0  0  0  0  0
   12.4486  -35.6654   14.0841 C   0  0  1  0  0  0  0  0  0  0  0  0
    4.4542  -42.1130   12.7970 C   0  0  2  0  0  0  0  0  0  0  0  0
    4.7094  -41.6224   14.1442 N   0  0  0  0  0  0  0  0  0  0  0  0
    6.0214  -47.6087   15.2822 C   0  0  0  0  0  0  0  0  0  0  0  0
    8.3514  -42.8900   13.0157 C   0  0  2  0  0  0  0  0  0  0  0  0
    7.5713  -41.7807   12.4874 O   0  0  0  0  0  0  0  0  0  0  0  0
   10.0019  -38.9589   12.5529 C   0  0  2  0  0  0  0  0  0  0  0  0
   11.4040  -38.9418   12.0540 N   0  0  0  0  0  0  0  0  0  0  0  0
   13.5389  -36.0121   15.1227 C   0  0  1  0  0  0  0  0  0  0  0  0
   14.4700  -36.9532   14.5336 O   0  0  0  0  0  0  0  0  0  0  0  0
    2.9173  -42.3482   12.5542 C   0  0  0  0  0  0  0  0  0  0  0  0
    5.2235  -46.2438   15.0177 C   0  0  2  0  0  0  0  0  0  0  0  0
    3.7699  -46.4648   15.0242 N   0  0  0  0  0  0  0  0  0  0  0  0
    9.7810  -42.5691   13.4176 C   0  0  2  0  0  0  0  0  0  0  0  0
   10.1995  -41.3407   12.8878 O   0  0  0  0  0  0  0  0  0  0  0  0
    9.5186  -37.6197   13.3171 C   0  0  1  0  0  0  0  0  0  0  0  0
    8.1482  -37.8056   13.7152 O   0  0  0  0  0  0  0  0  0  0  0  0
   14.3565  -34.8356   15.7213 C   0  0  1  0  0  0  0  0  0  0  0  0
   15.5415  -34.6746   14.9314 O   0  0  0  0  0  0  0  0  0  0  0  0
    2.7187  -42.8629   11.0912 C   0  0  2  0  0  0  0  0  0  0  0  0
    1.3352  -43.0711   10.8248 O   0  0  0  0  0  0  0  0  0  0  0  0
    5.6679  -45.6505   13.6516 C   0  0  2  0  0  0  0  0  0  0  0  0
   10.7213  -43.6253   12.7894 C   0  0  2  0  0  0  0  0  0  0  0  0
    9.8069  -44.5626   12.2390 O   0  0  0  0  0  0  0  0  0  0  0  0
   10.3602  -37.3634   14.6737 C   0  0  2  0  0  0  0  0  0  0  0  0
   11.7148  -37.1667   14.2265 O   0  0  0  0  0  0  0  0  0  0  0  0
   13.6270  -33.4750   15.8072 C   0  0  2  0  0  0  0  0  0  0  0  0
   13.9986  -32.9113   17.0842 O   0  0  0  0  0  0  0  0  0  0  0  0
    3.5013  -44.1935   10.9001 C   0  0  2  0  0  0  0  0  0  0  0  0
    4.9323  -43.9304   11.1693 O   0  0  0  0  0  0  0  0  0  0  0  0
    7.2079  -45.4225   13.5648 C   0  0  2  0  0  0  0  0  0  0  0  0
    7.4990  -44.9141   12.2408 O   0  0  0  0  0  0  0  0  0  0  0  0
   11.6225  -44.3582   13.7769 C   0  0  0  0  0  0  0  0  0  0  0  0
   12.3479  -45.3471   13.0306 O   0  0  0  0  0  0  0  0  0  0  0  0
   10.2920  -38.6652   15.4497 C   0  0  1  0  0  0  0  0  0  0  0  0
   10.5253  -39.9715   14.8829 O   0  0  0  0  0  0  0  0  0  0  0  0
   12.1208  -33.6486   15.6316 C   0  0  2  0  0  0  0  0  0  0  0  0
   11.7285  -34.4130   14.4581 O   0  0  0  0  0  0  0  0  0  0  0  0
    3.3810  -44.7216    9.5059 C   0  0  0  0  0  0  0  0  0  0  0  0
    2.0283  -44.6760    9.1399 O   0  0  0  0  0  0  0  0  0  0  0  0
    7.9701  -46.7698   13.8415 C   0  0  1  0  0  0  0  0  0  0  0  0
    9.4151  -46.5057   13.8028 O   0  0  0  0  0  0  0  0  0  0  0  0
   11.1002  -38.6271   16.7949 C   0  0  0  0  0  0  0  0  0  0  0  0
   10.6464  -37.5706   17.7316 N   0  0  0  0  0  0  0  0  0  0  0  0
   11.1610  -32.4613   15.6627 C   0  0  0  0  0  0  0  0  0  0  0  0
   11.4064  -31.6401   16.8459 O   0  0  0  0  0  0  0  0  0  0  0  0
  1  2  1  1  0  0  0
  1  8  1  0  0  0  0
  1 36  1  0  0  0  0
  3  4  1  6  0  0  0
  3 10  1  0  0  0  0
  3 47  1  0  0  0  0
  5 11  1  0  0  0  0
  5 30  1  0  0  0  0
  5 38  1  1  0  0  0
  6 21  1  6  0  0  0
  6 42  1  0  0  0  0
  7 15  1  0  0  0  0
  7 44  1  0  0  0  0
  7 32  1  1  0  0  0
  8  9  1  1  0  0  0
  8 17  1  0  0  0  0
 11 12  1  6  0  0  0
 11 20  1  0  0  0  0
 13  6  1  0  0  0  0
 13 14  1  1  0  0  0
 15 16  1  6  0  0  0
 15 24  1  0  0  0  0
 17 26  1  0  0  0  0
 18 10  1  0  0  0  0
 18 19  1  6  0  0  0
 20 21  1  6  0  0  0
 20 29  1  0  0  0  0
 22 13  1  0  0  0  0
 22 23  1  1  0  0  0
 24 25  1  6  0  0  0
 24 33  1  0  0  0  0
 26 27  1  1  0  0  0
 26 35  1  0  0  0  0
 28  2  1  1  0  0  0
 28 18  1  0  0  0  0
 29 30  1  0  0  0  0
 29 39  1  1  0  0  0
 31 22  1  0  0  0  0
 31 32  1  6  0  0  0
 31 41  1  0  0  0  0
 33 34  1  1  0  0  0
 33 43  1  0  0  0  0
 35 36  1  0  0  0  0
 35 45  1  6  0  0  0
 37 28  1  0  0  0  0
 37 38  1  6  0  0  0
 39 40  1  0  0  0  0
 41 42  1  0  0  0  0
 41 49  1  1  0  0  0
 43 44  1  0  0  0  0
 43 51  1  6  0  0  0
 45 46  1  0  0  0  0
 47 37  1  0  0  0  0
 47 48  1  1  0  0  0
 49 50  1  0  0  0  0
 51 52  1  0  0  0  0
M  END
>  <CHROM.1>
-167.82999727,-49.55656306,-163.70040792,118.58894486,79.63705086,165.74396541
176.25625822,101.36129306,-47.30052579,146.60187486,59.07530641,-50.38339863
8.78730578,-40.98494948,13.75056136,2.21878326,0.33770665,-3.12334881

>  <Name>
2fd0_lig

>  <RI>
2.85265e+07

>  <Rbt.Current_Directory>
/home/itssahil/PROJECTS/Mol_Feturizer/New_Systems/rnas/2fd0

>  <Rbt.Executable>
rbdock ($Id: //depot/dev/client3/rdock/2013.1/src/exe/rbdock.cxx#4 $)

>  <Rbt.Library>
libRbt.so (2013.1, Build901 2013/11/27)

>  <Rbt.Parameter_File>
/export/apps/rDock/src/rDock_2013.1_src/data/scripts/dock_solv.prm

>  <Rbt.Receptor>
prm/blind_docking_60.prm

>  <SCORE>
-11.9488

>  <SCORE.INTER>
-15.6425

>  <SCORE.INTER.CONST>
1

>  <SCORE.INTER.POLAR>
-0.855372

>  <SCORE.INTER.ROT>
12

>  <SCORE.INTER.SOLV>
22.5394

>  <SCORE.INTER.VDW>
-26.6902

>  <SCORE.INTER.norm>
-0.300816

>  <SCORE.INTRA>
2.08341

>  <SCORE.INTRA.DIHEDRAL>
0.510109

>  <SCORE.INTRA.DIHEDRAL.0>
23.9727

>  <SCORE.INTRA.POLAR>
0

>  <SCORE.INTRA.POLAR.0>
0

>  <SCORE.INTRA.REPUL>
0

>  <SCORE.INTRA.REPUL.0>
0

>  <SCORE.INTRA.SOLV>
-2.33857

>  <SCORE.INTRA.SOLV.lig_0>
-115.028

>  <SCORE.INTRA.VDW>
2.99764

>  <SCORE.INTRA.VDW.0>
-6.82393

>  <SCORE.INTRA.norm>
0.0400655

>  <SCORE.RESTR>
1.61024

>  <SCORE.RESTR.CAVITY>
1.61024

>  <SCORE.RESTR.norm>
0.0309661

>  <SCORE.SYSTEM>
0

>  <SCORE.SYSTEM.CONST>
0

>  <SCORE.SYSTEM.DIHEDRAL>
0

>  <SCORE.SYSTEM.SOLV>
0

>  <SCORE.SYSTEM.norm>
0

>  <SCORE.heavy>
52

>  <SCORE.norm>
-0.229785

>  <RMSD>
15.854

$$$$
2fd0_lig
 OpenBabel11021811433D
libRbt.so/2013.1/901 2013/11/27
 52 56  0  0  0  0  0  0  0  0999 V2000
    4.7281  -44.5480   12.2678 C   0  0  2  0  0  0  0  0  0  0  0  0
    6.0092  -43.9092   12.3561 O   0  0  0  0  0  0  0  0  0  0  0  0
    8.3123  -46.6236   14.8502 C   0  0  2  0  0  0  0  0  0  0  0  0
    9.4448  -47.2912   15.5126 N   0  0  0  0  0  0  0  0  0  0  0  0
    8.1526  -42.1491   14.7571 C   0  0  1  0  0  0  0  0  0  0  0  0
   10.4567  -40.0287   15.6348 C   0  0  1  0  0  0  0  0  0  0  0  0
   12.6744  -35.5675   14.2381 C   0  0  1  0  0  0  0  0  0  0  0  0
    3.7955  -43.6735   11.3530 C   0  0  2  0  0  0  0  0  0  0  0  0
    4.3724  -43.4646   10.0323 N   0  0  0  0  0  0  0  0  0  0  0  0
    8.4755  -46.6984   13.2688 C   0  0  0  0  0  0  0  0  0  0  0  0
    9.0191  -42.4111   15.9754 C   0  0  2  0  0  0  0  0  0  0  0  0
    8.7621  -41.4629   17.0491 O   0  0  0  0  0  0  0  0  0  0  0  0
   10.4699  -39.6608   14.0779 C   0  0  2  0  0  0  0  0  0  0  0  0
   11.8588  -39.7004   13.5443 N   0  0  0  0  0  0  0  0  0  0  0  0
   13.0183  -35.6093   12.7322 C   0  0  1  0  0  0  0  0  0  0  0  0
   11.8488  -35.2207   11.9698 O   0  0  0  0  0  0  0  0  0  0  0  0
    3.4645  -42.3055   12.0568 C   0  0  0  0  0  0  0  0  0  0  0  0
    7.2358  -45.9807   12.5496 C   0  0  2  0  0  0  0  0  0  0  0  0
    7.3636  -46.0335   11.0858 N   0  0  0  0  0  0  0  0  0  0  0  0
   10.4254  -42.4034   15.4002 C   0  0  2  0  0  0  0  0  0  0  0  0
   11.1259  -41.2480   15.7733 O   0  0  0  0  0  0  0  0  0  0  0  0
    9.6995  -38.2505   13.9096 C   0  0  1  0  0  0  0  0  0  0  0  0
    8.3794  -38.3968   14.4634 O   0  0  0  0  0  0  0  0  0  0  0  0
   14.2170  -34.7492   12.2481 C   0  0  1  0  0  0  0  0  0  0  0  0
   13.7057  -33.4805   11.8200 O   0  0  0  0  0  0  0  0  0  0  0  0
    2.8425  -42.6063   13.4594 C   0  0  2  0  0  0  0  0  0  0  0  0
    2.5110  -41.3908   14.1233 O   0  0  0  0  0  0  0  0  0  0  0  0
    7.1559  -44.5035   13.0263 C   0  0  2  0  0  0  0  0  0  0  0  0
   10.3292  -42.3411   13.8571 C   0  0  2  0  0  0  0  0  0  0  0  0
    8.9361  -42.4981   13.6291 O   0  0  0  0  0  0  0  0  0  0  0  0
   10.4193  -37.0676   14.7444 C   0  0  2  0  0  0  0  0  0  0  0  0
   11.7238  -36.9460   14.1466 O   0  0  0  0  0  0  0  0  0  0  0  0
   15.3426  -34.5093   13.2806 C   0  0  2  0  0  0  0  0  0  0  0  0
   16.5805  -34.6344   12.5468 O   0  0  0  0  0  0  0  0  0  0  0  0
    3.8594  -43.4163   14.3135 C   0  0  2  0  0  0  0  0  0  0  0  0
    4.1635  -44.6755   13.5983 O   0  0  0  0  0  0  0  0  0  0  0  0
    7.0529  -44.3742   14.5767 C   0  0  2  0  0  0  0  0  0  0  0  0
    7.0306  -42.9621   14.8955 O   0  0  0  0  0  0  0  0  0  0  0  0
   11.0641  -43.4536   13.1177 C   0  0  0  0  0  0  0  0  0  0  0  0
   12.4448  -43.3743   13.5032 O   0  0  0  0  0  0  0  0  0  0  0  0
   10.5821  -37.6026   16.1546 C   0  0  1  0  0  0  0  0  0  0  0  0
   11.0936  -38.9116   16.4816 O   0  0  0  0  0  0  0  0  0  0  0  0
   15.2271  -35.4799   14.4529 C   0  0  2  0  0  0  0  0  0  0  0  0
   13.9119  -35.5341   15.0715 O   0  0  0  0  0  0  0  0  0  0  0  0
    3.3093  -43.7683   15.6591 C   0  0  0  0  0  0  0  0  0  0  0  0
    3.0977  -42.5765   16.3665 O   0  0  0  0  0  0  0  0  0  0  0  0
    8.2700  -45.0970   15.2612 C   0  0  1  0  0  0  0  0  0  0  0  0
    8.1120  -44.9994   16.7189 O   0  0  0  0  0  0  0  0  0  0  0  0
   11.3133  -36.6002   17.1164 C   0  0  0  0  0  0  0  0  0  0  0  0
   11.5635  -37.1507   18.4705 N   0  0  0  0  0  0  0  0  0  0  0  0
   16.2079  -35.4551   15.6230 C   0  0  0  0  0  0  0  0  0  0  0  0
   15.8587  -34.3867   16.5563 O   0  0  0  0  0  0  0  0  0  0  0  0
  1  2  1  1  0  0  0
  1  8  1  0  0  0  0
  1 36  1  0  0  0  0
  3  4  1  1  0  0  0
  3 10  1  0  0  0  0
  3 47  1  0  0  0  0
  5 11  1  0  0  0  0
  5 30  1  0  0  0  0
  5 38  1  1  0  0  0
  6 21  1  6  0  0  0
  6 42  1  0  0  0  0
  7 15  1  0  0  0  0
  7 44  1  0  0  0  0
  7 32  1  1  0  0  0
  8  9  1  6  0  0  0
  8 17  1  0  0  0  0
 11 12  1  1  0  0  0
 11 20  1  0  0  0  0
 13  6  1  0  0  0  0
 13 14  1  1  0  0  0
 15 16  1  6  0  0  0
 15 24  1  0  0  0  0
 17 26  1  0  0  0  0
 18 10  1  0  0  0  0
 18 19  1  6  0  0  0
 20 21  1  1  0  0  0
 20 29  1  0  0  0  0
 22 13  1  0  0  0  0
 22 23  1  1  0  0  0
 24 25  1  1  0  0  0
 24 33  1  0  0  0  0
 26 27  1  1  0  0  0
 26 35  1  0  0  0  0
 28  2  1  6  0  0  0
 28 18  1  0  0  0  0
 29 30  1  0  0  0  0
 29 39  1  6  0  0  0
 31 22  1  0  0  0  0
 31 32  1  6  0  0  0
 31 41  1  0  0  0  0
 33 34  1  6  0  0  0
 33 43  1  0  0  0  0
 35 36  1  0  0  0  0
 35 45  1  1  0  0  0
 37 28  1  0  0  0  0
 37 38  1  6  0  0  0
 39 40  1  0  0  0  0
 41 42  1  0  0  0  0
 41 49  1  1  0  0  0
 43 44  1  0  0  0  0
 43 51  1  1  0  0  0
 45 46  1  0  0  0  0
 47 37  1  0  0  0  0
 47 48  1  1  0  0  0
 49 50  1  0  0  0  0
 51 52  1  0  0  0  0
M  END
>  <CHROM.1>
-174.34002518,-79.34844364,-76.54998170,-134.06999141,-46.86349198,46.10578276
-58.71251103,157.61206348,-64.40659340,-70.82148814,-175.88848822,79.82334622
9.38655491,-40.66850635,14.24350427,2.35133395,0.22733158,2.99122318

>  <Name>
2fd0_lig

>  <RI>
2.85265e+07

>  <Rbt.Current_Directory>
/home/itssahil/PROJECTS/Mol_Feturizer/New_Systems/rnas/2fd0

>  <Rbt.Executable>
rbdock ($Id: //depot/dev/client3/rdock/2013.1/src/exe/rbdock.cxx#4 $)

>  <Rbt.Library>
libRbt.so (2013.1, Build901 2013/11/27)

>  <Rbt.Parameter_File>
/export/apps/rDock/src/rDock_2013.1_src/data/scripts/dock_solv.prm

>  <Rbt.Receptor>
prm/blind_docking_60.prm

>  <SCORE>
-10.7274

>  <SCORE.INTER>
-14.3165

>  <SCORE.INTER.CONST>
1

>  <SCORE.INTER.POLAR>
-1.73509

>  <SCORE.INTER.ROT>
12

>  <SCORE.INTER.SOLV>
30.4638

>  <SCORE.INTER.VDW>
-25.5153

>  <SCORE.INTER.norm>
-0.275317

>  <SCORE.INTRA>
2.10518

>  <SCORE.INTRA.DIHEDRAL>
-7.30756

>  <SCORE.INTRA.DIHEDRAL.0>
23.9727

>  <SCORE.INTRA.POLAR>
0

>  <SCORE.INTRA.POLAR.0>
0

>  <SCORE.INTRA.REPUL>
0

>  <SCORE.INTRA.REPUL.0>
0

>  <SCORE.INTRA.SOLV>
-0.335082

>  <SCORE.INTRA.SOLV.lig_0>
-115.028

>  <SCORE.INTRA.VDW>
5.9265

>  <SCORE.INTRA.VDW.0>
-6.82393

>  <SCORE.INTRA.norm>
0.0404841

>  <SCORE.RESTR>
1.48389

>  <SCORE.RESTR.CAVITY>
1.48389

>  <SCORE.RESTR.norm>
0.0285364

>  <SCORE.SYSTEM>
0

>  <SCORE.SYSTEM.CONST>
0

>  <SCORE.SYSTEM.DIHEDRAL>
0

>  <SCORE.SYSTEM.SOLV>
0

>  <SCORE.SYSTEM.norm>
0

>  <SCORE.heavy>
52

>  <SCORE.norm>
-0.206296

>  <RMSD>
16.029

$$$$
2fd0_lig
 OpenBabel11021811433D
libRbt.so/2013.1/901 2013/11/27
 52 56  0  0  0  0  0  0  0  0999 V2000
   14.8802  -35.9791   14.9339 C   0  0  2  0  0  0  0  0  0  0  0  0
   14.2862  -34.7737   15.4352 O   0  0  0  0  0  0  0  0  0  0  0  0
   10.5733  -33.2240   17.0800 C   0  0  2  0  0  0  0  0  0  0  0  0
    9.1388  -32.9992   17.3218 N   0  0  0  0  0  0  0  0  0  0  0  0
   12.3173  -37.3974   16.5520 C   0  0  1  0  0  0  0  0  0  0  0  0
    8.7266  -39.4548   14.6420 C   0  0  1  0  0  0  0  0  0  0  0  0
    8.9069  -43.4534   12.5421 C   0  0  1  0  0  0  0  0  0  0  0  0
   16.4366  -35.7730   14.8522 C   0  0  2  0  0  0  0  0  0  0  0  0
   17.0033  -35.4029   16.1416 N   0  0  0  0  0  0  0  0  0  0  0  0
   10.9303  -32.9250   15.5582 C   0  0  0  0  0  0  0  0  0  0  0  0
   10.8734  -37.5963   16.9755 C   0  0  2  0  0  0  0  0  0  0  0  0
   10.7321  -38.6398   17.9801 O   0  0  0  0  0  0  0  0  0  0  0  0
    7.7575  -40.4895   15.3834 C   0  0  2  0  0  0  0  0  0  0  0  0
    8.5243  -41.6726   15.8605 N   0  0  0  0  0  0  0  0  0  0  0  0
    8.8820  -44.7014   13.4529 C   0  0  1  0  0  0  0  0  0  0  0  0
    7.6977  -45.4810   13.1534 O   0  0  0  0  0  0  0  0  0  0  0  0
   16.7913  -34.7129   13.7446 C   0  0  0  0  0  0  0  0  0  0  0  0
   12.4948  -33.1597   15.2999 C   0  0  2  0  0  0  0  0  0  0  0  0
   12.8509  -32.8923   13.8986 N   0  0  0  0  0  0  0  0  0  0  0  0
   10.1624  -37.8401   15.6551 C   0  0  2  0  0  0  0  0  0  0  0  0
    9.7814  -39.1820   15.5177 O   0  0  0  0  0  0  0  0  0  0  0  0
    6.5359  -40.8119   14.3760 C   0  0  1  0  0  0  0  0  0  0  0  0
    5.9045  -39.5657   14.0306 O   0  0  0  0  0  0  0  0  0  0  0  0
   10.1099  -45.6503   13.3999 C   0  0  1  0  0  0  0  0  0  0  0  0
    9.8324  -46.6782   12.4404 O   0  0  0  0  0  0  0  0  0  0  0  0
   16.1611  -35.1784   12.3915 C   0  0  2  0  0  0  0  0  0  0  0  0
   16.4756  -34.2524   11.3562 O   0  0  0  0  0  0  0  0  0  0  0  0
   12.8588  -34.6236   15.6741 C   0  0  2  0  0  0  0  0  0  0  0  0
   11.1588  -37.5792   14.5003 C   0  0  2  0  0  0  0  0  0  0  0  0
   12.2844  -37.0426   15.1805 O   0  0  0  0  0  0  0  0  0  0  0  0
    7.0540  -41.4639   12.9902 C   0  0  2  0  0  0  0  0  0  0  0  0
    7.6599  -42.7102   13.3818 O   0  0  0  0  0  0  0  0  0  0  0  0
   11.4633  -44.9917   13.0463 C   0  0  2  0  0  0  0  0  0  0  0  0
   12.4373  -45.6049   13.9192 O   0  0  0  0  0  0  0  0  0  0  0  0
   14.6179  -35.2911   12.5511 C   0  0  2  0  0  0  0  0  0  0  0  0
   14.3348  -36.2723   13.6218 O   0  0  0  0  0  0  0  0  0  0  0  0
   12.4751  -34.9849   17.1415 C   0  0  2  0  0  0  0  0  0  0  0  0
   12.8203  -36.3750   17.3524 O   0  0  0  0  0  0  0  0  0  0  0  0
   10.6955  -36.5617   13.4637 C   0  0  0  0  0  0  0  0  0  0  0  0
   10.5183  -35.3130   14.1497 O   0  0  0  0  0  0  0  0  0  0  0  0
    8.1420  -40.5362   12.4832 C   0  0  1  0  0  0  0  0  0  0  0  0
    9.2153  -40.0110   13.2920 O   0  0  0  0  0  0  0  0  0  0  0  0
   11.3876  -43.4737   13.1868 C   0  0  2  0  0  0  0  0  0  0  0  0
   10.2719  -42.8525   12.4907 O   0  0  0  0  0  0  0  0  0  0  0  0
   13.9562  -35.7684   11.2975 C   0  0  0  0  0  0  0  0  0  0  0  0
   12.5714  -35.7812   11.5157 O   0  0  0  0  0  0  0  0  0  0  0  0
   10.9407  -34.7335   17.3763 C   0  0  1  0  0  0  0  0  0  0  0  0
   10.6273  -35.0344   18.7801 O   0  0  0  0  0  0  0  0  0  0  0  0
    8.8079  -41.0328   11.1511 C   0  0  0  0  0  0  0  0  0  0  0  0
   10.0346  -40.2845   10.7844 N   0  0  0  0  0  0  0  0  0  0  0  0
   12.5841  -42.5733   12.8880 C   0  0  0  0  0  0  0  0  0  0  0  0
   13.6628  -42.8289   13.8396 O   0  0  0  0  0  0  0  0  0  0  0  0
  1  2  1  6  0  0  0
  1  8  1  0  0  0  0
  1 36  1  0  0  0  0
  3  4  1  6  0  0  0
  3 10  1  0  0  0  0
  3 47  1  0  0  0  0
  5 11  1  0  0  0  0
  5 30  1  0  0  0  0
  5 38  1  1  0  0  0
  6 21  1  1  0  0  0
  6 42  1  0  0  0  0
  7 15  1  0  0  0  0
  7 44  1  0  0  0  0
  7 32  1  1  0  0  0
  8  9  1  1  0  0  0
  8 17  1  0  0  0  0
 11 12  1  1  0  0  0
 11 20  1  0  0  0  0
 13  6  1  0  0  0  0
 13 14  1  6  0  0  0
 15 16  1  6  0  0  0
 15 24  1  0  0  0  0
 17 26  1  0  0  0  0
 18 10  1  0  0  0  0
 18 19  1  6  0  0  0
 20 21  1  1  0  0  0
 20 29  1  0  0  0  0
 22 13  1  0  0  0  0
 22 23  1  6  0  0  0
 24 25  1  6  0  0  0
 24 33  1  0  0  0  0
 26 27  1  6  0  0  0
 26 35  1  0  0  0  0
 28  2  1  1  0  0  0
 28 18  1  0  0  0  0
 29 30  1  0  0  0  0
 29 39  1  6  0  0  0
 31 22  1  0  0  0  0
 31 32  1  1  0  0  0
 31 41  1  0  0  0  0
 33 34  1  1  0  0  0
 33 43  1  0  0  0  0
 35 36  1  0  0  0  0
 35 45  1  6  0  0  0
 37 28  1  0  0  0  0
 37 38  1  6  0  0  0
 39 40  1  0  0  0  0
 41 42  1  0  0  0  0
 41 49  1  6  0  0  0
 43 44  1  0  0  0  0
 43 51  1  6  0  0  0
 45 46  1  0  0  0  0
 47 37  1  0  0  0  0
 47 48  1  1  0  0  0
 49 50  1  0  0  0  0
 51 52  1  0  0  0  0
M  END
>  <CHROM.1>
-178.24617423,-75.00208015,-135.28166504,-174.93480443,156.90029691,-143.91403826
61.44922332,-151.65377577,-177.39935624,-56.64443582,-168.97916888,-65.09567949
11.29588110,-38.56777078,14.33574668,-1.10012124,-0.39212879,-2.75117852

>  <Name>
2fd0_lig

>  <RI>
0

>  <Rbt.Current_Directory>
/home/itssahil/PROJECTS/Mol_Feturizer/New_Systems/rnas/2fd0

>  <Rbt.Executable>
rbdock ($Id: //depot/dev/client3/rdock/2013.1/src/exe/rbdock.cxx#4 $)

>  <Rbt.Library>
libRbt.so (2013.1, Build901 2013/11/27)

>  <Rbt.Parameter_File>
/export/apps/rDock/src/rDock_2013.1_src/data/scripts/dock_solv.prm

>  <Rbt.Receptor>
prm/blind_docking_100.prm

>  <SCORE>
4.26526

>  <SCORE.INTER>
-2.51629

>  <SCORE.INTER.CONST>
1

>  <SCORE.INTER.POLAR>
-0.810275

>  <SCORE.INTER.ROT>
12

>  <SCORE.INTER.SOLV>
31.496

>  <SCORE.INTER.VDW>
-21.0753

>  <SCORE.INTER.norm>
-0.0483903

>  <SCORE.INTRA>
4.24269

>  <SCORE.INTRA.DIHEDRAL>
-4.52545

>  <SCORE.INTRA.DIHEDRAL.0>
23.9727

>  <SCORE.INTRA.POLAR>
0

>  <SCORE.INTRA.POLAR.0>
0

>  <SCORE.INTRA.REPUL>
0.127948

>  <SCORE.INTRA.REPUL.0>
0

>  <SCORE.INTRA.SOLV>
4.26753

>  <SCORE.INTRA.SOLV.lig_0>
-115.028

>  <SCORE.INTRA.VDW>
3.73191

>  <SCORE.INTRA.VDW.0>
-6.82393

>  <SCORE.INTRA.norm>
0.0815902

>  <SCORE.RESTR>
2.53886

>  <SCORE.RESTR.CAVITY>
2.53886

>  <SCORE.RESTR.norm>
0.0488242

>  <SCORE.SYSTEM>
0

>  <SCORE.SYSTEM.CONST>
0

>  <SCORE.SYSTEM.DIHEDRAL>
0

>  <SCORE.SYSTEM.SOLV>
0

>  <SCORE.SYSTEM.norm>
0

>  <SCORE.heavy>
52

>  <SCORE.norm>
0.0820241

>  <RMSD>
16.155

$$$$
2fd0_lig
 OpenBabel11021811433D
libRbt.so/2013.1/901 2013/11/27
 52 56  0  0  0  0  0  0  0  0999 V2000
    8.1686  -46.0649   12.2071 C   0  0  2  0  0  0  0  0  0  0  0  0
    7.5140  -45.8803   13.4699 O   0  0  0  0  0  0  0  0  0  0  0  0
    6.8355  -47.8313   17.2942 C   0  0  2  0  0  0  0  0  0  0  0  0
    6.9992  -48.7143   18.4607 N   0  0  0  0  0  0  0  0  0  0  0  0
    9.0746  -43.7129   16.1318 C   0  0  1  0  0  0  0  0  0  0  0  0
    9.5430  -39.3354   15.1009 C   0  0  1  0  0  0  0  0  0  0  0  0
   12.7999  -35.4007   14.1447 C   0  0  1  0  0  0  0  0  0  0  0  0
    9.6929  -45.7210   12.3792 C   0  0  2  0  0  0  0  0  0  0  0  0
   10.3169  -46.5272   13.4191 N   0  0  0  0  0  0  0  0  0  0  0  0
    6.7431  -48.6921   15.9588 C   0  0  0  0  0  0  0  0  0  0  0  0
    9.9955  -43.0066   15.1537 C   0  0  2  0  0  0  0  0  0  0  0  0
   11.3557  -42.8949   15.6593 O   0  0  0  0  0  0  0  0  0  0  0  0
   10.0768  -39.1389   13.6056 C   0  0  2  0  0  0  0  0  0  0  0  0
   11.5328  -39.4379   13.5279 N   0  0  0  0  0  0  0  0  0  0  0  0
   13.4946  -36.1320   15.3154 C   0  0  1  0  0  0  0  0  0  0  0  0
   14.2722  -37.2352   14.7880 O   0  0  0  0  0  0  0  0  0  0  0  0
    9.8796  -44.1833   12.6566 C   0  0  0  0  0  0  0  0  0  0  0  0
    6.5537  -47.7293   14.6913 C   0  0  2  0  0  0  0  0  0  0  0  0
    6.4681  -48.5006   13.4425 N   0  0  0  0  0  0  0  0  0  0  0  0
    9.2715  -41.6970   14.8904 C   0  0  2  0  0  0  0  0  0  0  0  0
    9.9219  -40.6185   15.5057 O   0  0  0  0  0  0  0  0  0  0  0  0
    9.6445  -37.6562   13.1307 C   0  0  1  0  0  0  0  0  0  0  0  0
    8.2152  -37.5479   13.2591 O   0  0  0  0  0  0  0  0  0  0  0  0
   14.4166  -35.2899   16.2383 C   0  0  1  0  0  0  0  0  0  0  0  0
   15.7551  -35.3910   15.7360 O   0  0  0  0  0  0  0  0  0  0  0  0
    9.1959  -43.3834   11.5001 C   0  0  2  0  0  0  0  0  0  0  0  0
    9.3587  -41.9835   11.7050 O   0  0  0  0  0  0  0  0  0  0  0  0
    7.7461  -46.7346   14.6246 C   0  0  2  0  0  0  0  0  0  0  0  0
    7.8742  -41.7616   15.5521 C   0  0  2  0  0  0  0  0  0  0  0  0
    7.7994  -43.1135   15.9815 O   0  0  0  0  0  0  0  0  0  0  0  0
   10.2789  -36.5109   14.0795 C   0  0  2  0  0  0  0  0  0  0  0  0
   11.7020  -36.6459   13.9060 O   0  0  0  0  0  0  0  0  0  0  0  0
   14.0510  -33.7946   16.3832 C   0  0  2  0  0  0  0  0  0  0  0  0
   14.2422  -33.4782   17.7795 O   0  0  0  0  0  0  0  0  0  0  0  0
    7.6824  -43.7390   11.4494 C   0  0  2  0  0  0  0  0  0  0  0  0
    7.5577  -45.1954   11.2191 O   0  0  0  0  0  0  0  0  0  0  0  0
    7.9151  -45.9060   15.9345 C   0  0  2  0  0  0  0  0  0  0  0  0
    9.0753  -45.0565   15.7660 O   0  0  0  0  0  0  0  0  0  0  0  0
    6.7019  -41.4907   14.6158 C   0  0  0  0  0  0  0  0  0  0  0  0
    6.9627  -42.2044   13.3976 O   0  0  0  0  0  0  0  0  0  0  0  0
    9.9250  -36.9132   15.4988 C   0  0  1  0  0  0  0  0  0  0  0  0
   10.0847  -38.2415   16.0393 O   0  0  0  0  0  0  0  0  0  0  0  0
   12.6336  -33.5261   15.8848 C   0  0  2  0  0  0  0  0  0  0  0  0
   12.3486  -34.0383   14.5537 O   0  0  0  0  0  0  0  0  0  0  0  0
    6.9754  -43.0314   10.3374 C   0  0  0  0  0  0  0  0  0  0  0  0
    7.0714  -41.6522   10.5705 O   0  0  0  0  0  0  0  0  0  0  0  0
    8.0846  -46.8698   17.1654 C   0  0  1  0  0  0  0  0  0  0  0  0
    8.1887  -46.0565   18.3849 O   0  0  0  0  0  0  0  0  0  0  0  0
   10.5017  -35.9338   16.5818 C   0  0  0  0  0  0  0  0  0  0  0  0
    9.6363  -34.7578   16.8412 N   0  0  0  0  0  0  0  0  0  0  0  0
   12.0211  -32.1274   15.9040 C   0  0  0  0  0  0  0  0  0  0  0  0
   11.7799  -31.6969   17.2792 O   0  0  0  0  0  0  0  0  0  0  0  0
  1  2  1  1  0  0  0
  1  8  1  0  0  0  0
  1 36  1  0  0  0  0
  3  4  1  1  0  0  0
  3 10  1  0  0  0  0
  3 47  1  0  0  0  0
  5 11  1  0  0  0  0
  5 30  1  0  0  0  0
  5 38  1  6  0  0  0
  6 21  1  1  0  0  0
  6 42  1  0  0  0  0
  7 15  1  0  0  0  0
  7 44  1  0  0  0  0
  7 32  1  1  0  0  0
  8  9  1  1  0  0  0
  8 17  1  0  0  0  0
 11 12  1  1  0  0  0
 11 20  1  0  0  0  0
 13  6  1  0  0  0  0
 13 14  1  1  0  0  0
 15 16  1  6  0  0  0
 15 24  1  0  0  0  0
 17 26  1  0  0  0  0
 18 10  1  0  0  0  0
 18 19  1  6  0  0  0
 20 21  1  1  0  0  0
 20 29  1  0  0  0  0
 22 13  1  0  0  0  0
 22 23  1  1  0  0  0
 24 25  1  6  0  0  0
 24 33  1  0  0  0  0
 26 27  1  1  0  0  0
 26 35  1  0  0  0  0
 28  2  1  6  0  0  0
 28 18  1  0  0  0  0
 29 30  1  0  0  0  0
 29 39  1  6  0  0  0
 31 22  1  0  0  0  0
 31 32  1  1  0  0  0
 31 41  1  0  0  0  0
 33 34  1  1  0  0  0
 33 43  1  0  0  0  0
 35 36  1  0  0  0  0
 35 45  1  6  0  0  0
 37 28  1  0  0  0  0
 37 38  1  6  0  0  0
 39 40  1  0  0  0  0
 41 42  1  0  0  0  0
 41 49  1  1  0  0  0
 43 44  1  0  0  0  0
 43 51  1  6  0  0  0
 45 46  1  0  0  0  0
 47 37  1  0  0  0  0
 47 48  1  1  0  0  0
 49 50  1  0  0  0  0
 51 52  1  0  0  0  0
M  END
>  <CHROM.1>
-68.65445190,-147.58887648,-69.82848671,116.48285875,165.94067553,-100.61878202
43.26003429,154.84083400,-62.02523134,135.27123403,85.32629896,-68.88918057
9.74951524,-40.90794751,14.71393750,2.64446639,1.12018987,2.21350443

>  <Name>
2fd0_lig

>  <RI>
0

>  <Rbt.Current_Directory>
/home/itssahil/PROJECTS/Mol_Feturizer/New_Systems/rnas/2fd0

>  <Rbt.Executable>
rbdock ($Id: //depot/dev/client3/rdock/2013.1/src/exe/rbdock.cxx#4 $)

>  <Rbt.Library>
libRbt.so (2013.1, Build901 2013/11/27)

>  <Rbt.Parameter_File>
/export/apps/rDock/src/rDock_2013.1_src/data/scripts/dock_solv.prm

>  <Rbt.Receptor>
prm/blind_docking_100.prm

>  <SCORE>
3.03333

>  <SCORE.INTER>
-4.66991

>  <SCORE.INTER.CONST>
1

>  <SCORE.INTER.POLAR>
-0.861713

>  <SCORE.INTER.ROT>
12

>  <SCORE.INTER.SOLV>
29.2914

>  <SCORE.INTER.VDW>
-21.6047

>  <SCORE.INTER.norm>
-0.0898059

>  <SCORE.INTRA>
7.03712

>  <SCORE.INTRA.DIHEDRAL>
7.05791

>  <SCORE.INTRA.DIHEDRAL.0>
23.9727

>  <SCORE.INTRA.POLAR>
0

>  <SCORE.INTRA.POLAR.0>
0

>  <SCORE.INTRA.REPUL>
0.00316783

>  <SCORE.INTRA.REPUL.0>
0

>  <SCORE.INTRA.SOLV>
5.51809

>  <SCORE.INTRA.SOLV.lig_0>
-115.028

>  <SCORE.INTRA.VDW>
0.733278

>  <SCORE.INTRA.VDW.0>
-6.82393

>  <SCORE.INTRA.norm>
0.135329

>  <SCORE.RESTR>
0.666122

>  <SCORE.RESTR.CAVITY>
0.666122

>  <SCORE.RESTR.norm>
0.01281

>  <SCORE.SYSTEM>
0

>  <SCORE.SYSTEM.CONST>
0

>  <SCORE.SYSTEM.DIHEDRAL>
0

>  <SCORE.SYSTEM.SOLV>
0

>  <SCORE.SYSTEM.norm>
0

>  <SCORE.heavy>
52

>  <SCORE.norm>
0.0583333

>  <RMSD>
16.214

$$$$
2fd0_lig
 OpenBabel11021811433D
libRbt.so/2013.1/901 2013/11/27
 52 56  0  0  0  0  0  0  0  0999 V2000
    7.4199  -46.3444   15.7813 C   0  0  2  0  0  0  0  0  0  0  0  0
    8.5299  -46.0894   14.9096 O   0  0  0  0  0  0  0  0  0  0  0  0
    9.6795  -43.8223   11.3838 C   0  0  2  0  0  0  0  0  0  0  0  0
    9.6986  -42.7990   10.3257 N   0  0  0  0  0  0  0  0  0  0  0  0
    9.5349  -42.3261   15.5112 C   0  0  1  0  0  0  0  0  0  0  0  0
   11.0577  -38.2102   15.2868 C   0  0  1  0  0  0  0  0  0  0  0  0
   10.3984  -33.7782   16.4363 C   0  0  1  0  0  0  0  0  0  0  0  0
    7.9490  -47.0925   17.0588 C   0  0  2  0  0  0  0  0  0  0  0  0
    8.9901  -46.3347   17.7390 N   0  0  0  0  0  0  0  0  0  0  0  0
    8.2792  -44.5786   11.3953 C   0  0  0  0  0  0  0  0  0  0  0  0
   10.6865  -41.3902   15.1928 C   0  0  2  0  0  0  0  0  0  0  0  0
   11.4910  -41.0863   16.3669 O   0  0  0  0  0  0  0  0  0  0  0  0
   10.9356  -37.1877   16.5111 C   0  0  2  0  0  0  0  0  0  0  0  0
    9.5884  -36.5552   16.5302 N   0  0  0  0  0  0  0  0  0  0  0  0
   11.4824  -32.6808   16.3432 C   0  0  1  0  0  0  0  0  0  0  0  0
   11.1692  -31.8007   15.2354 O   0  0  0  0  0  0  0  0  0  0  0  0
    8.4456  -48.5373   16.6811 C   0  0  0  0  0  0  0  0  0  0  0  0
    8.2648  -45.6997   12.5409 C   0  0  2  0  0  0  0  0  0  0  0  0
    6.9793  -46.4126   12.5747 N   0  0  0  0  0  0  0  0  0  0  0  0
    9.9928  -40.2093   14.5349 C   0  0  2  0  0  0  0  0  0  0  0  0
    9.9751  -39.0898   15.3783 O   0  0  0  0  0  0  0  0  0  0  0  0
   12.1830  -36.1654   16.4111 C   0  0  1  0  0  0  0  0  0  0  0  0
   13.3948  -36.9417   16.4177 O   0  0  0  0  0  0  0  0  0  0  0  0
   11.7230  -31.8044   17.6022 C   0  0  1  0  0  0  0  0  0  0  0  0
   10.9085  -30.6309   17.4854 O   0  0  0  0  0  0  0  0  0  0  0  0
    7.2782  -49.2926   15.9660 C   0  0  2  0  0  0  0  0  0  0  0  0
    7.6825  -50.6144   15.6232 O   0  0  0  0  0  0  0  0  0  0  0  0
    8.5395  -45.0274   13.9150 C   0  0  2  0  0  0  0  0  0  0  0  0
    8.5058  -40.5719   14.3078 C   0  0  2  0  0  0  0  0  0  0  0  0
    8.4674  -41.9474   14.6598 O   0  0  0  0  0  0  0  0  0  0  0  0
   12.1745  -35.3389   15.0215 C   0  0  2  0  0  0  0  0  0  0  0  0
   10.9590  -34.5681   15.0673 O   0  0  0  0  0  0  0  0  0  0  0  0
   11.4344  -32.4771   18.9641 C   0  0  2  0  0  0  0  0  0  0  0  0
   12.5009  -32.0563   19.8426 O   0  0  0  0  0  0  0  0  0  0  0  0
    6.8675  -48.5145   14.6832 C   0  0  2  0  0  0  0  0  0  0  0  0
    6.4397  -47.1559   15.0842 O   0  0  0  0  0  0  0  0  0  0  0  0
    9.8754  -44.2236   13.9376 C   0  0  2  0  0  0  0  0  0  0  0  0
    9.9945  -43.6133   15.2450 O   0  0  0  0  0  0  0  0  0  0  0  0
    8.0180  -40.4314   12.8702 C   0  0  0  0  0  0  0  0  0  0  0  0
    6.5995  -40.6527   12.8837 O   0  0  0  0  0  0  0  0  0  0  0  0
   12.0448  -36.3808   13.9265 C   0  0  1  0  0  0  0  0  0  0  0  0
   11.0978  -37.4694   13.9377 O   0  0  0  0  0  0  0  0  0  0  0  0
   11.3278  -33.9924   18.8155 C   0  0  2  0  0  0  0  0  0  0  0  0
   10.4165  -34.4397   17.7739 O   0  0  0  0  0  0  0  0  0  0  0  0
    5.7271  -49.1683   13.9697 C   0  0  0  0  0  0  0  0  0  0  0  0
    4.6258  -49.1866   14.8373 O   0  0  0  0  0  0  0  0  0  0  0  0
    9.8736  -43.1405   12.7976 C   0  0  1  0  0  0  0  0  0  0  0  0
   11.1652  -42.4400   12.8165 O   0  0  0  0  0  0  0  0  0  0  0  0
   11.9725  -35.7598   12.4865 C   0  0  0  0  0  0  0  0  0  0  0  0
   13.2189  -35.0709   12.0727 N   0  0  0  0  0  0  0  0  0  0  0  0
   11.0368  -34.9032   20.0061 C   0  0  0  0  0  0  0  0  0  0  0  0
   11.2520  -36.3014   19.6410 O   0  0  0  0  0  0  0  0  0  0  0  0
  1  2  1  6  0  0  0
  1  8  1  0  0  0  0
  1 36  1  0  0  0  0
  3  4  1  6  0  0  0
  3 10  1  0  0  0  0
  3 47  1  0  0  0  0
  5 11  1  0  0  0  0
  5 30  1  0  0  0  0
  5 38  1  6  0  0  0
  6 21  1  6  0  0  0
  6 42  1  0  0  0  0
  7 15  1  0  0  0  0
  7 44  1  0  0  0  0
  7 32  1  6  0  0  0
  8  9  1  6  0  0  0
  8 17  1  0  0  0  0
 11 12  1  1  0  0  0
 11 20  1  0  0  0  0
 13  6  1  0  0  0  0
 13 14  1  6  0  0  0
 15 16  1  6  0  0  0
 15 24  1  0  0  0  0
 17 26  1  0  0  0  0
 18 10  1  0  0  0  0
 18 19  1  1  0  0  0
 20 21  1  1  0  0  0
 20 29  1  0  0  0  0
 22 13  1  0  0  0  0
 22 23  1  6  0  0  0
 24 25  1  6  0  0  0
 24 33  1  0  0  0  0
 26 27  1  6  0  0  0
 26 35  1  0  0  0  0
 28  2  1  1  0  0  0
 28 18  1  0  0  0  0
 29 30  1  0  0  0  0
 29 39  1  6  0  0  0
 31 22  1  0  0  0  0
 31 32  1  1  0  0  0
 31 41  1  0  0  0  0
 33 34  1  1  0  0  0
 33 43  1  0  0  0  0
 35 36  1  0  0  0  0
 35 45  1  1  0  0  0
 37 28  1  0  0  0  0
 37 38  1  1  0  0  0
 39 40  1  0  0  0  0
 41 42  1  0  0  0  0
 41 49  1  6  0  0  0
 43 44  1  0  0  0  0
 43 51  1  1  0  0  0
 45 46  1  0  0  0  0
 47 37  1  0  0  0  0
 47 48  1  6  0  0  0
 49 50  1  0  0  0  0
 51 52  1  0  0  0  0
M  END
>  <CHROM.1>
-156.42234761,-88.82783855,-169.91587839,72.96372218,89.85522699,-101.93937728
-173.31694741,41.61397915,61.10359154,-92.52269573,65.61305162,-168.72278163
9.76247800,-40.40356399,15.26633434,2.79054371,-1.26774270,-1.76598760

>  <Name>
2fd0_lig

>  <RI>
0

>  <Rbt.Current_Directory>
/home/itssahil/PROJECTS/Mol_Feturizer/New_Systems/rnas/2fd0

>  <Rbt.Executable>
rbdock ($Id: //depot/dev/client3/rdock/2013.1/src/exe/rbdock.cxx#4 $)

>  <Rbt.Library>
libRbt.so (2013.1, Build901 2013/11/27)

>  <Rbt.Parameter_File>
/export/apps/rDock/src/rDock_2013.1_src/data/scripts/dock_solv.prm

>  <Rbt.Receptor>
prm/blind_docking_100.prm

>  <SCORE>
1.15272

>  <SCORE.INTER>
-5.84504

>  <SCORE.INTER.CONST>
1

>  <SCORE.INTER.POLAR>
0

>  <SCORE.INTER.ROT>
12

>  <SCORE.INTER.SOLV>
25.0168

>  <SCORE.INTER.VDW>
-23.8356

>  <SCORE.INTER.norm>
-0.112405

>  <SCORE.INTRA>
4.45624

>  <SCORE.INTRA.DIHEDRAL>
0.111776

>  <SCORE.INTRA.DIHEDRAL.0>
23.9727

>  <SCORE.INTRA.POLAR>
0

>  <SCORE.INTRA.POLAR.0>
0

>  <SCORE.INTRA.REPUL>
0

>  <SCORE.INTRA.REPUL.0>
0

>  <SCORE.INTRA.SOLV>
3.4183

>  <SCORE.INTRA.SOLV.lig_0>
-115.028

>  <SCORE.INTRA.VDW>
2.6912

>  <SCORE.INTRA.VDW.0>
-6.82393

>  <SCORE.INTRA.norm>
0.0856968

>  <SCORE.RESTR>
2.54153

>  <SCORE.RESTR.CAVITY>
2.54153

>  <SCORE.RESTR.norm>
0.0488756

>  <SCORE.SYSTEM>
0

>  <SCORE.SYSTEM.CONST>
0

>  <SCORE.SYSTEM.DIHEDRAL>
0

>  <SCORE.SYSTEM.SOLV>
0

>  <SCORE.SYSTEM.norm>
0

>  <SCORE.heavy>
52

>  <SCORE.norm>
0.0221678

>  <RMSD>
16.414

$$$$
2fd0_lig
 OpenBabel11021811433D
libRbt.so/2013.1/901 2013/11/27
 52 56  0  0  0  0  0  0  0  0999 V2000
    7.6821  -45.6004   14.4174 C   0  0  2  0  0  0  0  0  0  0  0  0
    8.8850  -45.6517   13.6379 O   0  0  0  0  0  0  0  0  0  0  0  0
   10.3941  -43.8753    9.9692 C   0  0  2  0  0  0  0  0  0  0  0  0
   10.7427  -42.8858    8.9365 N   0  0  0  0  0  0  0  0  0  0  0  0
   11.3071  -43.0075   14.2764 C   0  0  1  0  0  0  0  0  0  0  0  0
   10.9849  -39.1068   15.0450 C   0  0  1  0  0  0  0  0  0  0  0  0
   12.2628  -34.9254   16.8178 C   0  0  1  0  0  0  0  0  0  0  0  0
    8.0743  -45.4589   15.9332 C   0  0  2  0  0  0  0  0  0  0  0  0
    8.9068  -44.2879   16.1710 N   0  0  0  0  0  0  0  0  0  0  0  0
    8.8292  -43.8443   10.2578 C   0  0  0  0  0  0  0  0  0  0  0  0
   12.1390  -42.0621   13.4293 C   0  0  2  0  0  0  0  0  0  0  0  0
   13.4921  -41.9075   13.9426 O   0  0  0  0  0  0  0  0  0  0  0  0
   11.1107  -37.5485   14.7057 C   0  0  2  0  0  0  0  0  0  0  0  0
   12.5352  -37.1190   14.7465 N   0  0  0  0  0  0  0  0  0  0  0  0
   13.6479  -34.9848   17.5004 C   0  0  1  0  0  0  0  0  0  0  0  0
   14.4859  -35.9272   16.7866 O   0  0  0  0  0  0  0  0  0  0  0  0
    8.7743  -46.7729   16.4429 C   0  0  0  0  0  0  0  0  0  0  0  0
    8.4505  -44.9300   11.3745 C   0  0  2  0  0  0  0  0  0  0  0  0
    7.0085  -44.9201   11.6619 N   0  0  0  0  0  0  0  0  0  0  0  0
   11.2907  -40.8021   13.3934 C   0  0  2  0  0  0  0  0  0  0  0  0
   11.8487  -39.7853   14.1805 O   0  0  0  0  0  0  0  0  0  0  0  0
   10.1161  -36.7565   15.7030 C   0  0  1  0  0  0  0  0  0  0  0  0
    8.7909  -37.2879   15.5227 O   0  0  0  0  0  0  0  0  0  0  0  0
   14.4330  -33.6528   17.6424 C   0  0  1  0  0  0  0  0  0  0  0  0
   15.2983  -33.5271   16.5067 O   0  0  0  0  0  0  0  0  0  0  0  0
    7.8231  -47.9823   16.1646 C   0  0  2  0  0  0  0  0  0  0  0  0
    8.4139  -49.1919   16.6293 O   0  0  0  0  0  0  0  0  0  0  0  0
    9.2559  -44.6310   12.6696 C   0  0  2  0  0  0  0  0  0  0  0  0
    9.9184  -41.1102   14.0387 C   0  0  2  0  0  0  0  0  0  0  0  0
    9.9788  -42.5159   14.2334 O   0  0  0  0  0  0  0  0  0  0  0  0
   10.5009  -36.9983   17.2547 C   0  0  2  0  0  0  0  0  0  0  0  0
   11.8205  -36.4382   17.3909 O   0  0  0  0  0  0  0  0  0  0  0  0
   13.5789  -32.3695   17.7616 C   0  0  2  0  0  0  0  0  0  0  0  0
   14.2276  -31.5591   18.7661 O   0  0  0  0  0  0  0  0  0  0  0  0
    7.5448  -48.0809   14.6373 C   0  0  2  0  0  0  0  0  0  0  0  0
    6.9177  -46.8143   14.1994 O   0  0  0  0  0  0  0  0  0  0  0  0
   10.7957  -44.5930   12.4278 C   0  0  2  0  0  0  0  0  0  0  0  0
   11.4268  -44.2642   13.6886 O   0  0  0  0  0  0  0  0  0  0  0  0
    8.7083  -40.7990   13.1651 C   0  0  0  0  0  0  0  0  0  0  0  0
    7.5413  -40.9901   13.9792 O   0  0  0  0  0  0  0  0  0  0  0  0
   10.5951  -38.5030   17.4231 C   0  0  1  0  0  0  0  0  0  0  0  0
   11.2997  -39.3867   16.5260 O   0  0  0  0  0  0  0  0  0  0  0  0
   12.1274  -32.7059   18.0926 C   0  0  2  0  0  0  0  0  0  0  0  0
   11.5174  -33.6967   17.2199 O   0  0  0  0  0  0  0  0  0  0  0  0
    6.6092  -49.2002   14.3073 C   0  0  0  0  0  0  0  0  0  0  0  0
    6.4591  -49.2437   12.9140 O   0  0  0  0  0  0  0  0  0  0  0  0
   11.1427  -43.5328   11.3196 C   0  0  1  0  0  0  0  0  0  0  0  0
   12.5926  -43.5621   11.0824 O   0  0  0  0  0  0  0  0  0  0  0  0
   11.0097  -38.9388   18.8731 C   0  0  0  0  0  0  0  0  0  0  0  0
   10.3576  -40.1910   19.3271 N   0  0  0  0  0  0  0  0  0  0  0  0
   11.0635  -31.6228   18.2568 C   0  0  0  0  0  0  0  0  0  0  0  0
    9.7460  -32.2278   18.4381 O   0  0  0  0  0  0  0  0  0  0  0  0
  1  2  1  6  0  0  0
  1  8  1  0  0  0  0
  1 36  1  0  0  0  0
  3  4  1  6  0  0  0
  3 10  1  0  0  0  0
  3 47  1  0  0  0  0
  5 11  1  0  0  0  0
  5 30  1  0  0  0  0
  5 38  1  6  0  0  0
  6 21  1  6  0  0  0
  6 42  1  0  0  0  0
  7 15  1  0  0  0  0
  7 44  1  0  0  0  0
  7 32  1  1  0  0  0
  8  9  1  6  0  0  0
  8 17  1  0  0  0  0
 11 12  1  1  0  0  0
 11 20  1  0  0  0  0
 13  6  1  0  0  0  0
 13 14  1  1  0  0  0
 15 16  1  6  0  0  0
 15 24  1  0  0  0  0
 17 26  1  0  0  0  0
 18 10  1  0  0  0  0
 18 19  1  1  0  0  0
 20 21  1  1  0  0  0
 20 29  1  0  0  0  0
 22 13  1  0  0  0  0
 22 23  1  1  0  0  0
 24 25  1  6  0  0  0
 24 33  1  0  0  0  0
 26 27  1  6  0  0  0
 26 35  1  0  0  0  0
 28  2  1  1  0  0  0
 28 18  1  0  0  0  0
 29 30  1  0  0  0  0
 29 39  1  6  0  0  0
 31 22  1  0  0  0  0
 31 32  1  6  0  0  0
 31 41  1  0  0  0  0
 33 34  1  1  0  0  0
 33 43  1  0  0  0  0
 35 36  1  0  0  0  0
 35 45  1  1  0  0  0
 37 28  1  0  0  0  0
 37 38  1  1  0  0  0
 39 40  1  0  0  0  0
 41 42  1  0  0  0  0
 41 49  1  1  0  0  0
 43 44  1  0  0  0  0
 43 51  1  6  0  0  0
 45 46  1  0  0  0  0
 47 37  1  0  0  0  0
 47 48  1  6  0  0  0
 49 50  1  0  0  0  0
 51 52  1  0  0  0  0
M  END
>  <CHROM.1>
-115.42207044,-71.66314684,-124.76463901,172.27745724,-133.12434431,-80.42477052
-173.09212287,47.61538292,-177.77297436,-68.94366059,144.58030446,174.40678212
10.48129913,-40.70687395,15.01519426,2.17437116,-1.01297988,-2.29993487

>  <Name>
2fd0_lig

>  <RI>
0

>  <Rbt.Current_Directory>
/home/itssahil/PROJECTS/Mol_Feturizer/New_Systems/rnas/2fd0

>  <Rbt.Executable>
rbdock ($Id: //depot/dev/client3/rdock/2013.1/src/exe/rbdock.cxx#4 $)

>  <Rbt.Library>
libRbt.so (2013.1, Build901 2013/11/27)

>  <Rbt.Parameter_File>
/export/apps/rDock/src/rDock_2013.1_src/data/scripts/dock_solv.prm

>  <Rbt.Receptor>
prm/blind_docking_100.prm

>  <SCORE>
36.8004

>  <SCORE.INTER>
21.2659

>  <SCORE.INTER.CONST>
1

>  <SCORE.INTER.POLAR>
-0.828776

>  <SCORE.INTER.ROT>
12

>  <SCORE.INTER.SOLV>
32.9891

>  <SCORE.INTER.VDW>
-5.65653

>  <SCORE.INTER.norm>
0.408959

>  <SCORE.INTRA>
12.2794

>  <SCORE.INTRA.DIHEDRAL>
4.66844

>  <SCORE.INTRA.DIHEDRAL.0>
23.9727

>  <SCORE.INTRA.POLAR>
0

>  <SCORE.INTRA.POLAR.0>
0

>  <SCORE.INTRA.REPUL>
0.141502

>  <SCORE.INTRA.REPUL.0>
0

>  <SCORE.INTRA.SOLV>
1.29464

>  <SCORE.INTRA.SOLV.lig_0>
-115.028

>  <SCORE.INTRA.VDW>
8.59038

>  <SCORE.INTRA.VDW.0>
-6.82393

>  <SCORE.INTRA.norm>
0.236143

>  <SCORE.RESTR>
3.25507

>  <SCORE.RESTR.CAVITY>
3.25507

>  <SCORE.RESTR.norm>
0.0625976

>  <SCORE.SYSTEM>
0

>  <SCORE.SYSTEM.CONST>
0

>  <SCORE.SYSTEM.DIHEDRAL>
0

>  <SCORE.SYSTEM.SOLV>
0

>  <SCORE.SYSTEM.norm>
0

>  <SCORE.heavy>
52

>  <SCORE.norm>
0.7077

>  <RMSD>
16.533

$$$$
2fd0_lig
 OpenBabel11021811433D
libRbt.so/2013.1/901 2013/11/27
 52 56  0  0  0  0  0  0  0  0999 V2000
    7.6349  -45.3808   11.6987 C   0  0  2  0  0  0  0  0  0  0  0  0
    7.2918  -44.8586   12.9897 O   0  0  0  0  0  0  0  0  0  0  0  0
    8.3622  -45.8376   17.0870 C   0  0  2  0  0  0  0  0  0  0  0  0
    9.1547  -46.0933   18.3010 N   0  0  0  0  0  0  0  0  0  0  0  0
    9.1916  -42.0695   14.9721 C   0  0  1  0  0  0  0  0  0  0  0  0
   10.9027  -37.8997   15.1860 C   0  0  1  0  0  0  0  0  0  0  0  0
   15.0162  -34.8161   14.2987 C   0  0  1  0  0  0  0  0  0  0  0  0
    6.8943  -44.5310   10.6028 C   0  0  2  0  0  0  0  0  0  0  0  0
    7.2202  -43.1152   10.7022 N   0  0  0  0  0  0  0  0  0  0  0  0
    8.8199  -46.8106   15.9137 C   0  0  0  0  0  0  0  0  0  0  0  0
    8.9225  -40.5928   14.7475 C   0  0  2  0  0  0  0  0  0  0  0  0
    9.1585  -40.1927   13.3682 O   0  0  0  0  0  0  0  0  0  0  0  0
   11.7022  -37.4539   13.8739 C   0  0  2  0  0  0  0  0  0  0  0  0
   13.0437  -38.0974   13.8366 N   0  0  0  0  0  0  0  0  0  0  0  0
   14.2567  -34.7636   12.9540 C   0  0  1  0  0  0  0  0  0  0  0  0
   13.1578  -33.8260   13.0688 O   0  0  0  0  0  0  0  0  0  0  0  0
    5.3407  -44.7687   10.6826 C   0  0  0  0  0  0  0  0  0  0  0  0
    7.9482  -46.5380   14.5965 C   0  0  2  0  0  0  0  0  0  0  0  0
    8.3535  -47.4235   13.4949 N   0  0  0  0  0  0  0  0  0  0  0  0
    9.7968  -39.9248   15.7953 C   0  0  2  0  0  0  0  0  0  0  0  0
   10.9067  -39.2972   15.2130 O   0  0  0  0  0  0  0  0  0  0  0  0
   11.7039  -35.8384   13.8365 C   0  0  1  0  0  0  0  0  0  0  0  0
   10.3361  -35.3921   13.8662 O   0  0  0  0  0  0  0  0  0  0  0  0
   15.0732  -34.3966   11.6853 C   0  0  1  0  0  0  0  0  0  0  0  0
   14.9712  -32.9805   11.4890 O   0  0  0  0  0  0  0  0  0  0  0  0
    5.0661  -46.3031   10.5601 C   0  0  2  0  0  0  0  0  0  0  0  0
    3.6661  -46.5593   10.6095 O   0  0  0  0  0  0  0  0  0  0  0  0
    8.1130  -45.0510   14.1753 C   0  0  2  0  0  0  0  0  0  0  0  0
   10.3850  -41.0175   16.7195 C   0  0  2  0  0  0  0  0  0  0  0  0
    9.7004  -42.1854   16.2895 O   0  0  0  0  0  0  0  0  0  0  0  0
   12.4217  -35.2065   15.1402 C   0  0  2  0  0  0  0  0  0  0  0  0
   13.7848  -35.6636   15.0590 O   0  0  0  0  0  0  0  0  0  0  0  0
   16.5683  -34.7904   11.7014 C   0  0  2  0  0  0  0  0  0  0  0  0
   16.8559  -35.2904   10.3771 O   0  0  0  0  0  0  0  0  0  0  0  0
    5.7832  -47.0513   11.7201 C   0  0  2  0  0  0  0  0  0  0  0  0
    7.2331  -46.7729   11.6226 O   0  0  0  0  0  0  0  0  0  0  0  0
    7.7313  -44.0555   15.3130 C   0  0  2  0  0  0  0  0  0  0  0  0
    7.9680  -42.7160   14.8173 O   0  0  0  0  0  0  0  0  0  0  0  0
   10.1122  -40.8225   18.2068 C   0  0  0  0  0  0  0  0  0  0  0  0
   10.5003  -42.0360   18.8685 O   0  0  0  0  0  0  0  0  0  0  0  0
   11.7600  -35.8699   16.3334 C   0  0  1  0  0  0  0  0  0  0  0  0
   11.5213  -37.2877   16.4561 O   0  0  0  0  0  0  0  0  0  0  0  0
   16.8578  -35.7980   12.8107 C   0  0  2  0  0  0  0  0  0  0  0  0
   16.3739  -35.4110   14.1266 O   0  0  0  0  0  0  0  0  0  0  0  0
    5.5886  -48.5321   11.6393 C   0  0  0  0  0  0  0  0  0  0  0  0
    4.3455  -48.8382   12.2110 O   0  0  0  0  0  0  0  0  0  0  0  0
    8.5874  -44.3503   16.5987 C   0  0  1  0  0  0  0  0  0  0  0  0
    8.1648  -43.4293   17.6629 O   0  0  0  0  0  0  0  0  0  0  0  0
   12.3626  -35.4125   17.7089 C   0  0  0  0  0  0  0  0  0  0  0  0
   11.6063  -35.9089   18.8840 N   0  0  0  0  0  0  0  0  0  0  0  0
   18.2608  -36.3483   13.0572 C   0  0  0  0  0  0  0  0  0  0  0  0
   18.2435  -37.3102   14.1567 O   0  0  0  0  0  0  0  0  0  0  0  0
  1  2  1  1  0  0  0
  1  8  1  0  0  0  0
  1 36  1  0  0  0  0
  3  4  1  1  0  0  0
  3 10  1  0  0  0  0
  3 47  1  0  0  0  0
  5 11  1  0  0  0  0
  5 30  1  0  0  0  0
  5 38  1  1  0  0  0
  6 21  1  1  0  0  0
  6 42  1  0  0  0  0
  7 15  1  0  0  0  0
  7 44  1  0  0  0  0
  7 32  1  1  0  0  0
  8  9  1  1  0  0  0
  8 17  1  0  0  0  0
 11 12  1  6  0  0  0
 11 20  1  0  0  0  0
 13  6  1  0  0  0  0
 13 14  1  1  0  0  0
 15 16  1  1  0  0  0
 15 24  1  0  0  0  0
 17 26  1  0  0  0  0
 18 10  1  0  0  0  0
 18 19  1  6  0  0  0
 20 21  1  6  0  0  0
 20 29  1  0  0  0  0
 22 13  1  0  0  0  0
 22 23  1  1  0  0  0
 24 25  1  1  0  0  0
 24 33  1  0  0  0  0
 26 27  1  1  0  0  0
 26 35  1  0  0  0  0
 28  2  1  6  0  0  0
 28 18  1  0  0  0  0
 29 30  1  0  0  0  0
 29 39  1  1  0  0  0
 31 22  1  0  0  0  0
 31 32  1  6  0  0  0
 31 41  1  0  0  0  0
 33 34  1  6  0  0  0
 33 43  1  0  0  0  0
 35 36  1  0  0  0  0
 35 45  1  6  0  0  0
 37 28  1  0  0  0  0
 37 38  1  6  0  0  0
 39 40  1  0  0  0  0
 41 42  1  0  0  0  0
 41 49  1  1  0  0  0
 43 44  1  0  0  0  0
 43 51  1  1  0  0  0
 45 46  1  0  0  0  0
 47 37  1  0  0  0  0
 47 48  1  1  0  0  0
 49 50  1  0  0  0  0
 51 52  1  0  0  0  0
M  END
>  <CHROM.1>
-157.31231568,-162.21424060,-148.72013374,-56.59774512,108.16841874,-72.74090979
169.27989627,91.24682796,-82.43606282,-90.09989905,172.10800480,-178.82562848
10.49080938,-40.60944103,14.17181414,-3.10225776,0.93366286,1.57568047

>  <Name>
2fd0_lig

>  <RI>
2.60878e+07

>  <Rbt.Current_Directory>
/home/itssahil/PROJECTS/Mol_Feturizer/New_Systems/rnas/2fd0

>  <Rbt.Executable>
rbdock ($Id: //depot/dev/client3/rdock/2013.1/src/exe/rbdock.cxx#4 $)

>  <Rbt.Library>
libRbt.so (2013.1, Build901 2013/11/27)

>  <Rbt.Parameter_File>
/export/apps/rDock/src/rDock_2013.1_src/data/scripts/dock_solv.prm

>  <Rbt.Receptor>
prm/blind_docking_80.prm

>  <SCORE>
12.2883

>  <SCORE.INTER>
-4.17297

>  <SCORE.INTER.CONST>
1

>  <SCORE.INTER.POLAR>
-0.814747

>  <SCORE.INTER.ROT>
12

>  <SCORE.INTER.SOLV>
26.3172

>  <SCORE.INTER.VDW>
-20.4386

>  <SCORE.INTER.norm>
-0.0802494

>  <SCORE.INTRA>
12.105

>  <SCORE.INTRA.DIHEDRAL>
2.05986

>  <SCORE.INTRA.DIHEDRAL.0>
23.9727

>  <SCORE.INTRA.POLAR>
0

>  <SCORE.INTRA.POLAR.0>
0

>  <SCORE.INTRA.REPUL>
0

>  <SCORE.INTRA.REPUL.0>
0

>  <SCORE.INTRA.SOLV>
0.163612

>  <SCORE.INTRA.SOLV.lig_0>
-115.028

>  <SCORE.INTRA.VDW>
10.9932

>  <SCORE.INTRA.VDW.0>
-6.82393

>  <SCORE.INTRA.norm>
0.232788

>  <SCORE.RESTR>
4.35624

>  <SCORE.RESTR.CAVITY>
4.35624

>  <SCORE.RESTR.norm>
0.0837739

>  <SCORE.SYSTEM>
0

>  <SCORE.SYSTEM.CONST>
0

>  <SCORE.SYSTEM.DIHEDRAL>
0

>  <SCORE.SYSTEM.SOLV>
0

>  <SCORE.SYSTEM.norm>
0

>  <SCORE.heavy>
52

>  <SCORE.norm>
0.236313

>  <RMSD>
16.796

$$$$
2fd0_lig
 OpenBabel11021811433D
libRbt.so/2013.1/901 2013/11/27
 52 56  0  0  0  0  0  0  0  0999 V2000
    8.2178  -44.9259   12.1843 C   0  0  2  0  0  0  0  0  0  0  0  0
    7.3670  -44.2605   13.1278 O   0  0  0  0  0  0  0  0  0  0  0  0
    4.0880  -42.6822   10.7508 C   0  0  2  0  0  0  0  0  0  0  0  0
    2.7512  -42.2116   10.3526 N   0  0  0  0  0  0  0  0  0  0  0  0
    7.9511  -41.2631   13.6576 C   0  0  1  0  0  0  0  0  0  0  0  0
   10.4582  -38.0078   15.0032 C   0  0  1  0  0  0  0  0  0  0  0  0
   14.8483  -35.1809   14.9037 C   0  0  1  0  0  0  0  0  0  0  0  0
    9.5717  -45.2848   12.8983 C   0  0  2  0  0  0  0  0  0  0  0  0
    9.3592  -46.1025   14.0845 N   0  0  0  0  0  0  0  0  0  0  0  0
    4.0115  -44.1827   11.2758 C   0  0  0  0  0  0  0  0  0  0  0  0
    8.0708  -39.8585   14.2202 C   0  0  2  0  0  0  0  0  0  0  0  0
    8.2974  -38.8655   13.1807 O   0  0  0  0  0  0  0  0  0  0  0  0
   11.4019  -37.4583   13.8342 C   0  0  2  0  0  0  0  0  0  0  0  0
   12.6918  -38.2007   13.8125 N   0  0  0  0  0  0  0  0  0  0  0  0
   14.3022  -35.0269   13.4664 C   0  0  1  0  0  0  0  0  0  0  0  0
   13.2252  -34.0574   13.4718 O   0  0  0  0  0  0  0  0  0  0  0  0
   10.3742  -43.9752   13.2410 C   0  0  0  0  0  0  0  0  0  0  0  0
    5.4698  -44.6966   11.6984 C   0  0  2  0  0  0  0  0  0  0  0  0
    5.4264  -46.0815   12.1903 N   0  0  0  0  0  0  0  0  0  0  0  0
    9.1708  -40.0010   15.2586 C   0  0  2  0  0  0  0  0  0  0  0  0
   10.3595  -39.3918   14.8336 O   0  0  0  0  0  0  0  0  0  0  0  0
   11.5229  -35.8583   14.0247 C   0  0  1  0  0  0  0  0  0  0  0  0
   10.1935  -35.3075   14.0089 O   0  0  0  0  0  0  0  0  0  0  0  0
   15.3107  -34.6209   12.3577 C   0  0  1  0  0  0  0  0  0  0  0  0
   15.2791  -33.1934   12.2334 O   0  0  0  0  0  0  0  0  0  0  0  0
   10.5722  -43.1553   11.9244 C   0  0  2  0  0  0  0  0  0  0  0  0
   11.3123  -41.9678   12.1893 O   0  0  0  0  0  0  0  0  0  0  0  0
    6.0427  -43.7571   12.7959 C   0  0  2  0  0  0  0  0  0  0  0  0
    9.5148  -41.5017   15.4133 C   0  0  2  0  0  0  0  0  0  0  0  0
    8.5111  -42.1298   14.6287 O   0  0  0  0  0  0  0  0  0  0  0  0
   12.1644  -35.4690   15.4569 C   0  0  2  0  0  0  0  0  0  0  0  0
   13.4930  -36.0231   15.4199 O   0  0  0  0  0  0  0  0  0  0  0  0
   16.7746  -35.0695   12.5730 C   0  0  2  0  0  0  0  0  0  0  0  0
   17.2447  -35.5063   11.2789 O   0  0  0  0  0  0  0  0  0  0  0  0
    9.1826  -42.7917   11.3273 C   0  0  2  0  0  0  0  0  0  0  0  0
    8.4547  -44.0502   11.0519 O   0  0  0  0  0  0  0  0  0  0  0  0
    6.0848  -42.2635   12.3504 C   0  0  2  0  0  0  0  0  0  0  0  0
    6.5909  -41.4905   13.4650 O   0  0  0  0  0  0  0  0  0  0  0  0
    9.4206  -42.0437   16.8352 C   0  0  0  0  0  0  0  0  0  0  0  0
   10.1961  -41.1707   17.6705 O   0  0  0  0  0  0  0  0  0  0  0  0
   11.3527  -36.2289   16.4889 C   0  0  1  0  0  0  0  0  0  0  0  0
   11.0028  -37.6255   16.3917 O   0  0  0  0  0  0  0  0  0  0  0  0
   16.8652  -36.1463   13.6508 C   0  0  2  0  0  0  0  0  0  0  0  0
   16.1993  -35.8148   14.9006 O   0  0  0  0  0  0  0  0  0  0  0  0
    9.3031  -42.0348   10.0429 C   0  0  0  0  0  0  0  0  0  0  0  0
    9.6059  -40.7012   10.3519 O   0  0  0  0  0  0  0  0  0  0  0  0
    4.6479  -41.7853   11.9270 C   0  0  1  0  0  0  0  0  0  0  0  0
    4.7358  -40.3930   11.4653 O   0  0  0  0  0  0  0  0  0  0  0  0
   11.8608  -36.0120   17.9583 C   0  0  0  0  0  0  0  0  0  0  0  0
   11.5469  -34.6692   18.5040 N   0  0  0  0  0  0  0  0  0  0  0  0
   18.1989  -36.7604   14.0703 C   0  0  0  0  0  0  0  0  0  0  0  0
   17.9759  -37.9379   14.9060 O   0  0  0  0  0  0  0  0  0  0  0  0
  1  2  1  1  0  0  0
  1  8  1  0  0  0  0
  1 36  1  0  0  0  0
  3  4  1  1  0  0  0
  3 10  1  0  0  0  0
  3 47  1  0  0  0  0
  5 11  1  0  0  0  0
  5 30  1  0  0  0  0
  5 38  1  1  0  0  0
  6 21  1  1  0  0  0
  6 42  1  0  0  0  0
  7 15  1  0  0  0  0
  7 44  1  0  0  0  0
  7 32  1  1  0  0  0
  8  9  1  1  0  0  0
  8 17  1  0  0  0  0
 11 12  1  6  0  0  0
 11 20  1  0  0  0  0
 13  6  1  0  0  0  0
 13 14  1  1  0  0  0
 15 16  1  1  0  0  0
 15 24  1  0  0  0  0
 17 26  1  0  0  0  0
 18 10  1  0  0  0  0
 18 19  1  1  0  0  0
 20 21  1  6  0  0  0
 20 29  1  0  0  0  0
 22 13  1  0  0  0  0
 22 23  1  1  0  0  0
 24 25  1  1  0  0  0
 24 33  1  0  0  0  0
 26 27  1  1  0  0  0
 26 35  1  0  0  0  0
 28  2  1  6  0  0  0
 28 18  1  0  0  0  0
 29 30  1  0  0  0  0
 29 39  1  1  0  0  0
 31 22  1  0  0  0  0
 31 32  1  6  0  0  0
 31 41  1  0  0  0  0
 33 34  1  6  0  0  0
 33 43  1  0  0  0  0
 35 36  1  0  0  0  0
 35 45  1  6  0  0  0
 37 28  1  0  0  0  0
 37 38  1  1  0  0  0
 39 40  1  0  0  0  0
 41 42  1  0  0  0  0
 41 49  1  1  0  0  0
 43 44  1  0  0  0  0
 43 51  1  1  0  0  0
 45 46  1  0  0  0  0
 47 37  1  0  0  0  0
 47 48  1  6  0  0  0
 49 50  1  0  0  0  0
 51 52  1  0  0  0  0
M  END
>  <CHROM.1>
178.48023448,144.15900672,-150.03611805,-63.51095557,81.35309211,31.12773987
-51.76040469,92.03163697,-78.77245588,88.73929602,72.86080565,-168.47351395
10.39998857,-39.67574914,13.56613584,-2.39028888,0.21729943,0.47944924

>  <Name>
2fd0_lig

>  <RI>
2.85265e+07

>  <Rbt.Current_Directory>
/home/itssahil/PROJECTS/Mol_Feturizer/New_Systems/rnas/2fd0

>  <Rbt.Executable>
rbdock ($Id: //depot/dev/client3/rdock/2013.1/src/exe/rbdock.cxx#4 $)

>  <Rbt.Library>
libRbt.so (2013.1, Build901 2013/11/27)

>  <Rbt.Parameter_File>
/export/apps/rDock/src/rDock_2013.1_src/data/scripts/dock_solv.prm

>  <Rbt.Receptor>
prm/blind_docking_60.prm

>  <SCORE>
-4.12633

>  <SCORE.INTER>
-11.9726

>  <SCORE.INTER.CONST>
1

>  <SCORE.INTER.POLAR>
-0.907478

>  <SCORE.INTER.ROT>
12

>  <SCORE.INTER.SOLV>
19.1151

>  <SCORE.INTER.VDW>
-22.9285

>  <SCORE.INTER.norm>
-0.230242

>  <SCORE.INTRA>
3.8424

>  <SCORE.INTRA.DIHEDRAL>
0.659667

>  <SCORE.INTRA.DIHEDRAL.0>
23.9727

>  <SCORE.INTRA.POLAR>
0

>  <SCORE.INTRA.POLAR.0>
0

>  <SCORE.INTRA.REPUL>
0.432963

>  <SCORE.INTRA.REPUL.0>
0

>  <SCORE.INTRA.SOLV>
-1.58239

>  <SCORE.INTRA.SOLV.lig_0>
-115.028

>  <SCORE.INTRA.VDW>
2.13895

>  <SCORE.INTRA.VDW.0>
-6.82393

>  <SCORE.INTRA.norm>
0.0738923

>  <SCORE.RESTR>
4.00387

>  <SCORE.RESTR.CAVITY>
4.00387

>  <SCORE.RESTR.norm>
0.0769976

>  <SCORE.SYSTEM>
0

>  <SCORE.SYSTEM.CONST>
0

>  <SCORE.SYSTEM.DIHEDRAL>
0

>  <SCORE.SYSTEM.SOLV>
0

>  <SCORE.SYSTEM.norm>
0

>  <SCORE.heavy>
52

>  <SCORE.norm>
-0.0793524

>  <RMSD>
16.915

$$$$
2fd0_lig
 OpenBabel11021811433D
libRbt.so/2013.1/901 2013/11/27
 52 56  0  0  0  0  0  0  0  0999 V2000
    7.3292  -45.0334   13.9931 C   0  0  2  0  0  0  0  0  0  0  0  0
    6.4822  -44.0640   13.3609 O   0  0  0  0  0  0  0  0  0  0  0  0
    9.0326  -41.4112   11.0477 C   0  0  2  0  0  0  0  0  0  0  0  0
    9.5529  -40.2110   10.3727 N   0  0  0  0  0  0  0  0  0  0  0  0
    9.2539  -42.1153   15.6429 C   0  0  1  0  0  0  0  0  0  0  0  0
   10.8994  -39.4908   18.9394 C   0  0  1  0  0  0  0  0  0  0  0  0
   13.2340  -35.1899   17.8632 C   0  0  1  0  0  0  0  0  0  0  0  0
    7.9211  -45.9786   12.8851 C   0  0  2  0  0  0  0  0  0  0  0  0
    8.6444  -45.2323   11.8651 N   0  0  0  0  0  0  0  0  0  0  0  0
    7.5862  -41.7742   10.4915 C   0  0  0  0  0  0  0  0  0  0  0  0
    9.1712  -40.7542   16.3093 C   0  0  2  0  0  0  0  0  0  0  0  0
    9.9866  -39.7576   15.6310 O   0  0  0  0  0  0  0  0  0  0  0  0
   10.6683  -38.1652   18.0741 C   0  0  2  0  0  0  0  0  0  0  0  0
   11.6088  -38.1242   16.9212 N   0  0  0  0  0  0  0  0  0  0  0  0
   12.7732  -34.3175   19.0525 C   0  0  1  0  0  0  0  0  0  0  0  0
   13.8446  -34.2413   20.0251 O   0  0  0  0  0  0  0  0  0  0  0  0
    6.7817  -46.8596   12.2509 C   0  0  0  0  0  0  0  0  0  0  0  0
    7.0264  -43.0877   11.2200 C   0  0  2  0  0  0  0  0  0  0  0  0
    5.6883  -43.4437   10.7254 N   0  0  0  0  0  0  0  0  0  0  0  0
    9.5483  -41.0574   17.7496 C   0  0  2  0  0  0  0  0  0  0  0  0
   10.8271  -40.5732   18.0579 O   0  0  0  0  0  0  0  0  0  0  0  0
   10.7526  -36.9085   19.0862 C   0  0  1  0  0  0  0  0  0  0  0  0
    9.7741  -37.1067   20.1227 O   0  0  0  0  0  0  0  0  0  0  0  0
   12.3030  -32.8713   18.7388 C   0  0  1  0  0  0  0  0  0  0  0  0
   13.4306  -31.9989   18.8854 O   0  0  0  0  0  0  0  0  0  0  0  0
    6.0575  -47.6363   13.3986 C   0  0  2  0  0  0  0  0  0  0  0  0
    5.0282  -48.4618   12.8627 O   0  0  0  0  0  0  0  0  0  0  0  0
    6.9810  -42.8395   12.7536 C   0  0  2  0  0  0  0  0  0  0  0  0
    9.6405  -42.5920   17.9250 C   0  0  2  0  0  0  0  0  0  0  0  0
    9.1511  -43.0737   16.6816 O   0  0  0  0  0  0  0  0  0  0  0  0
   12.1899  -36.8228   19.8217 C   0  0  2  0  0  0  0  0  0  0  0  0
   13.1303  -36.6080   18.7525 O   0  0  0  0  0  0  0  0  0  0  0  0
   11.6786  -32.6473   17.3421 C   0  0  2  0  0  0  0  0  0  0  0  0
   10.5498  -31.7712   17.5537 O   0  0  0  0  0  0  0  0  0  0  0  0
    5.4505  -46.6203   14.4080 C   0  0  2  0  0  0  0  0  0  0  0  0
    6.5520  -45.7959   14.9523 O   0  0  0  0  0  0  0  0  0  0  0  0
    8.3649  -42.4236   13.3391 C   0  0  2  0  0  0  0  0  0  0  0  0
    8.1835  -42.1793   14.7545 O   0  0  0  0  0  0  0  0  0  0  0  0
    8.7725  -43.1692   19.0376 C   0  0  0  0  0  0  0  0  0  0  0  0
    9.2965  -42.6749   20.2794 O   0  0  0  0  0  0  0  0  0  0  0  0
   12.4321  -38.2007   20.4084 C   0  0  1  0  0  0  0  0  0  0  0  0
   12.2389  -39.4411   19.6969 O   0  0  0  0  0  0  0  0  0  0  0  0
   11.3065  -33.9754   16.6885 C   0  0  2  0  0  0  0  0  0  0  0  0
   12.3742  -34.9629   16.6648 O   0  0  0  0  0  0  0  0  0  0  0  0
    4.7720  -47.3025   15.5532 C   0  0  0  0  0  0  0  0  0  0  0  0
    5.7235  -48.0937   16.2122 O   0  0  0  0  0  0  0  0  0  0  0  0
    8.9012  -41.1430   12.6008 C   0  0  1  0  0  0  0  0  0  0  0  0
   10.2268  -40.8122   13.1419 O   0  0  0  0  0  0  0  0  0  0  0  0
   13.8184  -38.3298   21.1336 C   0  0  0  0  0  0  0  0  0  0  0  0
   13.9630  -37.4313   22.3046 N   0  0  0  0  0  0  0  0  0  0  0  0
   10.6800  -34.0447   15.2977 C   0  0  0  0  0  0  0  0  0  0  0  0
   10.5562  -35.4346   14.8647 O   0  0  0  0  0  0  0  0  0  0  0  0
  1  2  1  6  0  0  0
  1  8  1  0  0  0  0
  1 36  1  0  0  0  0
  3  4  1  6  0  0  0
  3 10  1  0  0  0  0
  3 47  1  0  0  0  0
  5 11  1  0  0  0  0
  5 30  1  0  0  0  0
  5 38  1  6  0  0  0
  6 21  1  6  0  0  0
  6 42  1  0  0  0  0
  7 15  1  0  0  0  0
  7 44  1  0  0  0  0
  7 32  1  1  0  0  0
  8  9  1  6  0  0  0
  8 17  1  0  0  0  0
 11 12  1  6  0  0  0
 11 20  1  0  0  0  0
 13  6  1  0  0  0  0
 13 14  1  6  0  0  0
 15 16  1  1  0  0  0
 15 24  1  0  0  0  0
 17 26  1  0  0  0  0
 18 10  1  0  0  0  0
 18 19  1  6  0  0  0
 20 21  1  6  0  0  0
 20 29  1  0  0  0  0
 22 13  1  0  0  0  0
 22 23  1  1  0  0  0
 24 25  1  6  0  0  0
 24 33  1  0  0  0  0
 26 27  1  6  0  0  0
 26 35  1  0  0  0  0
 28  2  1  1  0  0  0
 28 18  1  0  0  0  0
 29 30  1  0  0  0  0
 29 39  1  1  0  0  0
 31 22  1  0  0  0  0
 31 32  1  6  0  0  0
 31 41  1  0  0  0  0
 33 34  1  1  0  0  0
 33 43  1  0  0  0  0
 35 36  1  0  0  0  0
 35 45  1  1  0  0  0
 37 28  1  0  0  0  0
 37 38  1  1  0  0  0
 39 40  1  0  0  0  0
 41 42  1  0  0  0  0
 41 49  1  6  0  0  0
 43 44  1  0  0  0  0
 43 51  1  6  0  0  0
 45 46  1  0  0  0  0
 47 37  1  0  0  0  0
 47 48  1  1  0  0  0
 49 50  1  0  0  0  0
 51 52  1  0  0  0  0
M  END
>  <CHROM.1>
-83.30470395,122.66850626,-83.44053144,30.82050278,110.47883690,100.92533591
-66.44388201,69.41785603,59.68529684,163.66428708,62.59809843,174.14728109
9.66481843,-40.25991595,16.14561604,-2.96255198,-1.11774788,-0.89731454

>  <Name>
2fd0_lig

>  <RI>
2.85265e+07

>  <Rbt.Current_Directory>
/home/itssahil/PROJECTS/Mol_Feturizer/New_Systems/rnas/2fd0

>  <Rbt.Executable>
rbdock ($Id: //depot/dev/client3/rdock/2013.1/src/exe/rbdock.cxx#4 $)

>  <Rbt.Library>
libRbt.so (2013.1, Build901 2013/11/27)

>  <Rbt.Parameter_File>
/export/apps/rDock/src/rDock_2013.1_src/data/scripts/dock_solv.prm

>  <Rbt.Receptor>
prm/blind_docking_60.prm

>  <SCORE>
0.0161922

>  <SCORE.INTER>
-10.5261

>  <SCORE.INTER.CONST>
1

>  <SCORE.INTER.POLAR>
-0.717391

>  <SCORE.INTER.ROT>
12

>  <SCORE.INTER.SOLV>
27.1327

>  <SCORE.INTER.VDW>
-25.2703

>  <SCORE.INTER.norm>
-0.202426

>  <SCORE.INTRA>
8.93073

>  <SCORE.INTRA.DIHEDRAL>
7.05416

>  <SCORE.INTRA.DIHEDRAL.0>
23.9727

>  <SCORE.INTRA.POLAR>
0

>  <SCORE.INTRA.POLAR.0>
0

>  <SCORE.INTRA.REPUL>
0.0456128

>  <SCORE.INTRA.REPUL.0>
0

>  <SCORE.INTRA.SOLV>
4.51385

>  <SCORE.INTRA.SOLV.lig_0>
-115.028

>  <SCORE.INTRA.VDW>
2.91866

>  <SCORE.INTRA.VDW.0>
-6.82393

>  <SCORE.INTRA.norm>
0.171745

>  <SCORE.RESTR>
1.61159

>  <SCORE.RESTR.CAVITY>
1.61159

>  <SCORE.RESTR.norm>
0.0309921

>  <SCORE.SYSTEM>
0

>  <SCORE.SYSTEM.CONST>
0

>  <SCORE.SYSTEM.DIHEDRAL>
0

>  <SCORE.SYSTEM.SOLV>
0

>  <SCORE.SYSTEM.norm>
0

>  <SCORE.heavy>
52

>  <SCORE.norm>
0.000311388

>  <RMSD>
16.956

$$$$
2fd0_lig
 OpenBabel11021811433D
libRbt.so/2013.1/901 2013/11/27
 52 56  0  0  0  0  0  0  0  0999 V2000
    8.8633  -45.8186   13.4889 C   0  0  2  0  0  0  0  0  0  0  0  0
    8.3381  -44.5061   13.2469 O   0  0  0  0  0  0  0  0  0  0  0  0
   11.5003  -42.6003   10.9530 C   0  0  2  0  0  0  0  0  0  0  0  0
   12.2423  -41.6210   10.1424 N   0  0  0  0  0  0  0  0  0  0  0  0
   10.8011  -41.7473   15.3289 C   0  0  1  0  0  0  0  0  0  0  0  0
   11.3240  -37.6990   16.8809 C   0  0  1  0  0  0  0  0  0  0  0  0
   14.5289  -34.1870   14.9548 C   0  0  1  0  0  0  0  0  0  0  0  0
    7.8153  -46.8769   12.9857 C   0  0  2  0  0  0  0  0  0  0  0  0
    7.4892  -46.6910   11.5787 N   0  0  0  0  0  0  0  0  0  0  0  0
   10.1546  -43.0216   10.2150 C   0  0  0  0  0  0  0  0  0  0  0  0
   10.3108  -40.3127   15.4005 C   0  0  2  0  0  0  0  0  0  0  0  0
   10.9653  -39.4567   14.4223 O   0  0  0  0  0  0  0  0  0  0  0  0
   11.8299  -37.2504   15.4310 C   0  0  2  0  0  0  0  0  0  0  0  0
   13.2533  -37.6375   15.2322 N   0  0  0  0  0  0  0  0  0  0  0  0
   13.5065  -34.5469   13.8535 C   0  0  1  0  0  0  0  0  0  0  0  0
   12.3024  -33.7659   14.0537 O   0  0  0  0  0  0  0  0  0  0  0  0
    6.5234  -46.8382   13.8835 C   0  0  0  0  0  0  0  0  0  0  0  0
    9.3538  -44.0962   11.0944 C   0  0  2  0  0  0  0  0  0  0  0  0
    8.1034  -44.5007   10.4352 N   0  0  0  0  0  0  0  0  0  0  0  0
   10.5326  -39.9503   16.8593 C   0  0  2  0  0  0  0  0  0  0  0  0
   11.6063  -39.0619   17.0097 O   0  0  0  0  0  0  0  0  0  0  0  0
   11.5090  -35.6744   15.2750 C   0  0  1  0  0  0  0  0  0  0  0  0
   10.0978  -35.4858   15.4849 O   0  0  0  0  0  0  0  0  0  0  0  0
   13.9545  -34.3725   12.3771 C   0  0  1  0  0  0  0  0  0  0  0  0
   13.5530  -33.0660   11.9454 O   0  0  0  0  0  0  0  0  0  0  0  0
    6.9472  -47.0531   15.3731 C   0  0  2  0  0  0  0  0  0  0  0  0
    5.8012  -47.0431   16.2186 O   0  0  0  0  0  0  0  0  0  0  0  0
    9.0489  -43.4860   12.4909 C   0  0  2  0  0  0  0  0  0  0  0  0
   10.9487  -41.2264   17.6292 C   0  0  2  0  0  0  0  0  0  0  0  0
   10.7708  -42.2449   16.6553 O   0  0  0  0  0  0  0  0  0  0  0  0
   12.2628  -34.7919   16.4008 C   0  0  2  0  0  0  0  0  0  0  0  0
   13.6643  -34.9972   16.1417 O   0  0  0  0  0  0  0  0  0  0  0  0
   15.4658  -34.5456   12.1001 C   0  0  2  0  0  0  0  0  0  0  0  0
   15.5549  -35.2914   10.8663 O   0  0  0  0  0  0  0  0  0  0  0  0
    7.9302  -45.9254   15.7993 C   0  0  2  0  0  0  0  0  0  0  0  0
    9.1109  -45.9812   14.9093 O   0  0  0  0  0  0  0  0  0  0  0  0
   10.3328  -43.0036   13.2324 C   0  0  2  0  0  0  0  0  0  0  0  0
    9.9161  -42.4196   14.4899 O   0  0  0  0  0  0  0  0  0  0  0  0
   10.0835  -41.5634   18.8385 C   0  0  0  0  0  0  0  0  0  0  0  0
   10.2488  -40.4962   19.7845 O   0  0  0  0  0  0  0  0  0  0  0  0
   11.9169  -35.4401   17.7281 C   0  0  1  0  0  0  0  0  0  0  0  0
   11.9809  -36.8575   17.9905 O   0  0  0  0  0  0  0  0  0  0  0  0
   16.1643  -35.2239   13.2755 C   0  0  2  0  0  0  0  0  0  0  0  0
   15.9059  -34.6157   14.5711 O   0  0  0  0  0  0  0  0  0  0  0  0
    8.4029  -46.0941   17.2083 C   0  0  0  0  0  0  0  0  0  0  0  0
    8.8601  -47.4111   17.3577 O   0  0  0  0  0  0  0  0  0  0  0  0
   11.1094  -41.9622   12.3464 C   0  0  1  0  0  0  0  0  0  0  0  0
   12.3368  -41.5705   13.0531 O   0  0  0  0  0  0  0  0  0  0  0  0
   12.6032  -34.7420   18.9553 C   0  0  0  0  0  0  0  0  0  0  0  0
   12.8485  -35.6548   20.0981 N   0  0  0  0  0  0  0  0  0  0  0  0
   17.6647  -35.5079   13.2700 C   0  0  0  0  0  0  0  0  0  0  0  0
   18.3978  -34.3570   12.7480 O   0  0  0  0  0  0  0  0  0  0  0  0
  1  2  1  1  0  0  0
  1  8  1  0  0  0  0
  1 36  1  0  0  0  0
  3  4  1  6  0  0  0
  3 10  1  0  0  0  0
  3 47  1  0  0  0  0
  5 11  1  0  0  0  0
  5 30  1  0  0  0  0
  5 38  1  6  0  0  0
  6 21  1  1  0  0  0
  6 42  1  0  0  0  0
  7 15  1  0  0  0  0
  7 44  1  0  0  0  0
  7 32  1  1  0  0  0
  8  9  1  6  0  0  0
  8 17  1  0  0  0  0
 11 12  1  6  0  0  0
 11 20  1  0  0  0  0
 13  6  1  0  0  0  0
 13 14  1  1  0  0  0
 15 16  1  1  0  0  0
 15 24  1  0  0  0  0
 17 26  1  0  0  0  0
 18 10  1  0  0  0  0
 18 19  1  6  0  0  0
 20 21  1  6  0  0  0
 20 29  1  0  0  0  0
 22 13  1  0  0  0  0
 22 23  1  1  0  0  0
 24 25  1  1  0  0  0
 24 33  1  0  0  0  0
 26 27  1  1  0  0  0
 26 35  1  0  0  0  0
 28  2  1  1  0  0  0
 28 18  1  0  0  0  0
 29 30  1  0  0  0  0
 29 39  1  1  0  0  0
 31 22  1  0  0  0  0
 31 32  1  6  0  0  0
 31 41  1  0  0  0  0
 33 34  1  6  0  0  0
 33 43  1  0  0  0  0
 35 36  1  0  0  0  0
 35 45  1  1  0  0  0
 37 28  1  0  0  0  0
 37 38  1  1  0  0  0
 39 40  1  0  0  0  0
 41 42  1  0  0  0  0
 41 49  1  1  0  0  0
 43 44  1  0  0  0  0
 43 51  1  6  0  0  0
 45 46  1  0  0  0  0
 47 37  1  0  0  0  0
 47 48  1  1  0  0  0
 49 50  1  0  0  0  0
 51 52  1  0  0  0  0
M  END
>  <CHROM.1>
-125.19662264,116.80263811,-102.87461400,-51.84987585,86.45836100,56.81345881
-64.07188940,80.72984591,50.36252260,-172.24533520,-151.71364627,43.19302373
11.30239213,-39.97808334,14.68218087,-2.71120259,1.00749615,1.10162620

>  <Name>
2fd0_lig

>  <RI>
0

>  <Rbt.Current_Directory>
/home/itssahil/PROJECTS/Mol_Feturizer/New_Systems/rnas/2fd0

>  <Rbt.Executable>
rbdock ($Id: //depot/dev/client3/rdock/2013.1/src/exe/rbdock.cxx#4 $)

>  <Rbt.Library>
libRbt.so (2013.1, Build901 2013/11/27)

>  <Rbt.Parameter_File>
/export/apps/rDock/src/rDock_2013.1_src/data/scripts/dock_solv.prm

>  <Rbt.Receptor>
prm/blind_docking_100.prm

>  <SCORE>
17.6907

>  <SCORE.INTER>
-2.74092

>  <SCORE.INTER.CONST>
1

>  <SCORE.INTER.POLAR>
-0.973658

>  <SCORE.INTER.ROT>
12

>  <SCORE.INTER.SOLV>
27.5665

>  <SCORE.INTER.VDW>
-19.3706

>  <SCORE.INTER.norm>
-0.05271

>  <SCORE.INTRA>
15.8334

>  <SCORE.INTRA.DIHEDRAL>
5.71589

>  <SCORE.INTRA.DIHEDRAL.0>
23.9727

>  <SCORE.INTRA.POLAR>
0

>  <SCORE.INTRA.POLAR.0>
0

>  <SCORE.INTRA.REPUL>
0

>  <SCORE.INTRA.REPUL.0>
0

>  <SCORE.INTRA.SOLV>
3.55583

>  <SCORE.INTRA.SOLV.lig_0>
-115.028

>  <SCORE.INTRA.VDW>
11.1975

>  <SCORE.INTRA.VDW.0>
-6.82393

>  <SCORE.INTRA.norm>
0.304488

>  <SCORE.RESTR>
4.59829

>  <SCORE.RESTR.CAVITY>
4.59829

>  <SCORE.RESTR.norm>
0.0884286

>  <SCORE.SYSTEM>
0

>  <SCORE.SYSTEM.CONST>
0

>  <SCORE.SYSTEM.DIHEDRAL>
0

>  <SCORE.SYSTEM.SOLV>
0

>  <SCORE.SYSTEM.norm>
0

>  <SCORE.heavy>
52

>  <SCORE.norm>
0.340206

>  <RMSD>
17.038

$$$$
2fd0_lig
 OpenBabel11021811433D
libRbt.so/2013.1/901 2013/11/27
 52 56  0  0  0  0  0  0  0  0999 V2000
    7.6355  -42.1208   12.4330 C   0  0  2  0  0  0  0  0  0  0  0  0
    8.7286  -41.4675   13.0928 O   0  0  0  0  0  0  0  0  0  0  0  0
   12.2090  -43.6565   11.6829 C   0  0  2  0  0  0  0  0  0  0  0  0
   13.6021  -44.0124   11.3674 N   0  0  0  0  0  0  0  0  0  0  0  0
   11.1311  -41.8811   15.6931 C   0  0  1  0  0  0  0  0  0  0  0  0
   10.9573  -37.7671   16.1277 C   0  0  1  0  0  0  0  0  0  0  0  0
   14.0318  -34.0609   14.4747 C   0  0  1  0  0  0  0  0  0  0  0  0
    6.4072  -42.1536   13.4137 C   0  0  2  0  0  0  0  0  0  0  0  0
    6.0323  -40.8185   13.8584 N   0  0  0  0  0  0  0  0  0  0  0  0
   11.8134  -42.2895   10.9705 C   0  0  0  0  0  0  0  0  0  0  0  0
   10.3407  -40.5905   15.5772 C   0  0  2  0  0  0  0  0  0  0  0  0
   10.7690  -39.7812   14.4460 O   0  0  0  0  0  0  0  0  0  0  0  0
   12.0593  -37.5624   14.9863 C   0  0  2  0  0  0  0  0  0  0  0  0
   13.4171  -37.4517   15.5858 N   0  0  0  0  0  0  0  0  0  0  0  0
   13.6131  -34.8913   13.2407 C   0  0  1  0  0  0  0  0  0  0  0  0
   12.3825  -34.3483   12.7016 O   0  0  0  0  0  0  0  0  0  0  0  0
    6.7056  -43.1015   14.6339 C   0  0  0  0  0  0  0  0  0  0  0  0
   10.2928  -41.9098   11.3065 C   0  0  2  0  0  0  0  0  0  0  0  0
    9.9023  -40.6474   10.6616 N   0  0  0  0  0  0  0  0  0  0  0  0
   10.5120  -39.9627   16.9502 C   0  0  2  0  0  0  0  0  0  0  0  0
   11.3687  -38.8542   16.9041 O   0  0  0  0  0  0  0  0  0  0  0  0
   11.5918  -36.3052   14.0852 C   0  0  1  0  0  0  0  0  0  0  0  0
   10.2739  -36.5866   13.5802 O   0  0  0  0  0  0  0  0  0  0  0  0
   14.6364  -35.0119   12.0791 C   0  0  1  0  0  0  0  0  0  0  0  0
   14.3579  -33.9697   11.1354 O   0  0  0  0  0  0  0  0  0  0  0  0
    7.0903  -44.5135   14.0834 C   0  0  2  0  0  0  0  0  0  0  0  0
    7.3510  -45.4086   15.1600 O   0  0  0  0  0  0  0  0  0  0  0  0
   10.1244  -41.7972   12.8475 C   0  0  2  0  0  0  0  0  0  0  0  0
   11.2152  -40.9828   17.8772 C   0  0  2  0  0  0  0  0  0  0  0  0
   11.2415  -42.1571   17.0785 O   0  0  0  0  0  0  0  0  0  0  0  0
   11.4693  -34.9503   14.9589 C   0  0  2  0  0  0  0  0  0  0  0  0
   12.8080  -34.7001   15.4267 O   0  0  0  0  0  0  0  0  0  0  0  0
   16.1286  -34.9373   12.4770 C   0  0  2  0  0  0  0  0  0  0  0  0
   16.7973  -35.9390   11.6795 O   0  0  0  0  0  0  0  0  0  0  0  0
    8.3502  -44.3908   13.1793 C   0  0  2  0  0  0  0  0  0  0  0  0
    8.0325  -43.4677   12.0673 O   0  0  0  0  0  0  0  0  0  0  0  0
   10.5547  -43.0943   13.5981 C   0  0  2  0  0  0  0  0  0  0  0  0
   10.3951  -42.8502   15.0163 O   0  0  0  0  0  0  0  0  0  0  0  0
   10.4733  -41.2997   19.1709 C   0  0  0  0  0  0  0  0  0  0  0  0
    9.2653  -41.9846   18.8062 O   0  0  0  0  0  0  0  0  0  0  0  0
   10.6005  -35.3086   16.1498 C   0  0  1  0  0  0  0  0  0  0  0  0
   10.7699  -36.4879   16.9639 O   0  0  0  0  0  0  0  0  0  0  0  0
   16.3057  -35.1354   13.9800 C   0  0  2  0  0  0  0  0  0  0  0  0
   15.4691  -34.2825   14.8095 O   0  0  0  0  0  0  0  0  0  0  0  0
    8.7501  -45.7062   12.5904 C   0  0  0  0  0  0  0  0  0  0  0  0
    9.1373  -46.5515   13.6398 O   0  0  0  0  0  0  0  0  0  0  0  0
   12.0432  -43.4557   13.2429 C   0  0  1  0  0  0  0  0  0  0  0  0
   12.3958  -44.7083   13.9256 O   0  0  0  0  0  0  0  0  0  0  0  0
   10.4016  -34.1167   17.1519 C   0  0  0  0  0  0  0  0  0  0  0  0
    9.8485  -32.8944   16.5198 N   0  0  0  0  0  0  0  0  0  0  0  0
   17.6803  -35.0983   14.6441 C   0  0  0  0  0  0  0  0  0  0  0  0
   17.5430  -35.1219   16.0984 O   0  0  0  0  0  0  0  0  0  0  0  0
  1  2  1  1  0  0  0
  1  8  1  0  0  0  0
  1 36  1  0  0  0  0
  3  4  1  1  0  0  0
  3 10  1  0  0  0  0
  3 47  1  0  0  0  0
  5 11  1  0  0  0  0
  5 30  1  0  0  0  0
  5 38  1  6  0  0  0
  6 21  1  1  0  0  0
  6 42  1  0  0  0  0
  7 15  1  0  0  0  0
  7 44  1  0  0  0  0
  7 32  1  1  0  0  0
  8  9  1  1  0  0  0
  8 17  1  0  0  0  0
 11 12  1  6  0  0  0
 11 20  1  0  0  0  0
 13  6  1  0  0  0  0
 13 14  1  1  0  0  0
 15 16  1  6  0  0  0
 15 24  1  0  0  0  0
 17 26  1  0  0  0  0
 18 10  1  0  0  0  0
 18 19  1  6  0  0  0
 20 21  1  6  0  0  0
 20 29  1  0  0  0  0
 22 13  1  0  0  0  0
 22 23  1  1  0  0  0
 24 25  1  6  0  0  0
 24 33  1  0  0  0  0
 26 27  1  1  0  0  0
 26 35  1  0  0  0  0
 28  2  1  6  0  0  0
 28 18  1  0  0  0  0
 29 30  1  0  0  0  0
 29 39  1  1  0  0  0
 31 22  1  0  0  0  0
 31 32  1  1  0  0  0
 31 41  1  0  0  0  0
 33 34  1  6  0  0  0
 33 43  1  0  0  0  0
 35 36  1  0  0  0  0
 35 45  1  6  0  0  0
 37 28  1  0  0  0  0
 37 38  1  1  0  0  0
 39 40  1  0  0  0  0
 41 42  1  0  0  0  0
 41 49  1  1  0  0  0
 43 44  1  0  0  0  0
 43 51  1  1  0  0  0
 45 46  1  0  0  0  0
 47 37  1  0  0  0  0
 47 48  1  1  0  0  0
 49 50  1  0  0  0  0
 51 52  1  0  0  0  0
M  END
>  <CHROM.1>
148.49855873,88.33497834,-118.97425019,-40.06159160,62.76337723,45.07399482
66.56562737,76.80144642,-64.79181467,-63.44265437,55.74724065,171.81989377
11.30495009,-39.46907927,14.32983906,-2.28940053,0.70518983,0.57152144

>  <Name>
2fd0_lig

>  <RI>
0

>  <Rbt.Current_Directory>
/home/itssahil/PROJECTS/Mol_Feturizer/New_Systems/rnas/2fd0

>  <Rbt.Executable>
rbdock ($Id: //depot/dev/client3/rdock/2013.1/src/exe/rbdock.cxx#4 $)

>  <Rbt.Library>
libRbt.so (2013.1, Build901 2013/11/27)

>  <Rbt.Parameter_File>
/export/apps/rDock/src/rDock_2013.1_src/data/scripts/dock_solv.prm

>  <Rbt.Receptor>
prm/blind_docking_100.prm

>  <SCORE>
10.8371

>  <SCORE.INTER>
-6.3605

>  <SCORE.INTER.CONST>
1

>  <SCORE.INTER.POLAR>
-0.372177

>  <SCORE.INTER.ROT>
12

>  <SCORE.INTER.SOLV>
29.1864

>  <SCORE.INTER.VDW>
-24.3285

>  <SCORE.INTER.norm>
-0.122317

>  <SCORE.INTRA>
15.2452

>  <SCORE.INTRA.DIHEDRAL>
-3.37518

>  <SCORE.INTRA.DIHEDRAL.0>
23.9727

>  <SCORE.INTRA.POLAR>
0

>  <SCORE.INTRA.POLAR.0>
0

>  <SCORE.INTRA.REPUL>
0

>  <SCORE.INTRA.REPUL.0>
0

>  <SCORE.INTRA.SOLV>
0.857685

>  <SCORE.INTRA.SOLV.lig_0>
-115.028

>  <SCORE.INTRA.VDW>
16.5039

>  <SCORE.INTRA.VDW.0>
-6.82393

>  <SCORE.INTRA.norm>
0.293176

>  <SCORE.RESTR>
1.95246

>  <SCORE.RESTR.CAVITY>
1.95246

>  <SCORE.RESTR.norm>
0.0375472

>  <SCORE.SYSTEM>
0

>  <SCORE.SYSTEM.CONST>
0

>  <SCORE.SYSTEM.DIHEDRAL>
0

>  <SCORE.SYSTEM.SOLV>
0

>  <SCORE.SYSTEM.norm>
0

>  <SCORE.heavy>
52

>  <SCORE.norm>
0.208406

>  <RMSD>
17.046

$$$$
2fd0_lig
 OpenBabel11021811433D
libRbt.so/2013.1/901 2013/11/27
 52 56  0  0  0  0  0  0  0  0999 V2000
    8.1305  -45.8743   15.7339 C   0  0  2  0  0  0  0  0  0  0  0  0
    7.5656  -44.7964   14.9749 O   0  0  0  0  0  0  0  0  0  0  0  0
   10.6913  -43.5604   12.2191 C   0  0  2  0  0  0  0  0  0  0  0  0
   11.4883  -42.7514   11.2823 N   0  0  0  0  0  0  0  0  0  0  0  0
    9.4675  -41.6611   16.0285 C   0  0  1  0  0  0  0  0  0  0  0  0
   11.8061  -37.8810   15.5892 C   0  0  1  0  0  0  0  0  0  0  0  0
   12.2899  -32.7313   16.1347 C   0  0  1  0  0  0  0  0  0  0  0  0
    8.7415  -46.9230   14.7347 C   0  0  2  0  0  0  0  0  0  0  0  0
    9.7341  -46.3204   13.8558 N   0  0  0  0  0  0  0  0  0  0  0  0
    9.2034  -43.7250   11.6787 C   0  0  0  0  0  0  0  0  0  0  0  0
   10.8303  -41.0240   15.8269 C   0  0  2  0  0  0  0  0  0  0  0  0
   11.5175  -40.7815   17.0867 O   0  0  0  0  0  0  0  0  0  0  0  0
   11.9044  -36.8832   16.8359 C   0  0  2  0  0  0  0  0  0  0  0  0
   10.6541  -36.0863   16.9662 N   0  0  0  0  0  0  0  0  0  0  0  0
   12.9139  -33.2933   17.4318 C   0  0  1  0  0  0  0  0  0  0  0  0
   14.2745  -33.7105   17.1589 O   0  0  0  0  0  0  0  0  0  0  0  0
    7.5989  -47.6261   13.9122 C   0  0  0  0  0  0  0  0  0  0  0  0
    8.3406  -44.6153   12.6947 C   0  0  2  0  0  0  0  0  0  0  0  0
    6.9591  -44.7807   12.2194 N   0  0  0  0  0  0  0  0  0  0  0  0
   10.5108  -39.7946   14.9932 C   0  0  2  0  0  0  0  0  0  0  0  0
   10.6294  -38.6187   15.7469 O   0  0  0  0  0  0  0  0  0  0  0  0
   13.2619  -36.0245   16.6598 C   0  0  1  0  0  0  0  0  0  0  0  0
   14.3617  -36.9476   16.5630 O   0  0  0  0  0  0  0  0  0  0  0  0
   12.9347  -32.3648   18.6762 C   0  0  1  0  0  0  0  0  0  0  0  0
   14.1909  -31.6749   18.6912 O   0  0  0  0  0  0  0  0  0  0  0  0
    6.5794  -48.2558   14.9166 C   0  0  2  0  0  0  0  0  0  0  0  0
    5.5363  -48.9195   14.2098 O   0  0  0  0  0  0  0  0  0  0  0  0
    8.3471  -43.9409   14.0949 C   0  0  2  0  0  0  0  0  0  0  0  0
    9.0245  -39.8574   14.5673 C   0  0  2  0  0  0  0  0  0  0  0  0
    8.6347  -41.1526   15.0010 O   0  0  0  0  0  0  0  0  0  0  0  0
   13.2591  -35.1678   15.2886 C   0  0  2  0  0  0  0  0  0  0  0  0
   12.1587  -34.2511   15.4378 O   0  0  0  0  0  0  0  0  0  0  0  0
   11.7945  -31.3245   18.7674 C   0  0  2  0  0  0  0  0  0  0  0  0
   11.3889  -31.3084   20.1537 O   0  0  0  0  0  0  0  0  0  0  0  0
    5.9813  -47.1369   15.8165 C   0  0  2  0  0  0  0  0  0  0  0  0
    7.0932  -46.4854   16.5437 O   0  0  0  0  0  0  0  0  0  0  0  0
    9.7870  -43.7044   14.6444 C   0  0  2  0  0  0  0  0  0  0  0  0
    9.6612  -43.0359   15.9225 O   0  0  0  0  0  0  0  0  0  0  0  0
    8.7772  -39.7602   13.0660 C   0  0  0  0  0  0  0  0  0  0  0  0
    7.3822  -40.0235   12.8515 O   0  0  0  0  0  0  0  0  0  0  0  0
   12.9186  -36.1563   14.1893 C   0  0  1  0  0  0  0  0  0  0  0  0
   11.8433  -37.1165   14.2533 O   0  0  0  0  0  0  0  0  0  0  0  0
   10.6615  -31.6670   17.8038 C   0  0  2  0  0  0  0  0  0  0  0  0
   11.0807  -31.9089   16.4322 O   0  0  0  0  0  0  0  0  0  0  0  0
    5.0217  -47.6805   16.8268 C   0  0  0  0  0  0  0  0  0  0  0  0
    3.8280  -47.9990   16.1639 O   0  0  0  0  0  0  0  0  0  0  0  0
   10.6190  -42.8421   13.6262 C   0  0  1  0  0  0  0  0  0  0  0  0
   11.9821  -42.6842   14.1521 O   0  0  0  0  0  0  0  0  0  0  0  0
   12.8227  -35.4941   12.7692 C   0  0  0  0  0  0  0  0  0  0  0  0
   11.7050  -36.0140   11.9448 N   0  0  0  0  0  0  0  0  0  0  0  0
    9.4124  -30.7971   17.6824 C   0  0  0  0  0  0  0  0  0  0  0  0
    8.5056  -31.3471   16.6775 O   0  0  0  0  0  0  0  0  0  0  0  0
  1  2  1  6  0  0  0
  1  8  1  0  0  0  0
  1 36  1  0  0  0  0
  3  4  1  6  0  0  0
  3 10  1  0  0  0  0
  3 47  1  0  0  0  0
  5 11  1  0  0  0  0
  5 30  1  0  0  0  0
  5 38  1  6  0  0  0
  6 21  1  1  0  0  0
  6 42  1  0  0  0  0
  7 15  1  0  0  0  0
  7 44  1  0  0  0  0
  7 32  1  6  0  0  0
  8  9  1  6  0  0  0
  8 17  1  0  0  0  0
 11 12  1  1  0  0  0
 11 20  1  0  0  0  0
 13  6  1  0  0  0  0
 13 14  1  6  0  0  0
 15 16  1  6  0  0  0
 15 24  1  0  0  0  0
 17 26  1  0  0  0  0
 18 10  1  0  0  0  0
 18 19  1  6  0  0  0
 20 21  1  1  0  0  0
 20 29  1  0  0  0  0
 22 13  1  0  0  0  0
 22 23  1  6  0  0  0
 24 25  1  6  0  0  0
 24 33  1  0  0  0  0
 26 27  1  6  0  0  0
 26 35  1  0  0  0  0
 28  2  1  1  0  0  0
 28 18  1  0  0  0  0
 29 30  1  0  0  0  0
 29 39  1  6  0  0  0
 31 22  1  0  0  0  0
 31 32  1  1  0  0  0
 31 41  1  0  0  0  0
 33 34  1  1  0  0  0
 33 43  1  0  0  0  0
 35 36  1  0  0  0  0
 35 45  1  1  0  0  0
 37 28  1  0  0  0  0
 37 38  1  1  0  0  0
 39 40  1  0  0  0  0
 41 42  1  0  0  0  0
 41 49  1  6  0  0  0
 43 44  1  0  0  0  0
 43 51  1  6  0  0  0
 45 46  1  0  0  0  0
 47 37  1  0  0  0  0
 47 48  1  1  0  0  0
 49 50  1  0  0  0  0
 51 52  1  0  0  0  0
M  END
>  <CHROM.1>
-61.64525929,-79.26941427,-162.90287821,-54.40018396,100.13969202,89.58013258
172.06654487,89.08395310,-75.14266137,-81.94614124,-139.72853597,179.23606600
10.09948944,-39.70824419,15.36244323,2.03743891,-0.74641926,-2.62453290

>  <Name>
2fd0_lig

>  <RI>
0

>  <Rbt.Current_Directory>
/home/itssahil/PROJECTS/Mol_Feturizer/New_Systems/rnas/2fd0

>  <Rbt.Executable>
rbdock ($Id: //depot/dev/client3/rdock/2013.1/src/exe/rbdock.cxx#4 $)

>  <Rbt.Library>
libRbt.so (2013.1, Build901 2013/11/27)

>  <Rbt.Parameter_File>
/export/apps/rDock/src/rDock_2013.1_src/data/scripts/dock_solv.prm

>  <Rbt.Receptor>
prm/blind_docking_100.prm

>  <SCORE>
7.46843

>  <SCORE.INTER>
-8.95933

>  <SCORE.INTER.CONST>
1

>  <SCORE.INTER.POLAR>
0

>  <SCORE.INTER.ROT>
12

>  <SCORE.INTER.SOLV>
23.2616

>  <SCORE.INTER.VDW>
-25.3268

>  <SCORE.INTER.norm>
-0.172295

>  <SCORE.INTRA>
12.2206

>  <SCORE.INTRA.DIHEDRAL>
-1.27794

>  <SCORE.INTRA.DIHEDRAL.0>
23.9727

>  <SCORE.INTRA.POLAR>
0

>  <SCORE.INTRA.POLAR.0>
0

>  <SCORE.INTRA.REPUL>
0

>  <SCORE.INTRA.REPUL.0>
0

>  <SCORE.INTRA.SOLV>
5.43474

>  <SCORE.INTRA.SOLV.lig_0>
-115.028

>  <SCORE.INTRA.VDW>
10.1422

>  <SCORE.INTRA.VDW.0>
-6.82393

>  <SCORE.INTRA.norm>
0.235012

>  <SCORE.RESTR>
4.20712

>  <SCORE.RESTR.CAVITY>
4.20712

>  <SCORE.RESTR.norm>
0.0809062

>  <SCORE.SYSTEM>
0

>  <SCORE.SYSTEM.CONST>
0

>  <SCORE.SYSTEM.DIHEDRAL>
0

>  <SCORE.SYSTEM.SOLV>
0

>  <SCORE.SYSTEM.norm>
0

>  <SCORE.heavy>
52

>  <SCORE.norm>
0.143624

>  <RMSD>
17.111

$$$$
2fd0_lig
 OpenBabel11021811433D
libRbt.so/2013.1/901 2013/11/27
 52 56  0  0  0  0  0  0  0  0999 V2000
    8.5183  -45.6939   12.8997 C   0  0  2  0  0  0  0  0  0  0  0  0
    8.1472  -44.9263   14.0530 O   0  0  0  0  0  0  0  0  0  0  0  0
    8.6521  -44.7939   18.3681 C   0  0  2  0  0  0  0  0  0  0  0  0
    9.2147  -44.9824   19.7153 N   0  0  0  0  0  0  0  0  0  0  0  0
   10.0424  -41.6043   15.1832 C   0  0  1  0  0  0  0  0  0  0  0  0
   11.2511  -38.6095   14.7372 C   0  0  1  0  0  0  0  0  0  0  0  0
   11.0335  -34.3495   17.5867 C   0  0  1  0  0  0  0  0  0  0  0  0
   10.0847  -45.6723   12.7676 C   0  0  2  0  0  0  0  0  0  0  0  0
   10.7374  -46.1757   13.9681 N   0  0  0  0  0  0  0  0  0  0  0  0
    8.4404  -46.2015   17.6562 C   0  0  0  0  0  0  0  0  0  0  0  0
   10.5933  -41.2183   13.8226 C   0  0  2  0  0  0  0  0  0  0  0  0
   12.0381  -41.0448   13.8416 O   0  0  0  0  0  0  0  0  0  0  0  0
   10.2288  -37.9513   15.7769 C   0  0  2  0  0  0  0  0  0  0  0  0
    9.5859  -36.7465   15.1848 N   0  0  0  0  0  0  0  0  0  0  0  0
   11.3103  -33.1635   16.6356 C   0  0  1  0  0  0  0  0  0  0  0  0
   10.3962  -33.2350   15.5135 O   0  0  0  0  0  0  0  0  0  0  0  0
   10.5841  -44.2239   12.4081 C   0  0  0  0  0  0  0  0  0  0  0  0
    7.8175  -45.9943   16.1938 C   0  0  2  0  0  0  0  0  0  0  0  0
    7.6142  -47.2813   15.5125 N   0  0  0  0  0  0  0  0  0  0  0  0
    9.7778  -39.9878   13.4625 C   0  0  2  0  0  0  0  0  0  0  0  0
   10.5474  -38.8194   13.5479 O   0  0  0  0  0  0  0  0  0  0  0  0
   11.0358  -37.7034   17.1547 C   0  0  1  0  0  0  0  0  0  0  0  0
   11.5754  -38.9657   17.5865 O   0  0  0  0  0  0  0  0  0  0  0  0
   11.2285  -31.7329   17.2337 C   0  0  1  0  0  0  0  0  0  0  0  0
    9.8989  -31.2414   17.0224 O   0  0  0  0  0  0  0  0  0  0  0  0
    9.8513  -43.7539   11.1093 C   0  0  2  0  0  0  0  0  0  0  0  0
   10.2904  -42.4508   10.7391 O   0  0  0  0  0  0  0  0  0  0  0  0
    8.7678  -45.0915   15.3586 C   0  0  2  0  0  0  0  0  0  0  0  0
    8.6543  -39.8134   14.5121 C   0  0  2  0  0  0  0  0  0  0  0  0
    8.7625  -41.0039   15.2792 O   0  0  0  0  0  0  0  0  0  0  0  0
   12.2963  -36.7128   16.9446 C   0  0  2  0  0  0  0  0  0  0  0  0
   11.7094  -35.4643   16.5318 O   0  0  0  0  0  0  0  0  0  0  0  0
   11.5746  -31.6028   18.7350 C   0  0  2  0  0  0  0  0  0  0  0  0
   12.3608  -30.3967   18.8526 O   0  0  0  0  0  0  0  0  0  0  0  0
    8.3155  -43.7456   11.3560 C   0  0  2  0  0  0  0  0  0  0  0  0
    7.8989  -45.1177   11.7209 O   0  0  0  0  0  0  0  0  0  0  0  0
    9.0536  -43.7200   16.0428 C   0  0  2  0  0  0  0  0  0  0  0  0
    9.9781  -42.9953   15.1966 O   0  0  0  0  0  0  0  0  0  0  0  0
    7.2424  -39.7375   13.9418 C   0  0  0  0  0  0  0  0  0  0  0  0
    7.0276  -40.9407   13.1886 O   0  0  0  0  0  0  0  0  0  0  0  0
   13.0785  -37.2877   15.7788 C   0  0  1  0  0  0  0  0  0  0  0  0
   12.4939  -37.7238   14.5337 O   0  0  0  0  0  0  0  0  0  0  0  0
   12.2916  -32.8509   19.2424 C   0  0  2  0  0  0  0  0  0  0  0  0
   11.6218  -34.1051   18.9363 O   0  0  0  0  0  0  0  0  0  0  0  0
    7.5522  -43.3379   10.1361 C   0  0  0  0  0  0  0  0  0  0  0  0
    7.4064  -44.4672    9.3180 O   0  0  0  0  0  0  0  0  0  0  0  0
    9.6499  -43.9470   17.4800 C   0  0  1  0  0  0  0  0  0  0  0  0
    9.8572  -42.6368   18.1123 O   0  0  0  0  0  0  0  0  0  0  0  0
   14.3318  -36.4262   15.3894 C   0  0  0  0  0  0  0  0  0  0  0  0
   15.3207  -36.2857   16.4857 N   0  0  0  0  0  0  0  0  0  0  0  0
   12.7388  -32.9920   20.6957 C   0  0  0  0  0  0  0  0  0  0  0  0
   11.5818  -32.9724   21.5877 O   0  0  0  0  0  0  0  0  0  0  0  0
  1  2  1  1  0  0  0
  1  8  1  0  0  0  0
  1 36  1  0  0  0  0
  3  4  1  1  0  0  0
  3 10  1  0  0  0  0
  3 47  1  0  0  0  0
  5 11  1  0  0  0  0
  5 30  1  0  0  0  0
  5 38  1  6  0  0  0
  6 21  1  6  0  0  0
  6 42  1  0  0  0  0
  7 15  1  0  0  0  0
  7 44  1  0  0  0  0
  7 32  1  6  0  0  0
  8  9  1  1  0  0  0
  8 17  1  0  0  0  0
 11 12  1  1  0  0  0
 11 20  1  0  0  0  0
 13  6  1  0  0  0  0
 13 14  1  6  0  0  0
 15 16  1  6  0  0  0
 15 24  1  0  0  0  0
 17 26  1  0  0  0  0
 18 10  1  0  0  0  0
 18 19  1  6  0  0  0
 20 21  1  1  0  0  0
 20 29  1  0  0  0  0
 22 13  1  0  0  0  0
 22 23  1  6  0  0  0
 24 25  1  1  0  0  0
 24 33  1  0  0  0  0
 26 27  1  1  0  0  0
 26 35  1  0  0  0  0
 28  2  1  6  0  0  0
 28 18  1  0  0  0  0
 29 30  1  0  0  0  0
 29 39  1  6  0  0  0
 31 22  1  0  0  0  0
 31 32  1  6  0  0  0
 31 41  1  0  0  0  0
 33 34  1  6  0  0  0
 33 43  1  0  0  0  0
 35 36  1  0  0  0  0
 35 45  1  6  0  0  0
 37 28  1  0  0  0  0
 37 38  1  6  0  0  0
 39 40  1  0  0  0  0
 41 42  1  0  0  0  0
 41 49  1  6  0  0  0
 43 44  1  0  0  0  0
 43 51  1  1  0  0  0
 45 46  1  0  0  0  0
 47 37  1  0  0  0  0
 47 48  1  1  0  0  0
 49 50  1  0  0  0  0
 51 52  1  0  0  0  0
M  END
>  <CHROM.1>
-48.64406443,-154.73527322,-83.18822337,153.51136248,-51.51003952,-98.71942458
57.42843377,80.73408004,82.79069751,153.65149713,60.21151145,62.73764259
10.23068261,-39.75553018,15.47000428,3.07725477,1.32157106,1.99888165

>  <Name>
2fd0_lig

>  <RI>
0

>  <Rbt.Current_Directory>
/home/itssahil/PROJECTS/Mol_Feturizer/New_Systems/rnas/2fd0

>  <Rbt.Executable>
rbdock ($Id: //depot/dev/client3/rdock/2013.1/src/exe/rbdock.cxx#4 $)

>  <Rbt.Library>
libRbt.so (2013.1, Build901 2013/11/27)

>  <Rbt.Parameter_File>
/export/apps/rDock/src/rDock_2013.1_src/data/scripts/dock_solv.prm

>  <Rbt.Receptor>
prm/blind_docking_100.prm

>  <SCORE>
23.2558

>  <SCORE.INTER>
15.1214

>  <SCORE.INTER.CONST>
1

>  <SCORE.INTER.POLAR>
-0.891035

>  <SCORE.INTER.ROT>
12

>  <SCORE.INTER.SOLV>
35.1363

>  <SCORE.INTER.VDW>
-10.2611

>  <SCORE.INTER.norm>
0.290796

>  <SCORE.INTRA>
4.85232

>  <SCORE.INTRA.DIHEDRAL>
-1.78002

>  <SCORE.INTRA.DIHEDRAL.0>
23.9727

>  <SCORE.INTRA.POLAR>
0

>  <SCORE.INTRA.POLAR.0>
0

>  <SCORE.INTRA.REPUL>
0.180065

>  <SCORE.INTRA.REPUL.0>
0

>  <SCORE.INTRA.SOLV>
2.851

>  <SCORE.INTRA.SOLV.lig_0>
-115.028

>  <SCORE.INTRA.VDW>
3.41651

>  <SCORE.INTRA.VDW.0>
-6.82393

>  <SCORE.INTRA.norm>
0.0933138

>  <SCORE.RESTR>
3.28212

>  <SCORE.RESTR.CAVITY>
3.28212

>  <SCORE.RESTR.norm>
0.0631177

>  <SCORE.SYSTEM>
0

>  <SCORE.SYSTEM.CONST>
0

>  <SCORE.SYSTEM.DIHEDRAL>
0

>  <SCORE.SYSTEM.SOLV>
0

>  <SCORE.SYSTEM.norm>
0

>  <SCORE.heavy>
52

>  <SCORE.norm>
0.447227

>  <RMSD>
17.152

$$$$
2fd0_lig
 OpenBabel11021811433D
libRbt.so/2013.1/901 2013/11/27
 52 56  0  0  0  0  0  0  0  0999 V2000
    8.3377  -44.2831   12.6107 C   0  0  2  0  0  0  0  0  0  0  0  0
    8.3146  -43.7369   13.9367 O   0  0  0  0  0  0  0  0  0  0  0  0
    8.3394  -45.5955   17.8658 C   0  0  2  0  0  0  0  0  0  0  0  0
    8.7764  -46.3513   19.0510 N   0  0  0  0  0  0  0  0  0  0  0  0
    9.3560  -41.1096   16.2002 C   0  0  1  0  0  0  0  0  0  0  0  0
   11.2531  -37.4462   16.9725 C   0  0  1  0  0  0  0  0  0  0  0  0
   14.1463  -33.7464   15.1953 C   0  0  1  0  0  0  0  0  0  0  0  0
    9.8226  -44.2798   12.0945 C   0  0  2  0  0  0  0  0  0  0  0  0
   10.7079  -45.0184   12.9842 N   0  0  0  0  0  0  0  0  0  0  0  0
    8.3901  -46.5203   16.5715 C   0  0  0  0  0  0  0  0  0  0  0  0
   10.6350  -40.3021   16.3254 C   0  0  2  0  0  0  0  0  0  0  0  0
   10.9969  -40.0538   17.7131 O   0  0  0  0  0  0  0  0  0  0  0  0
   10.8650  -35.9878   17.5037 C   0  0  2  0  0  0  0  0  0  0  0  0
   10.3734  -35.1386   16.3846 N   0  0  0  0  0  0  0  0  0  0  0  0
   13.3876  -34.4138   14.0262 C   0  0  1  0  0  0  0  0  0  0  0  0
   12.1413  -33.7075   13.8078 O   0  0  0  0  0  0  0  0  0  0  0  0
   10.3252  -42.8039   11.8815 C   0  0  0  0  0  0  0  0  0  0  0  0
    7.9033  -45.6985   15.2843 C   0  0  2  0  0  0  0  0  0  0  0  0
    7.9432  -46.5306   14.0727 N   0  0  0  0  0  0  0  0  0  0  0  0
   10.3448  -39.0727   15.4810 C   0  0  2  0  0  0  0  0  0  0  0  0
   10.1436  -37.9380   16.2790 O   0  0  0  0  0  0  0  0  0  0  0  0
   12.1441  -35.4110   18.3052 C   0  0  1  0  0  0  0  0  0  0  0  0
   12.4713  -36.3448   19.3502 O   0  0  0  0  0  0  0  0  0  0  0  0
   14.1251  -34.5227   12.6642 C   0  0  1  0  0  0  0  0  0  0  0  0
   13.7759  -33.3749   11.8801 O   0  0  0  0  0  0  0  0  0  0  0  0
    9.3362  -42.0774   10.9125 C   0  0  2  0  0  0  0  0  0  0  0  0
    9.7671  -40.7403   10.6788 O   0  0  0  0  0  0  0  0  0  0  0  0
    8.8101  -44.4490   15.1048 C   0  0  2  0  0  0  0  0  0  0  0  0
    9.0065  -39.2888   14.7350 C   0  0  2  0  0  0  0  0  0  0  0  0
    8.7050  -40.6450   15.0306 O   0  0  0  0  0  0  0  0  0  0  0  0
   13.4504  -35.3048   17.3584 C   0  0  2  0  0  0  0  0  0  0  0  0
   13.0839  -34.3518   16.3430 O   0  0  0  0  0  0  0  0  0  0  0  0
   15.6662  -34.6288   12.7321 C   0  0  2  0  0  0  0  0  0  0  0  0
   16.0353  -35.6108   11.7392 O   0  0  0  0  0  0  0  0  0  0  0  0
    7.9108  -42.0737   11.5354 C   0  0  2  0  0  0  0  0  0  0  0  0
    7.4952  -43.4781   11.7462 O   0  0  0  0  0  0  0  0  0  0  0  0
    8.8401  -43.5381   16.3699 C   0  0  2  0  0  0  0  0  0  0  0  0
    9.7459  -42.4423   16.0963 O   0  0  0  0  0  0  0  0  0  0  0  0
    9.0779  -39.1330   13.2200 C   0  0  0  0  0  0  0  0  0  0  0  0
    9.5853  -37.8161   12.9560 O   0  0  0  0  0  0  0  0  0  0  0  0
   13.5979  -36.6685   16.7103 C   0  0  1  0  0  0  0  0  0  0  0  0
   12.5199  -37.4071   16.0983 O   0  0  0  0  0  0  0  0  0  0  0  0
   16.1297  -34.9826   14.1426 C   0  0  2  0  0  0  0  0  0  0  0  0
   15.5872  -34.1350   15.1927 O   0  0  0  0  0  0  0  0  0  0  0  0
    6.9067  -41.4225   10.6382 C   0  0  0  0  0  0  0  0  0  0  0  0
    5.7799  -41.1021   11.4085 O   0  0  0  0  0  0  0  0  0  0  0  0
    9.3059  -44.3676   17.6220 C   0  0  1  0  0  0  0  0  0  0  0  0
    9.2720  -43.4919   18.8016 O   0  0  0  0  0  0  0  0  0  0  0  0
   14.8020  -36.7498   15.7064 C   0  0  0  0  0  0  0  0  0  0  0  0
   14.5743  -37.6862   14.5791 N   0  0  0  0  0  0  0  0  0  0  0  0
   17.6078  -35.1396   14.4925 C   0  0  0  0  0  0  0  0  0  0  0  0
   17.7840  -35.1936   15.9419 O   0  0  0  0  0  0  0  0  0  0  0  0
  1  2  1  1  0  0  0
  1  8  1  0  0  0  0
  1 36  1  0  0  0  0
  3  4  1  1  0  0  0
  3 10  1  0  0  0  0
  3 47  1  0  0  0  0
  5 11  1  0  0  0  0
  5 30  1  0  0  0  0
  5 38  1  6  0  0  0
  6 21  1  6  0  0  0
  6 42  1  0  0  0  0
  7 15  1  0  0  0  0
  7 44  1  0  0  0  0
  7 32  1  1  0  0  0
  8  9  1  1  0  0  0
  8 17  1  0  0  0  0
 11 12  1  1  0  0  0
 11 20  1  0  0  0  0
 13  6  1  0  0  0  0
 13 14  1  6  0  0  0
 15 16  1  6  0  0  0
 15 24  1  0  0  0  0
 17 26  1  0  0  0  0
 18 10  1  0  0  0  0
 18 19  1  6  0  0  0
 20 21  1  1  0  0  0
 20 29  1  0  0  0  0
 22 13  1  0  0  0  0
 22 23  1  1  0  0  0
 24 25  1  6  0  0  0
 24 33  1  0  0  0  0
 26 27  1  1  0  0  0
 26 35  1  0  0  0  0
 28  2  1  6  0  0  0
 28 18  1  0  0  0  0
 29 30  1  0  0  0  0
 29 39  1  6  0  0  0
 31 22  1  0  0  0  0
 31 32  1  6  0  0  0
 31 41  1  0  0  0  0
 33 34  1  6  0  0  0
 33 43  1  0  0  0  0
 35 36  1  0  0  0  0
 35 45  1  6  0  0  0
 37 28  1  0  0  0  0
 37 38  1  6  0  0  0
 39 40  1  0  0  0  0
 41 42  1  0  0  0  0
 41 49  1  6  0  0  0
 43 44  1  0  0  0  0
 43 51  1  6  0  0  0
 45 46  1  0  0  0  0
 47 37  1  0  0  0  0
 47 48  1  1  0  0  0
 49 50  1  0  0  0  0
 51 52  1  0  0  0  0
M  END
>  <CHROM.1>
-72.95098575,160.54182918,166.57375568,114.58364079,68.16335381,-64.18967042
-57.16868358,172.96358116,-162.55957441,124.24002970,-148.69138335,167.93650347
11.07866457,-39.43393976,14.83791088,2.94418564,0.98279619,1.84689668

>  <Name>
2fd0_lig

>  <RI>
0

>  <Rbt.Current_Directory>
/home/itssahil/PROJECTS/Mol_Feturizer/New_Systems/rnas/2fd0

>  <Rbt.Executable>
rbdock ($Id: //depot/dev/client3/rdock/2013.1/src/exe/rbdock.cxx#4 $)

>  <Rbt.Library>
libRbt.so (2013.1, Build901 2013/11/27)

>  <Rbt.Parameter_File>
/export/apps/rDock/src/rDock_2013.1_src/data/scripts/dock_solv.prm

>  <Rbt.Receptor>
prm/blind_docking_100.prm

>  <SCORE>
1.51892

>  <SCORE.INTER>
-9.61072

>  <SCORE.INTER.CONST>
1

>  <SCORE.INTER.POLAR>
-0.1084

>  <SCORE.INTER.ROT>
12

>  <SCORE.INTER.SOLV>
29.9118

>  <SCORE.INTER.VDW>
-27.6164

>  <SCORE.INTER.norm>
-0.184822

>  <SCORE.INTRA>
10.047

>  <SCORE.INTRA.DIHEDRAL>
-0.98194

>  <SCORE.INTRA.DIHEDRAL.0>
23.9727

>  <SCORE.INTRA.POLAR>
0

>  <SCORE.INTRA.POLAR.0>
0

>  <SCORE.INTRA.REPUL>
0.696485

>  <SCORE.INTRA.REPUL.0>
0

>  <SCORE.INTRA.SOLV>
5.68246

>  <SCORE.INTRA.SOLV.lig_0>
-115.028

>  <SCORE.INTRA.VDW>
4.21431

>  <SCORE.INTRA.VDW.0>
-6.82393

>  <SCORE.INTRA.norm>
0.193211

>  <SCORE.RESTR>
1.08265

>  <SCORE.RESTR.CAVITY>
1.08265

>  <SCORE.RESTR.norm>
0.0208201

>  <SCORE.SYSTEM>
0

>  <SCORE.SYSTEM.CONST>
0

>  <SCORE.SYSTEM.DIHEDRAL>
0

>  <SCORE.SYSTEM.SOLV>
0

>  <SCORE.SYSTEM.norm>
0

>  <SCORE.heavy>
52

>  <SCORE.norm>
0.0292099

>  <RMSD>
17.576

$$$$
2fd0_lig
 OpenBabel11021811433D
libRbt.so/2013.1/901 2013/11/27
 52 56  0  0  0  0  0  0  0  0999 V2000
   10.0946  -44.4449   12.0275 C   0  0  2  0  0  0  0  0  0  0  0  0
   10.0306  -44.2375   13.4452 O   0  0  0  0  0  0  0  0  0  0  0  0
    5.8481  -43.4453   14.3235 C   0  0  2  0  0  0  0  0  0  0  0  0
    4.5497  -43.4026   15.0158 N   0  0  0  0  0  0  0  0  0  0  0  0
    9.2364  -40.7504   15.6874 C   0  0  1  0  0  0  0  0  0  0  0  0
   10.7372  -36.5371   16.1088 C   0  0  1  0  0  0  0  0  0  0  0  0
   14.6566  -35.3024   14.5209 C   0  0  1  0  0  0  0  0  0  0  0  0
   11.4210  -43.7971   11.4868 C   0  0  2  0  0  0  0  0  0  0  0  0
   12.5987  -44.3368   12.1520 N   0  0  0  0  0  0  0  0  0  0  0  0
    6.3301  -44.9517   14.1463 C   0  0  0  0  0  0  0  0  0  0  0  0
   10.6516  -40.2376   15.8817 C   0  0  2  0  0  0  0  0  0  0  0  0
   11.1189  -40.4131   17.2488 O   0  0  0  0  0  0  0  0  0  0  0  0
   11.6698  -36.4526   14.8117 C   0  0  2  0  0  0  0  0  0  0  0  0
   12.9527  -37.1708   15.0438 N   0  0  0  0  0  0  0  0  0  0  0  0
   16.0172  -34.8367   15.0864 C   0  0  1  0  0  0  0  0  0  0  0  0
   16.3243  -35.6090   16.2735 O   0  0  0  0  0  0  0  0  0  0  0  0
   11.3575  -42.2300   11.6158 C   0  0  0  0  0  0  0  0  0  0  0  0
    7.7386  -44.9962   13.3825 C   0  0  2  0  0  0  0  0  0  0  0  0
    8.2084  -46.3785   13.2080 N   0  0  0  0  0  0  0  0  0  0  0  0
   10.5651  -38.8045   15.3845 C   0  0  2  0  0  0  0  0  0  0  0  0
   10.6241  -37.8893   16.4445 O   0  0  0  0  0  0  0  0  0  0  0  0
   11.8075  -34.8915   14.4182 C   0  0  1  0  0  0  0  0  0  0  0  0
   10.4829  -34.3651   14.2198 O   0  0  0  0  0  0  0  0  0  0  0  0
   17.2454  -34.9005   14.1386 C   0  0  1  0  0  0  0  0  0  0  0  0
   17.8967  -36.1606   14.3443 O   0  0  0  0  0  0  0  0  0  0  0  0
   10.0785  -41.7221   10.8736 C   0  0  2  0  0  0  0  0  0  0  0  0
    9.9937  -40.3026   10.9516 O   0  0  0  0  0  0  0  0  0  0  0  0
    8.7822  -44.1748   14.1899 C   0  0  2  0  0  0  0  0  0  0  0  0
    9.1768  -38.5880   14.7361 C   0  0  2  0  0  0  0  0  0  0  0  0
    8.6334  -39.9003   14.7274 O   0  0  0  0  0  0  0  0  0  0  0  0
   12.4718  -34.0259   15.6114 C   0  0  2  0  0  0  0  0  0  0  0  0
   13.7949  -34.5741   15.7617 O   0  0  0  0  0  0  0  0  0  0  0  0
   16.9495  -34.7337   12.6302 C   0  0  2  0  0  0  0  0  0  0  0  0
   18.0051  -33.8932   12.1147 O   0  0  0  0  0  0  0  0  0  0  0  0
    8.8168  -42.3646   11.5179 C   0  0  2  0  0  0  0  0  0  0  0  0
    8.9367  -43.8348   11.4013 O   0  0  0  0  0  0  0  0  0  0  0  0
    8.3296  -42.7040   14.4407 C   0  0  2  0  0  0  0  0  0  0  0  0
    9.3564  -42.0615   15.2338 O   0  0  0  0  0  0  0  0  0  0  0  0
    9.2062  -38.0720   13.3017 C   0  0  0  0  0  0  0  0  0  0  0  0
   10.4983  -38.3941   12.7651 O   0  0  0  0  0  0  0  0  0  0  0  0
   11.6675  -34.3575   16.8542 C   0  0  1  0  0  0  0  0  0  0  0  0
   11.3040  -35.6923   17.2645 O   0  0  0  0  0  0  0  0  0  0  0  0
   15.5512  -34.1645   12.4055 C   0  0  2  0  0  0  0  0  0  0  0  0
   14.4873  -34.8697   13.1027 O   0  0  0  0  0  0  0  0  0  0  0  0
    7.5577  -41.9455   10.8279 C   0  0  0  0  0  0  0  0  0  0  0  0
    7.5957  -42.4411    9.5170 O   0  0  0  0  0  0  0  0  0  0  0  0
    6.9404  -42.6843   15.1772 C   0  0  1  0  0  0  0  0  0  0  0  0
    6.5227  -41.2860   15.3496 O   0  0  0  0  0  0  0  0  0  0  0  0
   12.1974  -33.6379   18.1448 C   0  0  0  0  0  0  0  0  0  0  0  0
   12.1123  -32.1588   18.0784 N   0  0  0  0  0  0  0  0  0  0  0  0
   14.9976  -33.9088   11.0055 C   0  0  0  0  0  0  0  0  0  0  0  0
   13.6096  -33.4595   11.0821 O   0  0  0  0  0  0  0  0  0  0  0  0
  1  2  1  1  0  0  0
  1  8  1  0  0  0  0
  1 36  1  0  0  0  0
  3  4  1  1  0  0  0
  3 10  1  0  0  0  0
  3 47  1  0  0  0  0
  5 11  1  0  0  0  0
  5 30  1  0  0  0  0
  5 38  1  6  0  0  0
  6 21  1  1  0  0  0
  6 42  1  0  0  0  0
  7 15  1  0  0  0  0
  7 44  1  0  0  0  0
  7 32  1  1  0  0  0
  8  9  1  1  0  0  0
  8 17  1  0  0  0  0
 11 12  1  1  0  0  0
 11 20  1  0  0  0  0
 13  6  1  0  0  0  0
 13 14  1  1  0  0  0
 15 16  1  1  0  0  0
 15 24  1  0  0  0  0
 17 26  1  0  0  0  0
 18 10  1  0  0  0  0
 18 19  1  1  0  0  0
 20 21  1  1  0  0  0
 20 29  1  0  0  0  0
 22 13  1  0  0  0  0
 22 23  1  1  0  0  0
 24 25  1  6  0  0  0
 24 33  1  0  0  0  0
 26 27  1  1  0  0  0
 26 35  1  0  0  0  0
 28  2  1  6  0  0  0
 28 18  1  0  0  0  0
 29 30  1  0  0  0  0
 29 39  1  6  0  0  0
 31 22  1  0  0  0  0
 31 32  1  1  0  0  0
 31 41  1  0  0  0  0
 33 34  1  1  0  0  0
 33 43  1  0  0  0  0
 35 36  1  0  0  0  0
 35 45  1  6  0  0  0
 37 28  1  0  0  0  0
 37 38  1  1  0  0  0
 39 40  1  0  0  0  0
 41 42  1  0  0  0  0
 41 49  1  1  0  0  0
 43 44  1  0  0  0  0
 43 51  1  6  0  0  0
 45 46  1  0  0  0  0
 47 37  1  0  0  0  0
 47 48  1  6  0  0  0
 49 50  1  0  0  0  0
 51 52  1  0  0  0  0
M  END
>  <CHROM.1>
153.30472244,-154.45704497,-36.28030599,148.31511106,171.55301156,26.08590710
21.32733323,28.03760255,64.47695692,-177.07208279,62.98570513,175.78031129
11.13377777,-38.93510378,14.02091950,-2.37245719,0.63020334,0.69324017

>  <Name>
2fd0_lig

>  <RI>
0

>  <Rbt.Current_Directory>
/home/itssahil/PROJECTS/Mol_Feturizer/New_Systems/rnas/2fd0

>  <Rbt.Executable>
rbdock ($Id: //depot/dev/client3/rdock/2013.1/src/exe/rbdock.cxx#4 $)

>  <Rbt.Library>
libRbt.so (2013.1, Build901 2013/11/27)

>  <Rbt.Parameter_File>
/export/apps/rDock/src/rDock_2013.1_src/data/scripts/dock_solv.prm

>  <Rbt.Receptor>
prm/blind_docking_100.prm

>  <SCORE>
3.34261

>  <SCORE.INTER>
-10.6811

>  <SCORE.INTER.CONST>
1

>  <SCORE.INTER.POLAR>
-0.155727

>  <SCORE.INTER.ROT>
12

>  <SCORE.INTER.SOLV>
26.1201

>  <SCORE.INTER.VDW>
-26.9084

>  <SCORE.INTER.norm>
-0.205406

>  <SCORE.INTRA>
10.3038

>  <SCORE.INTRA.DIHEDRAL>
2.01284

>  <SCORE.INTRA.DIHEDRAL.0>
23.9727

>  <SCORE.INTRA.POLAR>
0

>  <SCORE.INTRA.POLAR.0>
0

>  <SCORE.INTRA.REPUL>
0

>  <SCORE.INTRA.REPUL.0>
0

>  <SCORE.INTRA.SOLV>
1.76774

>  <SCORE.INTRA.SOLV.lig_0>
-115.028

>  <SCORE.INTRA.VDW>
8.41348

>  <SCORE.INTRA.VDW.0>
-6.82393

>  <SCORE.INTRA.norm>
0.198149

>  <SCORE.RESTR>
3.71996

>  <SCORE.RESTR.CAVITY>
3.71996

>  <SCORE.RESTR.norm>
0.0715378

>  <SCORE.SYSTEM>
0

>  <SCORE.SYSTEM.CONST>
0

>  <SCORE.SYSTEM.DIHEDRAL>
0

>  <SCORE.SYSTEM.SOLV>
0

>  <SCORE.SYSTEM.norm>
0

>  <SCORE.heavy>
52

>  <SCORE.norm>
0.0642809

>  <RMSD>
17.777

$$$$
2fd0_lig
 OpenBabel11021811433D
libRbt.so/2013.1/901 2013/11/27
 52 56  0  0  0  0  0  0  0  0999 V2000
   10.2479  -43.4568   12.2320 C   0  0  2  0  0  0  0  0  0  0  0  0
   10.8465  -42.4038   13.0001 O   0  0  0  0  0  0  0  0  0  0  0  0
    8.8019  -42.6885   16.8252 C   0  0  2  0  0  0  0  0  0  0  0  0
    8.3872  -42.4168   18.2112 N   0  0  0  0  0  0  0  0  0  0  0  0
    9.5295  -39.4418   13.6201 C   0  0  1  0  0  0  0  0  0  0  0  0
   10.7386  -35.4318   15.2538 C   0  0  1  0  0  0  0  0  0  0  0  0
   15.8200  -34.9115   15.2847 C   0  0  1  0  0  0  0  0  0  0  0  0
   11.0312  -43.5938   10.8758 C   0  0  2  0  0  0  0  0  0  0  0  0
   12.4503  -43.8398   11.0914 N   0  0  0  0  0  0  0  0  0  0  0  0
   10.3677  -42.9662   16.7617 C   0  0  0  0  0  0  0  0  0  0  0  0
    8.6715  -38.2832   14.0945 C   0  0  2  0  0  0  0  0  0  0  0  0
    8.1065  -37.5260   12.9874 O   0  0  0  0  0  0  0  0  0  0  0  0
   11.8575  -34.7421   14.3417 C   0  0  2  0  0  0  0  0  0  0  0  0
   12.6740  -35.7747   13.6472 N   0  0  0  0  0  0  0  0  0  0  0  0
   15.3213  -34.9586   13.8229 C   0  0  1  0  0  0  0  0  0  0  0  0
   14.4375  -33.8343   13.5891 O   0  0  0  0  0  0  0  0  0  0  0  0
   10.7998  -42.3217    9.9787 C   0  0  0  0  0  0  0  0  0  0  0  0
   10.8151  -43.2727   15.2533 C   0  0  2  0  0  0  0  0  0  0  0  0
   12.2600  -43.5305   15.1664 N   0  0  0  0  0  0  0  0  0  0  0  0
    9.6093  -37.5205   15.0151 C   0  0  2  0  0  0  0  0  0  0  0  0
   10.0306  -36.3161   14.4349 O   0  0  0  0  0  0  0  0  0  0  0  0
   12.6823  -33.7192   15.2821 C   0  0  1  0  0  0  0  0  0  0  0  0
   11.7451  -32.7912   15.8577 O   0  0  0  0  0  0  0  0  0  0  0  0
   16.3946  -34.9697   12.7010 C   0  0  1  0  0  0  0  0  0  0  0  0
   16.6228  -33.6142   12.2950 O   0  0  0  0  0  0  0  0  0  0  0  0
    9.2611  -42.1255    9.7826 C   0  0  2  0  0  0  0  0  0  0  0  0
    9.0092  -40.9916    8.9586 O   0  0  0  0  0  0  0  0  0  0  0  0
   10.4325  -42.0647   14.3531 C   0  0  2  0  0  0  0  0  0  0  0  0
   10.8993  -38.3529   15.2084 C   0  0  2  0  0  0  0  0  0  0  0  0
   10.5732  -39.5785   14.5687 O   0  0  0  0  0  0  0  0  0  0  0  0
   13.3947  -34.4791   16.5188 C   0  0  2  0  0  0  0  0  0  0  0  0
   14.3310  -35.3799   15.8979 O   0  0  0  0  0  0  0  0  0  0  0  0
   17.7516  -35.6155   13.0646 C   0  0  2  0  0  0  0  0  0  0  0  0
   18.1442  -36.3813   11.9045 O   0  0  0  0  0  0  0  0  0  0  0  0
    8.5829  -41.9341   11.1693 C   0  0  2  0  0  0  0  0  0  0  0  0
    8.8540  -43.1378   11.9861 O   0  0  0  0  0  0  0  0  0  0  0  0
    8.9148  -41.7150   14.4250 C   0  0  2  0  0  0  0  0  0  0  0  0
    8.6946  -40.5558   13.5861 O   0  0  0  0  0  0  0  0  0  0  0  0
   11.2653  -38.6516   16.6580 C   0  0  0  0  0  0  0  0  0  0  0  0
   10.3848  -39.6922   17.1085 O   0  0  0  0  0  0  0  0  0  0  0  0
   12.3021  -35.2982   17.1797 C   0  0  1  0  0  0  0  0  0  0  0  0
   11.3625  -36.1349   16.4732 O   0  0  0  0  0  0  0  0  0  0  0  0
   17.6380  -36.4501   14.3374 C   0  0  2  0  0  0  0  0  0  0  0  0
   17.0340  -35.7602   15.4664 O   0  0  0  0  0  0  0  0  0  0  0  0
    7.1001  -41.7765   11.0533 C   0  0  0  0  0  0  0  0  0  0  0  0
    6.5904  -42.9195   10.4213 O   0  0  0  0  0  0  0  0  0  0  0  0
    8.4953  -41.4327   15.9140 C   0  0  1  0  0  0  0  0  0  0  0  0
    7.0520  -41.1586   15.9489 O   0  0  0  0  0  0  0  0  0  0  0  0
   12.8168  -36.1539   18.3911 C   0  0  0  0  0  0  0  0  0  0  0  0
   11.7332  -36.6382   19.2801 N   0  0  0  0  0  0  0  0  0  0  0  0
   18.8354  -37.1911   14.9281 C   0  0  0  0  0  0  0  0  0  0  0  0
   19.4267  -38.0789   13.9298 O   0  0  0  0  0  0  0  0  0  0  0  0
  1  2  1  1  0  0  0
  1  8  1  0  0  0  0
  1 36  1  0  0  0  0
  3  4  1  1  0  0  0
  3 10  1  0  0  0  0
  3 47  1  0  0  0  0
  5 11  1  0  0  0  0
  5 30  1  0  0  0  0
  5 38  1  1  0  0  0
  6 21  1  6  0  0  0
  6 42  1  0  0  0  0
  7 15  1  0  0  0  0
  7 44  1  0  0  0  0
  7 32  1  1  0  0  0
  8  9  1  1  0  0  0
  8 17  1  0  0  0  0
 11 12  1  6  0  0  0
 11 20  1  0  0  0  0
 13  6  1  0  0  0  0
 13 14  1  1  0  0  0
 15 16  1  6  0  0  0
 15 24  1  0  0  0  0
 17 26  1  0  0  0  0
 18 10  1  0  0  0  0
 18 19  1  1  0  0  0
 20 21  1  6  0  0  0
 20 29  1  0  0  0  0
 22 13  1  0  0  0  0
 22 23  1  1  0  0  0
 24 25  1  1  0  0  0
 24 33  1  0  0  0  0
 26 27  1  6  0  0  0
 26 35  1  0  0  0  0
 28  2  1  6  0  0  0
 28 18  1  0  0  0  0
 29 30  1  0  0  0  0
 29 39  1  1  0  0  0
 31 22  1  0  0  0  0
 31 32  1  6  0  0  0
 31 41  1  0  0  0  0
 33 34  1  6  0  0  0
 33 43  1  0  0  0  0
 35 36  1  0  0  0  0
 35 45  1  6  0  0  0
 37 28  1  0  0  0  0
 37 38  1  6  0  0  0
 39 40  1  0  0  0  0
 41 42  1  0  0  0  0
 41 49  1  1  0  0  0
 43 44  1  0  0  0  0
 43 51  1  1  0  0  0
 45 46  1  0  0  0  0
 47 37  1  0  0  0  0
 47 48  1  6  0  0  0
 49 50  1  0  0  0  0
 51 52  1  0  0  0  0
M  END
>  <CHROM.1>
-175.57819303,-116.86761005,143.36112288,-103.18101132,170.97111389,66.72858513
76.19703686,78.47441201,58.52180954,-45.55731415,163.13560252,-55.37958608
11.75854602,-38.70696011,14.21361003,-2.43878230,0.50206661,0.75078175

>  <Name>
2fd0_lig

>  <RI>
0

>  <Rbt.Current_Directory>
/home/itssahil/PROJECTS/Mol_Feturizer/New_Systems/rnas/2fd0

>  <Rbt.Executable>
rbdock ($Id: //depot/dev/client3/rdock/2013.1/src/exe/rbdock.cxx#4 $)

>  <Rbt.Library>
libRbt.so (2013.1, Build901 2013/11/27)

>  <Rbt.Parameter_File>
/export/apps/rDock/src/rDock_2013.1_src/data/scripts/dock_solv.prm

>  <Rbt.Receptor>
prm/blind_docking_100.prm

>  <SCORE>
20.8601

>  <SCORE.INTER>
2.47325

>  <SCORE.INTER.CONST>
1

>  <SCORE.INTER.POLAR>
-0.195884

>  <SCORE.INTER.ROT>
12

>  <SCORE.INTER.SOLV>
32.7667

>  <SCORE.INTER.VDW>
-20.2204

>  <SCORE.INTER.norm>
0.0475625

>  <SCORE.INTRA>
12.584

>  <SCORE.INTRA.DIHEDRAL>
0.242539

>  <SCORE.INTRA.DIHEDRAL.0>
23.9727

>  <SCORE.INTRA.POLAR>
0

>  <SCORE.INTRA.POLAR.0>
0

>  <SCORE.INTRA.REPUL>
0

>  <SCORE.INTRA.REPUL.0>
0

>  <SCORE.INTRA.SOLV>
3.35396

>  <SCORE.INTRA.SOLV.lig_0>
-115.028

>  <SCORE.INTRA.VDW>
10.7858

>  <SCORE.INTRA.VDW.0>
-6.82393

>  <SCORE.INTRA.norm>
0.242

>  <SCORE.RESTR>
5.80284

>  <SCORE.RESTR.CAVITY>
5.80284

>  <SCORE.RESTR.norm>
0.111593

>  <SCORE.SYSTEM>
0

>  <SCORE.SYSTEM.CONST>
0

>  <SCORE.SYSTEM.DIHEDRAL>
0

>  <SCORE.SYSTEM.SOLV>
0

>  <SCORE.SYSTEM.norm>
0

>  <SCORE.heavy>
52

>  <SCORE.norm>
0.401156

>  <RMSD>
18.050

$$$$
2fd0_lig
 OpenBabel11021811433D
libRbt.so/2013.1/901 2013/11/27
 52 56  0  0  0  0  0  0  0  0999 V2000
   10.0238  -43.8216   13.5078 C   0  0  2  0  0  0  0  0  0  0  0  0
    9.6525  -43.0060   14.6275 O   0  0  0  0  0  0  0  0  0  0  0  0
    5.6134  -41.5252   14.0064 C   0  0  2  0  0  0  0  0  0  0  0  0
    4.2037  -41.1717   14.2400 N   0  0  0  0  0  0  0  0  0  0  0  0
    9.9999  -39.6481   15.3310 C   0  0  1  0  0  0  0  0  0  0  0  0
   12.0009  -35.8937   14.1281 C   0  0  1  0  0  0  0  0  0  0  0  0
   16.4034  -35.5227   12.1402 C   0  0  1  0  0  0  0  0  0  0  0  0
   11.5601  -43.6279   13.2358 C   0  0  2  0  0  0  0  0  0  0  0  0
   12.3629  -43.9457   14.4085 N   0  0  0  0  0  0  0  0  0  0  0  0
    5.8390  -43.0826   14.2446 C   0  0  0  0  0  0  0  0  0  0  0  0
    9.4387  -38.5643   14.4287 C   0  0  2  0  0  0  0  0  0  0  0  0
    9.5016  -38.9308   13.0217 O   0  0  0  0  0  0  0  0  0  0  0  0
   12.7417  -35.5081   12.7636 C   0  0  2  0  0  0  0  0  0  0  0  0
   13.4072  -36.7026   12.1757 N   0  0  0  0  0  0  0  0  0  0  0  0
   17.7977  -35.5293   12.8063 C   0  0  1  0  0  0  0  0  0  0  0  0
   18.0909  -36.8689   13.2747 O   0  0  0  0  0  0  0  0  0  0  0  0
   11.8458  -42.1674   12.7240 C   0  0  0  0  0  0  0  0  0  0  0  0
    7.3722  -43.4671   13.9788 C   0  0  2  0  0  0  0  0  0  0  0  0
    7.6083  -44.9021   14.1949 N   0  0  0  0  0  0  0  0  0  0  0  0
   10.2367  -37.3369   14.8352 C   0  0  2  0  0  0  0  0  0  0  0  0
   11.1648  -36.9782   13.8479 O   0  0  0  0  0  0  0  0  0  0  0  0
   13.7126  -34.2557   13.0798 C   0  0  1  0  0  0  0  0  0  0  0  0
   12.9065  -33.1959   13.6259 O   0  0  0  0  0  0  0  0  0  0  0  0
   19.0003  -35.0429   11.9530 C   0  0  1  0  0  0  0  0  0  0  0  0
   19.5913  -36.1899   11.3288 O   0  0  0  0  0  0  0  0  0  0  0  0
   10.9601  -41.9007   11.4634 C   0  0  2  0  0  0  0  0  0  0  0  0
   11.2034  -40.5919   10.9574 O   0  0  0  0  0  0  0  0  0  0  0  0
    8.2786  -42.6281   14.9224 C   0  0  2  0  0  0  0  0  0  0  0  0
   11.0833  -37.6869   16.0823 C   0  0  2  0  0  0  0  0  0  0  0  0
   10.6078  -38.9812   16.4234 O   0  0  0  0  0  0  0  0  0  0  0  0
   14.8170  -34.6184   14.2036 C   0  0  2  0  0  0  0  0  0  0  0  0
   15.6066  -35.6656   13.6089 O   0  0  0  0  0  0  0  0  0  0  0  0
   18.6808  -33.9930   10.8639 C   0  0  2  0  0  0  0  0  0  0  0  0
   19.7663  -33.0409   10.9072 O   0  0  0  0  0  0  0  0  0  0  0  0
    9.4594  -42.0513   11.8442 C   0  0  2  0  0  0  0  0  0  0  0  0
    9.2465  -43.4261   12.3482 O   0  0  0  0  0  0  0  0  0  0  0  0
    8.0535  -41.0930   14.7682 C   0  0  2  0  0  0  0  0  0  0  0  0
    8.9151  -40.4283   15.7231 O   0  0  0  0  0  0  0  0  0  0  0  0
   10.8775  -36.7692   17.2822 C   0  0  0  0  0  0  0  0  0  0  0  0
   11.7397  -37.2437   18.3276 O   0  0  0  0  0  0  0  0  0  0  0  0
   14.0394  -35.2019   15.3682 C   0  0  1  0  0  0  0  0  0  0  0  0
   13.0111  -36.2070   15.2470 O   0  0  0  0  0  0  0  0  0  0  0  0
   17.3086  -33.3653   11.0933 C   0  0  2  0  0  0  0  0  0  0  0  0
   16.2256  -34.3186   11.2767 O   0  0  0  0  0  0  0  0  0  0  0  0
    8.5575  -41.8430   10.6693 C   0  0  0  0  0  0  0  0  0  0  0  0
    7.3086  -41.4245   11.1499 O   0  0  0  0  0  0  0  0  0  0  0  0
    6.5416  -40.7408   15.0186 C   0  0  1  0  0  0  0  0  0  0  0  0
    6.3579  -39.2972   14.8142 O   0  0  0  0  0  0  0  0  0  0  0  0
   14.9564  -35.6629   16.5559 C   0  0  0  0  0  0  0  0  0  0  0  0
   14.2616  -36.5222   17.5449 N   0  0  0  0  0  0  0  0  0  0  0  0
   16.7386  -32.3026   10.1564 C   0  0  0  0  0  0  0  0  0  0  0  0
   17.2154  -32.5190    8.7925 O   0  0  0  0  0  0  0  0  0  0  0  0
  1  2  1  1  0  0  0
  1  8  1  0  0  0  0
  1 36  1  0  0  0  0
  3  4  1  1  0  0  0
  3 10  1  0  0  0  0
  3 47  1  0  0  0  0
  5 11  1  0  0  0  0
  5 30  1  0  0  0  0
  5 38  1  1  0  0  0
  6 21  1  6  0  0  0
  6 42  1  0  0  0  0
  7 15  1  0  0  0  0
  7 44  1  0  0  0  0
  7 32  1  1  0  0  0
  8  9  1  1  0  0  0
  8 17  1  0  0  0  0
 11 12  1  6  0  0  0
 11 20  1  0  0  0  0
 13  6  1  0  0  0  0
 13 14  1  1  0  0  0
 15 16  1  6  0  0  0
 15 24  1  0  0  0  0
 17 26  1  0  0  0  0
 18 10  1  0  0  0  0
 18 19  1  1  0  0  0
 20 21  1  6  0  0  0
 20 29  1  0  0  0  0
 22 13  1  0  0  0  0
 22 23  1  1  0  0  0
 24 25  1  6  0  0  0
 24 33  1  0  0  0  0
 26 27  1  1  0  0  0
 26 35  1  0  0  0  0
 28  2  1  6  0  0  0
 28 18  1  0  0  0  0
 29 30  1  0  0  0  0
 29 39  1  1  0  0  0
 31 22  1  0  0  0  0
 31 32  1  6  0  0  0
 31 41  1  0  0  0  0
 33 34  1  1  0  0  0
 33 43  1  0  0  0  0
 35 36  1  0  0  0  0
 35 45  1  6  0  0  0
 37 28  1  0  0  0  0
 37 38  1  1  0  0  0
 39 40  1  0  0  0  0
 41 42  1  0  0  0  0
 41 49  1  1  0  0  0
 43 44  1  0  0  0  0
 43 51  1  6  0  0  0
 45 46  1  0  0  0  0
 47 37  1  0  0  0  0
 47 48  1  6  0  0  0
 49 50  1  0  0  0  0
 51 52  1  0  0  0  0
M  END
>  <CHROM.1>
161.49712790,57.66812105,-168.88417029,110.62453125,-177.43057889,9.75969212
-179.84255361,56.40183072,-154.91004596,112.31826004,-166.00309852,31.38730085
12.03162302,-38.35825162,13.55105226,-2.73310892,0.61344138,0.69630126

>  <Name>
2fd0_lig

>  <RI>
0

>  <Rbt.Current_Directory>
/home/itssahil/PROJECTS/Mol_Feturizer/New_Systems/rnas/2fd0

>  <Rbt.Executable>
rbdock ($Id: //depot/dev/client3/rdock/2013.1/src/exe/rbdock.cxx#4 $)

>  <Rbt.Library>
libRbt.so (2013.1, Build901 2013/11/27)

>  <Rbt.Parameter_File>
/export/apps/rDock/src/rDock_2013.1_src/data/scripts/dock_solv.prm

>  <Rbt.Receptor>
prm/blind_docking_100.prm

>  <SCORE>
4.73132

>  <SCORE.INTER>
-10.0011

>  <SCORE.INTER.CONST>
1

>  <SCORE.INTER.POLAR>
-0.408913

>  <SCORE.INTER.ROT>
12

>  <SCORE.INTER.SOLV>
23.4438

>  <SCORE.INTER.VDW>
-24.719

>  <SCORE.INTER.norm>
-0.192328

>  <SCORE.INTRA>
8.90473

>  <SCORE.INTRA.DIHEDRAL>
4.67474

>  <SCORE.INTRA.DIHEDRAL.0>
23.9727

>  <SCORE.INTRA.POLAR>
0

>  <SCORE.INTRA.POLAR.0>
0

>  <SCORE.INTRA.REPUL>
0

>  <SCORE.INTRA.REPUL.0>
0

>  <SCORE.INTRA.SOLV>
2.28839

>  <SCORE.INTRA.SOLV.lig_0>
-115.028

>  <SCORE.INTRA.VDW>
5.42316

>  <SCORE.INTRA.VDW.0>
-6.82393

>  <SCORE.INTRA.norm>
0.171245

>  <SCORE.RESTR>
5.82767

>  <SCORE.RESTR.CAVITY>
5.82767

>  <SCORE.RESTR.norm>
0.112071

>  <SCORE.SYSTEM>
0

>  <SCORE.SYSTEM.CONST>
0

>  <SCORE.SYSTEM.DIHEDRAL>
0

>  <SCORE.SYSTEM.SOLV>
0

>  <SCORE.SYSTEM.norm>
0

>  <SCORE.heavy>
52

>  <SCORE.norm>
0.0909869

>  <RMSD>
18.360

$$$$
2fd0_lig
 OpenBabel11021811433D
libRbt.so/2013.1/901 2013/11/27
 52 56  0  0  0  0  0  0  0  0999 V2000
    8.4326  -43.7903   15.9513 C   0  0  2  0  0  0  0  0  0  0  0  0
    9.7255  -43.8212   15.3312 O   0  0  0  0  0  0  0  0  0  0  0  0
   11.7324  -42.5417   11.6943 C   0  0  2  0  0  0  0  0  0  0  0  0
   12.0213  -42.2879   10.2733 N   0  0  0  0  0  0  0  0  0  0  0  0
    8.8377  -40.0499   14.4844 C   0  0  1  0  0  0  0  0  0  0  0  0
   11.3465  -37.3361   16.8579 C   0  0  1  0  0  0  0  0  0  0  0  0
   12.2206  -33.0231   19.4008 C   0  0  1  0  0  0  0  0  0  0  0  0
    8.6270  -43.7376   17.5105 C   0  0  2  0  0  0  0  0  0  0  0  0
    9.4344  -42.5962   17.9181 N   0  0  0  0  0  0  0  0  0  0  0  0
   11.4913  -44.0956   11.9398 C   0  0  0  0  0  0  0  0  0  0  0  0
   10.1015  -39.8380   15.2976 C   0  0  2  0  0  0  0  0  0  0  0  0
    9.8875  -40.0660   16.7190 O   0  0  0  0  0  0  0  0  0  0  0  0
   10.7360  -36.5498   18.1103 C   0  0  2  0  0  0  0  0  0  0  0  0
   10.0435  -35.3111   17.6615 N   0  0  0  0  0  0  0  0  0  0  0  0
   11.5615  -32.0812   18.3682 C   0  0  1  0  0  0  0  0  0  0  0  0
   10.2783  -32.6309   17.9793 O   0  0  0  0  0  0  0  0  0  0  0  0
    9.2408  -45.0895   18.0320 C   0  0  0  0  0  0  0  0  0  0  0  0
   11.1879  -44.3708   13.4895 C   0  0  2  0  0  0  0  0  0  0  0  0
   10.9584  -45.8008   13.7432 N   0  0  0  0  0  0  0  0  0  0  0  0
   10.5277  -38.4338   14.9035 C   0  0  2  0  0  0  0  0  0  0  0  0
   10.3060  -37.5197   15.9428 O   0  0  0  0  0  0  0  0  0  0  0  0
   11.9339  -36.3315   19.1725 C   0  0  1  0  0  0  0  0  0  0  0  0
   12.4759  -37.6232   19.5023 O   0  0  0  0  0  0  0  0  0  0  0  0
   11.3456  -30.6013   18.7855 C   0  0  1  0  0  0  0  0  0  0  0  0
   10.0256  -30.4847   19.3317 O   0  0  0  0  0  0  0  0  0  0  0  0
    8.3205  -46.2648   17.5669 C   0  0  2  0  0  0  0  0  0  0  0  0
    8.8331  -47.5081   18.0356 O   0  0  0  0  0  0  0  0  0  0  0  0
    9.9433  -43.5451   13.9193 C   0  0  2  0  0  0  0  0  0  0  0  0
    9.6300  -37.9521   13.7388 C   0  0  2  0  0  0  0  0  0  0  0  0
    8.8923  -39.1219   13.4150 O   0  0  0  0  0  0  0  0  0  0  0  0
   13.1489  -35.4710   18.5418 C   0  0  2  0  0  0  0  0  0  0  0  0
   12.5665  -34.1880   18.2449 O   0  0  0  0  0  0  0  0  0  0  0  0
   12.3579  -30.0273   19.8035 C   0  0  2  0  0  0  0  0  0  0  0  0
   12.6509  -28.6871   19.3514 O   0  0  0  0  0  0  0  0  0  0  0  0
    8.2410  -46.2762   16.0134 C   0  0  2  0  0  0  0  0  0  0  0  0
    7.6896  -44.9768   15.5697 O   0  0  0  0  0  0  0  0  0  0  0  0
   10.1072  -42.0190   13.6453 C   0  0  2  0  0  0  0  0  0  0  0  0
    8.8756  -41.3702   14.0433 O   0  0  0  0  0  0  0  0  0  0  0  0
   10.3783  -37.4967   12.4910 C   0  0  0  0  0  0  0  0  0  0  0  0
   11.2860  -36.4619   12.8989 O   0  0  0  0  0  0  0  0  0  0  0  0
   13.5001  -36.1562   17.2347 C   0  0  1  0  0  0  0  0  0  0  0  0
   12.5384  -36.5781   16.2451 O   0  0  0  0  0  0  0  0  0  0  0  0
   13.5921  -30.9188   19.9114 C   0  0  2  0  0  0  0  0  0  0  0  0
   13.3085  -32.3257   20.1471 O   0  0  0  0  0  0  0  0  0  0  0  0
    7.3439  -47.3592   15.5041 C   0  0  0  0  0  0  0  0  0  0  0  0
    7.5915  -47.5189   14.1334 O   0  0  0  0  0  0  0  0  0  0  0  0
   10.4182  -41.7737   12.1235 C   0  0  1  0  0  0  0  0  0  0  0  0
   10.6172  -40.3329   11.9136 O   0  0  0  0  0  0  0  0  0  0  0  0
   14.6445  -35.4298   16.4430 C   0  0  0  0  0  0  0  0  0  0  0  0
   14.6766  -35.7684   14.9995 N   0  0  0  0  0  0  0  0  0  0  0  0
   14.7470  -30.5901   20.8548 C   0  0  0  0  0  0  0  0  0  0  0  0
   15.3855  -29.3370   20.4593 O   0  0  0  0  0  0  0  0  0  0  0  0
  1  2  1  6  0  0  0
  1  8  1  0  0  0  0
  1 36  1  0  0  0  0
  3  4  1  6  0  0  0
  3 10  1  0  0  0  0
  3 47  1  0  0  0  0
  5 11  1  0  0  0  0
  5 30  1  0  0  0  0
  5 38  1  6  0  0  0
  6 21  1  6  0  0  0
  6 42  1  0  0  0  0
  7 15  1  0  0  0  0
  7 44  1  0  0  0  0
  7 32  1  6  0  0  0
  8  9  1  6  0  0  0
  8 17  1  0  0  0  0
 11 12  1  1  0  0  0
 11 20  1  0  0  0  0
 13  6  1  0  0  0  0
 13 14  1  6  0  0  0
 15 16  1  1  0  0  0
 15 24  1  0  0  0  0
 17 26  1  0  0  0  0
 18 10  1  0  0  0  0
 18 19  1  6  0  0  0
 20 21  1  1  0  0  0
 20 29  1  0  0  0  0
 22 13  1  0  0  0  0
 22 23  1  6  0  0  0
 24 25  1  1  0  0  0
 24 33  1  0  0  0  0
 26 27  1  6  0  0  0
 26 35  1  0  0  0  0
 28  2  1  1  0  0  0
 28 18  1  0  0  0  0
 29 30  1  0  0  0  0
 29 39  1  6  0  0  0
 31 22  1  0  0  0  0
 31 32  1  6  0  0  0
 31 41  1  0  0  0  0
 33 34  1  6  0  0  0
 33 43  1  0  0  0  0
 35 36  1  0  0  0  0
 35 45  1  1  0  0  0
 37 28  1  0  0  0  0
 37 38  1  6  0  0  0
 39 40  1  0  0  0  0
 41 42  1  0  0  0  0
 41 49  1  6  0  0  0
 43 44  1  0  0  0  0
 43 51  1  1  0  0  0
 45 46  1  0  0  0  0
 47 37  1  0  0  0  0
 47 48  1  1  0  0  0
 49 50  1  0  0  0  0
 51 52  1  0  0  0  0
M  END
>  <CHROM.1>
-164.40658873,-36.97289707,-166.43588187,-175.68142255,89.61770325,-150.30849081
-56.27924627,75.95207165,-165.17527403,151.56844270,-159.52686903,-63.81542214
10.87552254,-38.64081555,16.27666456,2.40218472,-1.22568818,-2.01889579

>  <Name>
2fd0_lig

>  <RI>
0

>  <Rbt.Current_Directory>
/home/itssahil/PROJECTS/Mol_Feturizer/New_Systems/rnas/2fd0

>  <Rbt.Executable>
rbdock ($Id: //depot/dev/client3/rdock/2013.1/src/exe/rbdock.cxx#4 $)

>  <Rbt.Library>
libRbt.so (2013.1, Build901 2013/11/27)

>  <Rbt.Parameter_File>
/export/apps/rDock/src/rDock_2013.1_src/data/scripts/dock_solv.prm

>  <Rbt.Receptor>
prm/blind_docking_100.prm

>  <SCORE>
-0.216553

>  <SCORE.INTER>
-4.05814

>  <SCORE.INTER.CONST>
1

>  <SCORE.INTER.POLAR>
0

>  <SCORE.INTER.ROT>
12

>  <SCORE.INTER.SOLV>
23.2559

>  <SCORE.INTER.VDW>
-22.0574

>  <SCORE.INTER.norm>
-0.0780412

>  <SCORE.INTRA>
-0.0119511

>  <SCORE.INTRA.DIHEDRAL>
-4.80352

>  <SCORE.INTRA.DIHEDRAL.0>
23.9727

>  <SCORE.INTRA.POLAR>
0

>  <SCORE.INTRA.POLAR.0>
0

>  <SCORE.INTRA.REPUL>
0.0903459

>  <SCORE.INTRA.REPUL.0>
0

>  <SCORE.INTRA.SOLV>
1.10973

>  <SCORE.INTRA.SOLV.lig_0>
-115.028

>  <SCORE.INTRA.VDW>
1.38321

>  <SCORE.INTRA.VDW.0>
-6.82393

>  <SCORE.INTRA.norm>
-0.000229828

>  <SCORE.RESTR>
3.85354

>  <SCORE.RESTR.CAVITY>
3.85354

>  <SCORE.RESTR.norm>
0.0741066

>  <SCORE.SYSTEM>
0

>  <SCORE.SYSTEM.CONST>
0

>  <SCORE.SYSTEM.DIHEDRAL>
0

>  <SCORE.SYSTEM.SOLV>
0

>  <SCORE.SYSTEM.norm>
0

>  <SCORE.heavy>
52

>  <SCORE.norm>
-0.00416448

>  <RMSD>
18.362

$$$$
2fd0_lig
 OpenBabel11021811433D
libRbt.so/2013.1/901 2013/11/27
 52 56  0  0  0  0  0  0  0  0999 V2000
    9.2374  -42.1295   13.8039 C   0  0  2  0  0  0  0  0  0  0  0  0
    8.8769  -43.3528   14.4600 O   0  0  0  0  0  0  0  0  0  0  0  0
    8.5967  -43.9660   18.7539 C   0  0  2  0  0  0  0  0  0  0  0  0
    8.9387  -44.3318   20.1382 N   0  0  0  0  0  0  0  0  0  0  0  0
    9.8686  -40.0971   16.2051 C   0  0  1  0  0  0  0  0  0  0  0  0
   10.9843  -35.7913   15.8173 C   0  0  1  0  0  0  0  0  0  0  0  0
   12.1988  -32.9818   18.3735 C   0  0  1  0  0  0  0  0  0  0  0  0
    8.4040  -42.0099   12.4762 C   0  0  2  0  0  0  0  0  0  0  0  0
    6.9709  -42.0705   12.7280 N   0  0  0  0  0  0  0  0  0  0  0  0
    8.7339  -45.2315   17.7985 C   0  0  0  0  0  0  0  0  0  0  0  0
   11.1048  -39.3884   16.7277 C   0  0  2  0  0  0  0  0  0  0  0  0
   11.0267  -39.1251   18.1569 O   0  0  0  0  0  0  0  0  0  0  0  0
   12.5502  -35.5331   15.6149 C   0  0  2  0  0  0  0  0  0  0  0  0
   13.2637  -35.6056   16.9192 N   0  0  0  0  0  0  0  0  0  0  0  0
   13.4289  -32.3266   19.0408 C   0  0  1  0  0  0  0  0  0  0  0  0
   13.4123  -30.9036   18.7676 O   0  0  0  0  0  0  0  0  0  0  0  0
    8.8523  -43.1125   11.4469 C   0  0  0  0  0  0  0  0  0  0  0  0
    8.3503  -44.8334   16.2939 C   0  0  2  0  0  0  0  0  0  0  0  0
    8.4715  -45.9859   15.3890 N   0  0  0  0  0  0  0  0  0  0  0  0
   11.2025  -38.1677   15.8283 C   0  0  2  0  0  0  0  0  0  0  0  0
   10.8546  -36.9959   16.5143 O   0  0  0  0  0  0  0  0  0  0  0  0
   12.7089  -34.1403   14.8113 C   0  0  1  0  0  0  0  0  0  0  0  0
   11.9719  -34.2515   13.5802 O   0  0  0  0  0  0  0  0  0  0  0  0
   13.6009  -32.5216   20.5716 C   0  0  1  0  0  0  0  0  0  0  0  0
   12.9874  -31.4063   21.2304 O   0  0  0  0  0  0  0  0  0  0  0  0
   10.3936  -42.9818   11.2188 C   0  0  2  0  0  0  0  0  0  0  0  0
   10.8372  -43.9533   10.2767 O   0  0  0  0  0  0  0  0  0  0  0  0
    9.2790  -43.6811   15.8193 C   0  0  2  0  0  0  0  0  0  0  0  0
   10.1573  -38.3022   14.6953 C   0  0  2  0  0  0  0  0  0  0  0  0
    9.6644  -39.6206   14.8863 O   0  0  0  0  0  0  0  0  0  0  0  0
   12.0632  -32.8998   15.6227 C   0  0  2  0  0  0  0  0  0  0  0  0
   12.8396  -32.8164   16.8325 O   0  0  0  0  0  0  0  0  0  0  0  0
   13.0200  -33.8281   21.1601 C   0  0  2  0  0  0  0  0  0  0  0  0
   13.9924  -34.2903   22.1231 O   0  0  0  0  0  0  0  0  0  0  0  0
   11.1354  -43.1783   12.5719 C   0  0  2  0  0  0  0  0  0  0  0  0
   10.6591  -42.1418   13.5144 O   0  0  0  0  0  0  0  0  0  0  0  0
    9.2243  -42.4366   16.7570 C   0  0  2  0  0  0  0  0  0  0  0  0
   10.1576  -41.4589   16.2381 O   0  0  0  0  0  0  0  0  0  0  0  0
   10.7191  -38.2009   13.2816 C   0  0  0  0  0  0  0  0  0  0  0  0
    9.6005  -38.0521   12.3939 O   0  0  0  0  0  0  0  0  0  0  0  0
   10.6547  -33.3344   15.9816 C   0  0  1  0  0  0  0  0  0  0  0  0
   10.3109  -34.6159   16.5490 O   0  0  0  0  0  0  0  0  0  0  0  0
   12.7232  -34.8413   20.0578 C   0  0  2  0  0  0  0  0  0  0  0  0
   11.9233  -34.3273   18.9572 O   0  0  0  0  0  0  0  0  0  0  0  0
   12.6167  -43.0291   12.4281 C   0  0  0  0  0  0  0  0  0  0  0  0
   13.1907  -43.1510   13.7014 O   0  0  0  0  0  0  0  0  0  0  0  0
    9.5895  -42.8525   18.2288 C   0  0  1  0  0  0  0  0  0  0  0  0
    9.4770  -41.6677   19.0908 O   0  0  0  0  0  0  0  0  0  0  0  0
    9.8726  -32.2651   16.8237 C   0  0  0  0  0  0  0  0  0  0  0  0
    9.3158  -31.1579   16.0092 N   0  0  0  0  0  0  0  0  0  0  0  0
   12.1318  -36.2162   20.3611 C   0  0  0  0  0  0  0  0  0  0  0  0
   12.6128  -37.2008   19.3948 O   0  0  0  0  0  0  0  0  0  0  0  0
  1  2  1  6  0  0  0
  1  8  1  0  0  0  0
  1 36  1  0  0  0  0
  3  4  1  1  0  0  0
  3 10  1  0  0  0  0
  3 47  1  0  0  0  0
  5 11  1  0  0  0  0
  5 30  1  0  0  0  0
  5 38  1  6  0  0  0
  6 21  1  1  0  0  0
  6 42  1  0  0  0  0
  7 15  1  0  0  0  0
  7 44  1  0  0  0  0
  7 32  1  6  0  0  0
  8  9  1  1  0  0  0
  8 17  1  0  0  0  0
 11 12  1  1  0  0  0
 11 20  1  0  0  0  0
 13  6  1  0  0  0  0
 13 14  1  1  0  0  0
 15 16  1  1  0  0  0
 15 24  1  0  0  0  0
 17 26  1  0  0  0  0
 18 10  1  0  0  0  0
 18 19  1  6  0  0  0
 20 21  1  1  0  0  0
 20 29  1  0  0  0  0
 22 13  1  0  0  0  0
 22 23  1  6  0  0  0
 24 25  1  1  0  0  0
 24 33  1  0  0  0  0
 26 27  1  6  0  0  0
 26 35  1  0  0  0  0
 28  2  1  6  0  0  0
 28 18  1  0  0  0  0
 29 30  1  0  0  0  0
 29 39  1  6  0  0  0
 31 22  1  0  0  0  0
 31 32  1  1  0  0  0
 31 41  1  0  0  0  0
 33 34  1  1  0  0  0
 33 43  1  0  0  0  0
 35 36  1  0  0  0  0
 35 45  1  6  0  0  0
 37 28  1  0  0  0  0
 37 38  1  6  0  0  0
 39 40  1  0  0  0  0
 41 42  1  0  0  0  0
 41 49  1  1  0  0  0
 43 44  1  0  0  0  0
 43 51  1  1  0  0  0
 45 46  1  0  0  0  0
 47 37  1  0  0  0  0
 47 48  1  1  0  0  0
 49 50  1  0  0  0  0
 51 52  1  0  0  0  0
M  END
>  <CHROM.1>
-169.20399173,134.39032557,-69.18790651,-162.31890381,176.14893636,162.83869362
-167.62052421,-119.72280540,176.91573457,139.49880192,79.49795790,-148.31434503
10.88370115,-38.40664919,16.28435272,-3.08401175,1.31755673,1.89167073

>  <Name>
2fd0_lig

>  <RI>
0

>  <Rbt.Current_Directory>
/home/itssahil/PROJECTS/Mol_Feturizer/New_Systems/rnas/2fd0

>  <Rbt.Executable>
rbdock ($Id: //depot/dev/client3/rdock/2013.1/src/exe/rbdock.cxx#4 $)

>  <Rbt.Library>
libRbt.so (2013.1, Build901 2013/11/27)

>  <Rbt.Parameter_File>
/export/apps/rDock/src/rDock_2013.1_src/data/scripts/dock_solv.prm

>  <Rbt.Receptor>
prm/blind_docking_100.prm

>  <SCORE>
-4.47688

>  <SCORE.INTER>
-14.6792

>  <SCORE.INTER.CONST>
1

>  <SCORE.INTER.POLAR>
-1.53434

>  <SCORE.INTER.ROT>
12

>  <SCORE.INTER.SOLV>
29.4681

>  <SCORE.INTER.VDW>
-26.0944

>  <SCORE.INTER.norm>
-0.282292

>  <SCORE.INTRA>
3.56192

>  <SCORE.INTRA.DIHEDRAL>
3.80221

>  <SCORE.INTRA.DIHEDRAL.0>
23.9727

>  <SCORE.INTRA.POLAR>
0

>  <SCORE.INTRA.POLAR.0>
0

>  <SCORE.INTRA.REPUL>
0.0441548

>  <SCORE.INTRA.REPUL.0>
0

>  <SCORE.INTRA.SOLV>
-0.104429

>  <SCORE.INTRA.SOLV.lig_0>
-115.028

>  <SCORE.INTRA.VDW>
1.49226

>  <SCORE.INTRA.VDW.0>
-6.82393

>  <SCORE.INTRA.norm>
0.0684985

>  <SCORE.RESTR>
6.64037

>  <SCORE.RESTR.CAVITY>
6.64037

>  <SCORE.RESTR.norm>
0.127699

>  <SCORE.SYSTEM>
0

>  <SCORE.SYSTEM.CONST>
0

>  <SCORE.SYSTEM.DIHEDRAL>
0

>  <SCORE.SYSTEM.SOLV>
0

>  <SCORE.SYSTEM.norm>
0

>  <SCORE.heavy>
52

>  <SCORE.norm>
-0.0860939

>  <RMSD>
18.410

$$$$
2fd0_lig
 OpenBabel11021811433D
libRbt.so/2013.1/901 2013/11/27
 52 56  0  0  0  0  0  0  0  0999 V2000
    7.8227  -41.0441   12.7435 C   0  0  2  0  0  0  0  0  0  0  0  0
    7.5748  -41.9832   13.7988 O   0  0  0  0  0  0  0  0  0  0  0  0
    8.9744  -42.7115   17.8489 C   0  0  2  0  0  0  0  0  0  0  0  0
    9.8583  -42.9888   18.9929 N   0  0  0  0  0  0  0  0  0  0  0  0
   10.1650  -39.3308   15.3403 C   0  0  1  0  0  0  0  0  0  0  0  0
   12.9974  -35.7915   14.7542 C   0  0  1  0  0  0  0  0  0  0  0  0
   13.5112  -33.0423   19.2524 C   0  0  1  0  0  0  0  0  0  0  0  0
    6.9076  -41.4140   11.5199 C   0  0  2  0  0  0  0  0  0  0  0  0
    5.4978  -41.4372   11.8843 N   0  0  0  0  0  0  0  0  0  0  0  0
    9.0856  -43.8763   16.7702 C   0  0  0  0  0  0  0  0  0  0  0  0
   10.2342  -38.1602   14.3767 C   0  0  2  0  0  0  0  0  0  0  0  0
   10.7390  -38.5514   13.0690 O   0  0  0  0  0  0  0  0  0  0  0  0
   14.2094  -36.0295   15.7710 C   0  0  2  0  0  0  0  0  0  0  0  0
   13.7231  -36.6763   17.0202 N   0  0  0  0  0  0  0  0  0  0  0  0
   12.0870  -32.5453   18.9173 C   0  0  1  0  0  0  0  0  0  0  0  0
   11.1470  -33.6275   19.1302 O   0  0  0  0  0  0  0  0  0  0  0  0
    7.3599  -42.7842   10.8920 C   0  0  0  0  0  0  0  0  0  0  0  0
    8.1141  -43.5778   15.5307 C   0  0  2  0  0  0  0  0  0  0  0  0
    8.1999  -44.6392   14.5168 N   0  0  0  0  0  0  0  0  0  0  0  0
   11.0681  -37.1429   15.1372 C   0  0  2  0  0  0  0  0  0  0  0  0
   12.3529  -37.0209   14.5902 O   0  0  0  0  0  0  0  0  0  0  0  0
   14.9587  -34.6114   15.9677 C   0  0  1  0  0  0  0  0  0  0  0  0
   15.3687  -34.1422   14.6706 O   0  0  0  0  0  0  0  0  0  0  0  0
   11.5667  -31.2976   19.6812 C   0  0  1  0  0  0  0  0  0  0  0  0
   10.8448  -31.7538   20.8322 O   0  0  0  0  0  0  0  0  0  0  0  0
    8.8748  -42.6831   10.5180 C   0  0  2  0  0  0  0  0  0  0  0  0
    9.3197  -43.9005    9.9281 O   0  0  0  0  0  0  0  0  0  0  0  0
    8.4947  -42.2076   14.9036 C   0  0  2  0  0  0  0  0  0  0  0  0
   11.2866  -37.6600   16.5792 C   0  0  2  0  0  0  0  0  0  0  0  0
   10.4482  -38.8056   16.6255 O   0  0  0  0  0  0  0  0  0  0  0  0
   13.9679  -33.4853   16.5714 C   0  0  2  0  0  0  0  0  0  0  0  0
   13.5991  -33.9874   17.8697 O   0  0  0  0  0  0  0  0  0  0  0  0
   12.6405  -30.2829   20.1372 C   0  0  2  0  0  0  0  0  0  0  0  0
   12.0768  -28.9768   19.8865 O   0  0  0  0  0  0  0  0  0  0  0  0
    9.7047  -42.3801   11.7983 C   0  0  2  0  0  0  0  0  0  0  0  0
    9.2233  -41.1027   12.3691 O   0  0  0  0  0  0  0  0  0  0  0  0
    8.4570  -41.0398   15.9361 C   0  0  2  0  0  0  0  0  0  0  0  0
    8.8706  -39.8356   15.2470 O   0  0  0  0  0  0  0  0  0  0  0  0
   10.8510  -36.7025   17.6828 C   0  0  0  0  0  0  0  0  0  0  0  0
   11.1628  -37.3331   18.9343 O   0  0  0  0  0  0  0  0  0  0  0  0
   12.7399  -33.5009   15.6808 C   0  0  1  0  0  0  0  0  0  0  0  0
   12.0446  -34.6941   15.2626 O   0  0  0  0  0  0  0  0  0  0  0  0
   13.9644  -30.5249   19.4171 C   0  0  2  0  0  0  0  0  0  0  0  0
   14.4435  -31.8972   19.4681 O   0  0  0  0  0  0  0  0  0  0  0  0
   11.1635  -42.2353   11.5016 C   0  0  0  0  0  0  0  0  0  0  0  0
   11.3226  -41.1523   10.6256 O   0  0  0  0  0  0  0  0  0  0  0  0
    9.4050  -41.3602   17.1490 C   0  0  1  0  0  0  0  0  0  0  0  0
    9.3040  -40.2647   18.1232 O   0  0  0  0  0  0  0  0  0  0  0  0
   11.6286  -32.4920   16.1410 C   0  0  0  0  0  0  0  0  0  0  0  0
   10.3198  -33.1333   16.4150 N   0  0  0  0  0  0  0  0  0  0  0  0
   15.2002  -29.6698   19.6877 C   0  0  0  0  0  0  0  0  0  0  0  0
   14.9062  -28.2597   19.4431 O   0  0  0  0  0  0  0  0  0  0  0  0
  1  2  1  1  0  0  0
  1  8  1  0  0  0  0
  1 36  1  0  0  0  0
  3  4  1  1  0  0  0
  3 10  1  0  0  0  0
  3 47  1  0  0  0  0
  5 11  1  0  0  0  0
  5 30  1  0  0  0  0
  5 38  1  1  0  0  0
  6 21  1  1  0  0  0
  6 42  1  0  0  0  0
  7 15  1  0  0  0  0
  7 44  1  0  0  0  0
  7 32  1  6  0  0  0
  8  9  1  1  0  0  0
  8 17  1  0  0  0  0
 11 12  1  6  0  0  0
 11 20  1  0  0  0  0
 13  6  1  0  0  0  0
 13 14  1  1  0  0  0
 15 16  1  1  0  0  0
 15 24  1  0  0  0  0
 17 26  1  0  0  0  0
 18 10  1  0  0  0  0
 18 19  1  6  0  0  0
 20 21  1  6  0  0  0
 20 29  1  0  0  0  0
 22 13  1  0  0  0  0
 22 23  1  6  0  0  0
 24 25  1  1  0  0  0
 24 33  1  0  0  0  0
 26 27  1  1  0  0  0
 26 35  1  0  0  0  0
 28  2  1  6  0  0  0
 28 18  1  0  0  0  0
 29 30  1  0  0  0  0
 29 39  1  1  0  0  0
 31 22  1  0  0  0  0
 31 32  1  1  0  0  0
 31 41  1  0  0  0  0
 33 34  1  6  0  0  0
 33 43  1  0  0  0  0
 35 36  1  0  0  0  0
 35 45  1  6  0  0  0
 37 28  1  0  0  0  0
 37 38  1  6  0  0  0
 39 40  1  0  0  0  0
 41 42  1  0  0  0  0
 41 49  1  1  0  0  0
 43 44  1  0  0  0  0
 43 51  1  1  0  0  0
 45 46  1  0  0  0  0
 47 37  1  0  0  0  0
 47 48  1  1  0  0  0
 49 50  1  0  0  0  0
 51 52  1  0  0  0  0
M  END
>  <CHROM.1>
160.83612935,174.37183638,110.65315918,83.05367291,152.34776799,-161.47488109
-178.42857132,137.57933589,61.56062111,-99.45353926,-122.49571422,-57.02114826
10.97748068,-37.37306428,15.91210052,-2.32870433,1.02775406,1.15206644

>  <Name>
2fd0_lig

>  <RI>
0

>  <Rbt.Current_Directory>
/home/itssahil/PROJECTS/Mol_Feturizer/New_Systems/rnas/2fd0

>  <Rbt.Executable>
rbdock ($Id: //depot/dev/client3/rdock/2013.1/src/exe/rbdock.cxx#4 $)

>  <Rbt.Library>
libRbt.so (2013.1, Build901 2013/11/27)

>  <Rbt.Parameter_File>
/export/apps/rDock/src/rDock_2013.1_src/data/scripts/dock_solv.prm

>  <Rbt.Receptor>
prm/blind_docking_100.prm

>  <SCORE>
-3.5887

>  <SCORE.INTER>
-16.553

>  <SCORE.INTER.CONST>
1

>  <SCORE.INTER.POLAR>
-0.733789

>  <SCORE.INTER.ROT>
12

>  <SCORE.INTER.SOLV>
26.8587

>  <SCORE.INTER.VDW>
-29.1423

>  <SCORE.INTER.norm>
-0.318328

>  <SCORE.INTRA>
10.0322

>  <SCORE.INTRA.DIHEDRAL>
7.57969

>  <SCORE.INTRA.DIHEDRAL.0>
23.9727

>  <SCORE.INTRA.POLAR>
0

>  <SCORE.INTRA.POLAR.0>
0

>  <SCORE.INTRA.REPUL>
0

>  <SCORE.INTRA.REPUL.0>
0

>  <SCORE.INTRA.SOLV>
4.58452

>  <SCORE.INTRA.SOLV.lig_0>
-115.028

>  <SCORE.INTRA.VDW>
3.95011

>  <SCORE.INTRA.VDW.0>
-6.82393

>  <SCORE.INTRA.norm>
0.192927

>  <SCORE.RESTR>
2.93213

>  <SCORE.RESTR.CAVITY>
2.93213

>  <SCORE.RESTR.norm>
0.0563871

>  <SCORE.SYSTEM>
0

>  <SCORE.SYSTEM.CONST>
0

>  <SCORE.SYSTEM.DIHEDRAL>
0

>  <SCORE.SYSTEM.SOLV>
0

>  <SCORE.SYSTEM.norm>
0

>  <SCORE.heavy>
52

>  <SCORE.norm>
-0.0690135

>  <RMSD>
19.247

$$$$
2fd0_lig
 OpenBabel11021811433D
libRbt.so/2013.1/901 2013/11/27
 52 56  0  0  0  0  0  0  0  0999 V2000
   11.1955  -24.8390    9.6028 C   0  0  2  0  0  0  0  0  0  0  0  0
   11.1132  -23.7332    8.6932 O   0  0  0  0  0  0  0  0  0  0  0  0
    7.7539  -22.9904    6.0369 C   0  0  2  0  0  0  0  0  0  0  0  0
    6.9127  -22.9353    4.8301 N   0  0  0  0  0  0  0  0  0  0  0  0
    9.4626  -26.9150    6.9940 C   0  0  1  0  0  0  0  0  0  0  0  0
   11.9009  -28.0509    3.3267 C   0  0  1  0  0  0  0  0  0  0  0  0
   10.6852  -25.6991    0.4681 C   0  0  1  0  0  0  0  0  0  0  0  0
   11.9030  -24.3518   10.9194 C   0  0  2  0  0  0  0  0  0  0  0  0
   11.2080  -23.2234   11.5231 N   0  0  0  0  0  0  0  0  0  0  0  0
    9.1204  -22.2116    5.7934 C   0  0  0  0  0  0  0  0  0  0  0  0
   10.4411  -26.3887    5.9599 C   0  0  2  0  0  0  0  0  0  0  0  0
    9.7712  -25.6964    4.8689 O   0  0  0  0  0  0  0  0  0  0  0  0
   12.6260  -26.6298    3.4454 C   0  0  2  0  0  0  0  0  0  0  0  0
   11.6288  -25.5274    3.3718 N   0  0  0  0  0  0  0  0  0  0  0  0
   10.4554  -24.4094    1.2875 C   0  0  1  0  0  0  0  0  0  0  0  0
   10.8702  -23.2677    0.4973 O   0  0  0  0  0  0  0  0  0  0  0  0
   13.4127  -24.0100   10.6357 C   0  0  0  0  0  0  0  0  0  0  0  0
   10.0299  -22.2635    7.1123 C   0  0  2  0  0  0  0  0  0  0  0  0
   11.3013  -21.5525    6.9128 N   0  0  0  0  0  0  0  0  0  0  0  0
   11.2319  -27.6286    5.5782 C   0  0  2  0  0  0  0  0  0  0  0  0
   10.8928  -28.0784    4.2947 O   0  0  0  0  0  0  0  0  0  0  0  0
   13.7921  -26.5892    2.3275 C   0  0  1  0  0  0  0  0  0  0  0  0
   14.6648  -27.7106    2.5553 O   0  0  0  0  0  0  0  0  0  0  0  0
    9.0175  -24.1390    1.8075 C   0  0  1  0  0  0  0  0  0  0  0  0
    8.3448  -23.3223    0.8408 O   0  0  0  0  0  0  0  0  0  0  0  0
   14.0949  -25.2649    9.9996 C   0  0  2  0  0  0  0  0  0  0  0  0
   15.4710  -25.0019    9.7437 O   0  0  0  0  0  0  0  0  0  0  0  0
   10.3003  -23.7476    7.4865 C   0  0  2  0  0  0  0  0  0  0  0  0
   10.8363  -28.7815    6.5316 C   0  0  2  0  0  0  0  0  0  0  0  0
   10.0153  -28.1235    7.4858 O   0  0  0  0  0  0  0  0  0  0  0  0
   13.2001  -26.7641    0.8330 C   0  0  2  0  0  0  0  0  0  0  0  0
   12.3509  -25.6165    0.6445 O   0  0  0  0  0  0  0  0  0  0  0  0
    8.1517  -25.3878    2.0929 C   0  0  2  0  0  0  0  0  0  0  0  0
    7.4449  -25.1024    3.3198 O   0  0  0  0  0  0  0  0  0  0  0  0
   13.3698  -25.6314    8.6731 C   0  0  2  0  0  0  0  0  0  0  0  0
   11.9510  -25.9126    8.9849 O   0  0  0  0  0  0  0  0  0  0  0  0
    8.9898  -24.5699    7.6797 C   0  0  2  0  0  0  0  0  0  0  0  0
    9.3716  -25.9342    7.9782 O   0  0  0  0  0  0  0  0  0  0  0  0
   11.9977  -29.4375    7.2700 C   0  0  0  0  0  0  0  0  0  0  0  0
   11.9439  -28.9800    8.6298 O   0  0  0  0  0  0  0  0  0  0  0  0
   12.3303  -28.0061    0.8803 C   0  0  1  0  0  0  0  0  0  0  0  0
   11.3554  -28.2866    1.9064 O   0  0  0  0  0  0  0  0  0  0  0  0
    9.0117  -26.6469    2.1625 C   0  0  2  0  0  0  0  0  0  0  0  0
    9.9028  -26.8393    1.0292 O   0  0  0  0  0  0  0  0  0  0  0  0
   13.9539  -26.8494    8.0308 C   0  0  0  0  0  0  0  0  0  0  0  0
   15.3507  -26.7430    8.0889 O   0  0  0  0  0  0  0  0  0  0  0  0
    8.1073  -24.4932    6.3805 C   0  0  1  0  0  0  0  0  0  0  0  0
    6.8608  -25.2344    6.6177 O   0  0  0  0  0  0  0  0  0  0  0  0
   11.6222  -28.3182   -0.4856 C   0  0  0  0  0  0  0  0  0  0  0  0
   11.3631  -29.7618   -0.7050 N   0  0  0  0  0  0  0  0  0  0  0  0
    8.4079  -28.0252    2.4225 C   0  0  0  0  0  0  0  0  0  0  0  0
    8.2492  -28.7556    1.1672 O   0  0  0  0  0  0  0  0  0  0  0  0
  1  2  1  6  0  0  0
  1  8  1  0  0  0  0
  1 36  1  0  0  0  0
  3  4  1  6  0  0  0
  3 10  1  0  0  0  0
  3 47  1  0  0  0  0
  5 11  1  0  0  0  0
  5 30  1  0  0  0  0
  5 38  1  1  0  0  0
  6 21  1  1  0  0  0
  6 42  1  0  0  0  0
  7 15  1  0  0  0  0
  7 44  1  0  0  0  0
  7 32  1  1  0  0  0
  8  9  1  6  0  0  0
  8 17  1  0  0  0  0
 11 12  1  6  0  0  0
 11 20  1  0  0  0  0
 13  6  1  0  0  0  0
 13 14  1  6  0  0  0
 15 16  1  6  0  0  0
 15 24  1  0  0  0  0
 17 26  1  0  0  0  0
 18 10  1  0  0  0  0
 18 19  1  6  0  0  0
 20 21  1  6  0  0  0
 20 29  1  0  0  0  0
 22 13  1  0  0  0  0
 22 23  1  1  0  0  0
 24 25  1  6  0  0  0
 24 33  1  0  0  0  0
 26 27  1  6  0  0  0
 26 35  1  0  0  0  0
 28  2  1  1  0  0  0
 28 18  1  0  0  0  0
 29 30  1  0  0  0  0
 29 39  1  1  0  0  0
 31 22  1  0  0  0  0
 31 32  1  1  0  0  0
 31 41  1  0  0  0  0
 33 34  1  1  0  0  0
 33 43  1  0  0  0  0
 35 36  1  0  0  0  0
 35 45  1  1  0  0  0
 37 28  1  0  0  0  0
 37 38  1  6  0  0  0
 39 40  1  0  0  0  0
 41 42  1  0  0  0  0
 41 49  1  6  0  0  0
 43 44  1  0  0  0  0
 43 51  1  6  0  0  0
 45 46  1  0  0  0  0
 47 37  1  0  0  0  0
 47 48  1  1  0  0  0
 49 50  1  0  0  0  0
 51 52  1  0  0  0  0
M  END
>  <CHROM.1>
-167.91759792,56.57293515,-45.68081182,142.35053330,116.28645954,157.85619948
105.49755831,-113.96811211,-43.98625785,-94.83970778,150.73402178,99.24869263
10.88175229,-25.87820977,5.07511527,1.34721880,-0.66631833,1.22142687

>  <Name>
2fd0_lig

>  <RI>
0

>  <Rbt.Current_Directory>
/home/itssahil/PROJECTS/Mol_Feturizer/New_Systems/rnas/2fd0

>  <Rbt.Executable>
rbdock ($Id: //depot/dev/client3/rdock/2013.1/src/exe/rbdock.cxx#4 $)

>  <Rbt.Library>
libRbt.so (2013.1, Build901 2013/11/27)

>  <Rbt.Parameter_File>
/export/apps/rDock/src/rDock_2013.1_src/data/scripts/dock_solv.prm

>  <Rbt.Receptor>
prm/blind_docking_40.prm

>  <SCORE>
41.3669

>  <SCORE.INTER>
0.251132

>  <SCORE.INTER.CONST>
1

>  <SCORE.INTER.POLAR>
-1.70893

>  <SCORE.INTER.ROT>
12

>  <SCORE.INTER.SOLV>
19.216

>  <SCORE.INTER.VDW>
-12.1415

>  <SCORE.INTER.norm>
0.00482946

>  <SCORE.INTRA>
23.5953

>  <SCORE.INTRA.DIHEDRAL>
15.2257

>  <SCORE.INTRA.DIHEDRAL.0>
23.9727

>  <SCORE.INTRA.POLAR>
0

>  <SCORE.INTRA.POLAR.0>
0

>  <SCORE.INTRA.REPUL>
0

>  <SCORE.INTRA.REPUL.0>
0

>  <SCORE.INTRA.SOLV>
9.36548

>  <SCORE.INTRA.SOLV.lig_0>
-115.028

>  <SCORE.INTRA.VDW>
11.2998

>  <SCORE.INTRA.VDW.0>
-6.82393

>  <SCORE.INTRA.norm>
0.453757

>  <SCORE.RESTR>
17.5205

>  <SCORE.RESTR.CAVITY>
17.5205

>  <SCORE.RESTR.norm>
0.336932

>  <SCORE.SYSTEM>
0

>  <SCORE.SYSTEM.CONST>
0

>  <SCORE.SYSTEM.DIHEDRAL>
0

>  <SCORE.SYSTEM.SOLV>
0

>  <SCORE.SYSTEM.norm>
0

>  <SCORE.heavy>
52

>  <SCORE.norm>
0.795518

>  <RMSD>
26.085

$$$$
2fd0_lig
 OpenBabel11021811433D
libRbt.so/2013.1/901 2013/11/27
 52 56  0  0  0  0  0  0  0  0999 V2000
   10.4344  -24.7118    9.2720 C   0  0  2  0  0  0  0  0  0  0  0  0
   10.6089  -24.1375    7.9694 O   0  0  0  0  0  0  0  0  0  0  0  0
    7.4988  -21.1107    7.7294 C   0  0  2  0  0  0  0  0  0  0  0  0
    6.5791  -20.0916    7.1977 N   0  0  0  0  0  0  0  0  0  0  0  0
    8.4897  -25.0961    5.6193 C   0  0  1  0  0  0  0  0  0  0  0  0
    8.6440  -25.5426    2.3648 C   0  0  1  0  0  0  0  0  0  0  0  0
   11.7948  -27.7723   -0.2139 C   0  0  1  0  0  0  0  0  0  0  0  0
   11.8200  -24.6969   10.0147 C   0  0  2  0  0  0  0  0  0  0  0  0
   12.3747  -23.3532   10.1012 N   0  0  0  0  0  0  0  0  0  0  0  0
    9.0084  -20.6937    7.4462 C   0  0  0  0  0  0  0  0  0  0  0  0
    7.8442  -24.0440    4.7361 C   0  0  2  0  0  0  0  0  0  0  0  0
    6.6205  -24.5238    4.1112 O   0  0  0  0  0  0  0  0  0  0  0  0
   10.1338  -26.1255    2.3504 C   0  0  2  0  0  0  0  0  0  0  0  0
   10.9541  -25.4355    1.3178 N   0  0  0  0  0  0  0  0  0  0  0  0
   11.7604  -29.2813    0.1173 C   0  0  1  0  0  0  0  0  0  0  0  0
   11.3272  -30.0124   -1.0565 O   0  0  0  0  0  0  0  0  0  0  0  0
   12.8249  -25.6883    9.3192 C   0  0  0  0  0  0  0  0  0  0  0  0
   10.0081  -21.7993    8.0358 C   0  0  2  0  0  0  0  0  0  0  0  0
   11.4113  -21.4389    7.7848 N   0  0  0  0  0  0  0  0  0  0  0  0
    8.9691  -23.6569    3.7910 C   0  0  2  0  0  0  0  0  0  0  0  0
    8.7484  -24.1552    2.4995 O   0  0  0  0  0  0  0  0  0  0  0  0
   10.0218  -27.7298    2.1926 C   0  0  1  0  0  0  0  0  0  0  0  0
    9.2111  -28.2266    3.2729 O   0  0  0  0  0  0  0  0  0  0  0  0
   13.0733  -29.9307    0.6325 C   0  0  1  0  0  0  0  0  0  0  0  0
   13.7718  -30.4700   -0.4968 O   0  0  0  0  0  0  0  0  0  0  0  0
   12.1692  -27.1069    9.2701 C   0  0  2  0  0  0  0  0  0  0  0  0
   13.0570  -28.0401    8.6625 O   0  0  0  0  0  0  0  0  0  0  0  0
    9.6854  -23.1749    7.3884 C   0  0  2  0  0  0  0  0  0  0  0  0
   10.2749  -24.3341    4.2713 C   0  0  2  0  0  0  0  0  0  0  0  0
    9.8890  -24.8977    5.5167 O   0  0  0  0  0  0  0  0  0  0  0  0
    9.2704  -28.1494    0.8239 C   0  0  2  0  0  0  0  0  0  0  0  0
   10.1223  -27.6490   -0.2237 O   0  0  0  0  0  0  0  0  0  0  0  0
   14.0312  -29.0008    1.4125 C   0  0  2  0  0  0  0  0  0  0  0  0
   14.5271  -29.7875    2.5178 O   0  0  0  0  0  0  0  0  0  0  0  0
   10.8415  -27.0355    8.4628 C   0  0  2  0  0  0  0  0  0  0  0  0
    9.9436  -26.0703    9.1349 O   0  0  0  0  0  0  0  0  0  0  0  0
    8.1995  -23.6027    7.5886 C   0  0  2  0  0  0  0  0  0  0  0  0
    8.0147  -24.8671    6.9081 O   0  0  0  0  0  0  0  0  0  0  0  0
   11.4432  -23.3856    4.5161 C   0  0  0  0  0  0  0  0  0  0  0  0
   12.4115  -24.1033    5.2963 O   0  0  0  0  0  0  0  0  0  0  0  0
    7.9743  -27.3610    0.8104 C   0  0  1  0  0  0  0  0  0  0  0  0
    7.8683  -25.9513    1.0992 O   0  0  0  0  0  0  0  0  0  0  0  0
   13.3214  -27.7204    1.8444 C   0  0  2  0  0  0  0  0  0  0  0  0
   12.6207  -27.0229    0.7777 O   0  0  0  0  0  0  0  0  0  0  0  0
   10.1443  -28.3577    8.4089 C   0  0  0  0  0  0  0  0  0  0  0  0
    8.8225  -28.1348    7.9980 O   0  0  0  0  0  0  0  0  0  0  0  0
    7.2375  -22.4981    7.0167 C   0  0  1  0  0  0  0  0  0  0  0  0
    5.8499  -22.9107    7.2693 O   0  0  0  0  0  0  0  0  0  0  0  0
    7.1158  -27.6033   -0.4814 C   0  0  0  0  0  0  0  0  0  0  0  0
    6.6695  -29.0082   -0.6441 N   0  0  0  0  0  0  0  0  0  0  0  0
   14.0399  -26.6210    2.6234 C   0  0  0  0  0  0  0  0  0  0  0  0
   13.0870  -25.6056    3.0655 O   0  0  0  0  0  0  0  0  0  0  0  0
  1  2  1  6  0  0  0
  1  8  1  0  0  0  0
  1 36  1  0  0  0  0
  3  4  1  6  0  0  0
  3 10  1  0  0  0  0
  3 47  1  0  0  0  0
  5 11  1  0  0  0  0
  5 30  1  0  0  0  0
  5 38  1  1  0  0  0
  6 21  1  6  0  0  0
  6 42  1  0  0  0  0
  7 15  1  0  0  0  0
  7 44  1  0  0  0  0
  7 32  1  1  0  0  0
  8  9  1  6  0  0  0
  8 17  1  0  0  0  0
 11 12  1  6  0  0  0
 11 20  1  0  0  0  0
 13  6  1  0  0  0  0
 13 14  1  6  0  0  0
 15 16  1  6  0  0  0
 15 24  1  0  0  0  0
 17 26  1  0  0  0  0
 18 10  1  0  0  0  0
 18 19  1  6  0  0  0
 20 21  1  6  0  0  0
 20 29  1  0  0  0  0
 22 13  1  0  0  0  0
 22 23  1  1  0  0  0
 24 25  1  6  0  0  0
 24 33  1  0  0  0  0
 26 27  1  6  0  0  0
 26 35  1  0  0  0  0
 28  2  1  1  0  0  0
 28 18  1  0  0  0  0
 29 30  1  0  0  0  0
 29 39  1  1  0  0  0
 31 22  1  0  0  0  0
 31 32  1  6  0  0  0
 31 41  1  0  0  0  0
 33 34  1  1  0  0  0
 33 43  1  0  0  0  0
 35 36  1  0  0  0  0
 35 45  1  1  0  0  0
 37 28  1  0  0  0  0
 37 38  1  6  0  0  0
 39 40  1  0  0  0  0
 41 42  1  0  0  0  0
 41 49  1  6  0  0  0
 43 44  1  0  0  0  0
 43 51  1  6  0  0  0
 45 46  1  0  0  0  0
 47 37  1  0  0  0  0
 47 48  1  1  0  0  0
 49 50  1  0  0  0  0
 51 52  1  0  0  0  0
M  END
>  <CHROM.1>
-135.71949287,-58.22639827,-80.43553461,49.53341444,-60.04686137,78.68809662
163.99604168,42.65125892,164.17714100,-45.97387121,62.22173189,-172.08258842
10.25023857,-25.79975910,4.54450680,-1.80559548,0.60512253,-2.01476414

>  <Name>
2fd0_lig

>  <RI>
0

>  <Rbt.Current_Directory>
/home/itssahil/PROJECTS/Mol_Feturizer/New_Systems/rnas/2fd0

>  <Rbt.Executable>
rbdock ($Id: //depot/dev/client3/rdock/2013.1/src/exe/rbdock.cxx#4 $)

>  <Rbt.Library>
libRbt.so (2013.1, Build901 2013/11/27)

>  <Rbt.Parameter_File>
/export/apps/rDock/src/rDock_2013.1_src/data/scripts/dock_solv.prm

>  <Rbt.Receptor>
prm/blind_docking_40.prm

>  <SCORE>
25.9272

>  <SCORE.INTER>
-3.77508

>  <SCORE.INTER.CONST>
1

>  <SCORE.INTER.POLAR>
0

>  <SCORE.INTER.ROT>
12

>  <SCORE.INTER.SOLV>
12.3516

>  <SCORE.INTER.VDW>
-18.2339

>  <SCORE.INTER.norm>
-0.0725977

>  <SCORE.INTRA>
7.65253

>  <SCORE.INTRA.DIHEDRAL>
-8.03534

>  <SCORE.INTRA.DIHEDRAL.0>
23.9727

>  <SCORE.INTRA.POLAR>
0

>  <SCORE.INTRA.POLAR.0>
0

>  <SCORE.INTRA.REPUL>
0

>  <SCORE.INTRA.REPUL.0>
0

>  <SCORE.INTRA.SOLV>
6.91694

>  <SCORE.INTRA.SOLV.lig_0>
-115.028

>  <SCORE.INTRA.VDW>
8.21173

>  <SCORE.INTRA.VDW.0>
-6.82393

>  <SCORE.INTRA.norm>
0.147164

>  <SCORE.RESTR>
22.0498

>  <SCORE.RESTR.CAVITY>
22.0498

>  <SCORE.RESTR.norm>
0.424034

>  <SCORE.SYSTEM>
0

>  <SCORE.SYSTEM.CONST>
0

>  <SCORE.SYSTEM.DIHEDRAL>
0

>  <SCORE.SYSTEM.SOLV>
0

>  <SCORE.SYSTEM.norm>
0

>  <SCORE.heavy>
52

>  <SCORE.norm>
0.4986

>  <RMSD>
26.363

$$$$
2fd0_lig
 OpenBabel11021811433D
libRbt.so/2013.1/901 2013/11/27
 52 56  0  0  0  0  0  0  0  0999 V2000
   13.2653  -26.9631    8.9841 C   0  0  2  0  0  0  0  0  0  0  0  0
   13.1744  -25.5533    8.7367 O   0  0  0  0  0  0  0  0  0  0  0  0
   11.9539  -23.8868   12.5610 C   0  0  2  0  0  0  0  0  0  0  0  0
   11.4718  -22.9451   13.5847 N   0  0  0  0  0  0  0  0  0  0  0  0
   10.1579  -24.3389    8.3190 C   0  0  1  0  0  0  0  0  0  0  0  0
    8.6631  -24.0173    4.0662 C   0  0  1  0  0  0  0  0  0  0  0  0
   11.2063  -26.8950    1.5727 C   0  0  1  0  0  0  0  0  0  0  0  0
   14.0368  -27.6318    7.7887 C   0  0  2  0  0  0  0  0  0  0  0  0
   15.3555  -27.0441    7.5976 N   0  0  0  0  0  0  0  0  0  0  0  0
   13.2475  -23.3040   11.8400 C   0  0  0  0  0  0  0  0  0  0  0  0
    9.7768  -25.1101    7.0686 C   0  0  2  0  0  0  0  0  0  0  0  0
   10.9294  -25.4074    6.2312 O   0  0  0  0  0  0  0  0  0  0  0  0
    9.1078  -25.5427    3.8801 C   0  0  2  0  0  0  0  0  0  0  0  0
   10.5804  -25.6810    4.0473 N   0  0  0  0  0  0  0  0  0  0  0  0
   12.6353  -26.3072    1.5831 C   0  0  1  0  0  0  0  0  0  0  0  0
   12.8128  -25.5188    2.7859 O   0  0  0  0  0  0  0  0  0  0  0  0
   13.1788  -27.5551    6.4717 C   0  0  0  0  0  0  0  0  0  0  0  0
   13.7770  -24.3359   10.7336 C   0  0  2  0  0  0  0  0  0  0  0  0
   14.9717  -23.8194   10.0497 N   0  0  0  0  0  0  0  0  0  0  0  0
    8.7049  -24.2340    6.4424 C   0  0  2  0  0  0  0  0  0  0  0  0
    9.1781  -23.5872    5.2924 O   0  0  0  0  0  0  0  0  0  0  0  0
    8.5179  -26.0471    2.4629 C   0  0  1  0  0  0  0  0  0  0  0  0
    7.0921  -25.8530    2.4811 O   0  0  0  0  0  0  0  0  0  0  0  0
   13.8202  -27.3056    1.4818 C   0  0  1  0  0  0  0  0  0  0  0  0
   14.2363  -27.6335    2.8136 O   0  0  0  0  0  0  0  0  0  0  0  0
   11.7861  -28.2102    6.7475 C   0  0  2  0  0  0  0  0  0  0  0  0
   10.9837  -28.1772    5.5714 O   0  0  0  0  0  0  0  0  0  0  0  0
   12.6447  -24.6031    9.7030 C   0  0  2  0  0  0  0  0  0  0  0  0
    8.3523  -23.0984    7.4327 C   0  0  2  0  0  0  0  0  0  0  0  0
    9.0720  -23.4726    8.5987 O   0  0  0  0  0  0  0  0  0  0  0  0
    9.0850  -25.1706    1.2282 C   0  0  2  0  0  0  0  0  0  0  0  0
   10.5052  -25.4086    1.2388 O   0  0  0  0  0  0  0  0  0  0  0  0
   13.5408  -28.6164    0.7108 C   0  0  2  0  0  0  0  0  0  0  0  0
   14.7241  -28.8662   -0.0790 O   0  0  0  0  0  0  0  0  0  0  0  0
   11.0724  -27.4437    7.8977 C   0  0  2  0  0  0  0  0  0  0  0  0
   11.9291  -27.5161    9.1020 O   0  0  0  0  0  0  0  0  0  0  0  0
   11.3333  -25.1221   10.3678 C   0  0  2  0  0  0  0  0  0  0  0  0
   10.3496  -25.2889    9.3188 O   0  0  0  0  0  0  0  0  0  0  0  0
    6.8752  -22.9915    7.7950 C   0  0  0  0  0  0  0  0  0  0  0  0
    6.7410  -21.8763    8.6891 O   0  0  0  0  0  0  0  0  0  0  0  0
    8.8350  -23.7227    1.6054 C   0  0  1  0  0  0  0  0  0  0  0  0
    9.1423  -23.1449    2.8915 O   0  0  0  0  0  0  0  0  0  0  0  0
   12.2652  -28.5026   -0.1197 C   0  0  2  0  0  0  0  0  0  0  0  0
   11.1003  -28.0339    0.6142 O   0  0  0  0  0  0  0  0  0  0  0  0
    9.7453  -28.0450    8.2355 C   0  0  0  0  0  0  0  0  0  0  0  0
    9.9232  -29.4264    8.3966 O   0  0  0  0  0  0  0  0  0  0  0  0
   10.8405  -24.1024   11.4587 C   0  0  1  0  0  0  0  0  0  0  0  0
    9.6352  -24.6483   12.0980 O   0  0  0  0  0  0  0  0  0  0  0  0
    9.3663  -22.7037    0.5359 C   0  0  0  0  0  0  0  0  0  0  0  0
   10.8383  -22.5259    0.5636 N   0  0  0  0  0  0  0  0  0  0  0  0
   11.7496  -29.6597   -0.9725 C   0  0  0  0  0  0  0  0  0  0  0  0
   10.4962  -29.2903   -1.6259 O   0  0  0  0  0  0  0  0  0  0  0  0
  1  2  1  6  0  0  0
  1  8  1  0  0  0  0
  1 36  1  0  0  0  0
  3  4  1  1  0  0  0
  3 10  1  0  0  0  0
  3 47  1  0  0  0  0
  5 11  1  0  0  0  0
  5 30  1  0  0  0  0
  5 38  1  1  0  0  0
  6 21  1  1  0  0  0
  6 42  1  0  0  0  0
  7 15  1  0  0  0  0
  7 44  1  0  0  0  0
  7 32  1  6  0  0  0
  8  9  1  6  0  0  0
  8 17  1  0  0  0  0
 11 12  1  6  0  0  0
 11 20  1  0  0  0  0
 13  6  1  0  0  0  0
 13 14  1  6  0  0  0
 15 16  1  1  0  0  0
 15 24  1  0  0  0  0
 17 26  1  0  0  0  0
 18 10  1  0  0  0  0
 18 19  1  6  0  0  0
 20 21  1  6  0  0  0
 20 29  1  0  0  0  0
 22 13  1  0  0  0  0
 22 23  1  1  0  0  0
 24 25  1  1  0  0  0
 24 33  1  0  0  0  0
 26 27  1  6  0  0  0
 26 35  1  0  0  0  0
 28  2  1  6  0  0  0
 28 18  1  0  0  0  0
 29 30  1  0  0  0  0
 29 39  1  1  0  0  0
 31 22  1  0  0  0  0
 31 32  1  1  0  0  0
 31 41  1  0  0  0  0
 33 34  1  6  0  0  0
 33 43  1  0  0  0  0
 35 36  1  0  0  0  0
 35 45  1  1  0  0  0
 37 28  1  0  0  0  0
 37 38  1  6  0  0  0
 39 40  1  0  0  0  0
 41 42  1  0  0  0  0
 41 49  1  6  0  0  0
 43 44  1  0  0  0  0
 43 51  1  1  0  0  0
 45 46  1  0  0  0  0
 47 37  1  0  0  0  0
 47 48  1  1  0  0  0
 49 50  1  0  0  0  0
 51 52  1  0  0  0  0
M  END
>  <CHROM.1>
-173.44447506,146.52856907,-63.25204903,-172.82773943,109.58701779,79.20820378
-178.75468566,38.64498788,49.25546949,-44.09827839,-76.07277488,178.31350870
11.03330198,-25.71219662,5.67984424,-1.57677307,0.66644050,-1.81155977

>  <Name>
2fd0_lig

>  <RI>
0

>  <Rbt.Current_Directory>
/home/itssahil/PROJECTS/Mol_Feturizer/New_Systems/rnas/2fd0

>  <Rbt.Executable>
rbdock ($Id: //depot/dev/client3/rdock/2013.1/src/exe/rbdock.cxx#4 $)

>  <Rbt.Library>
libRbt.so (2013.1, Build901 2013/11/27)

>  <Rbt.Parameter_File>
/export/apps/rDock/src/rDock_2013.1_src/data/scripts/dock_solv.prm

>  <Rbt.Receptor>
prm/blind_docking_40.prm

>  <SCORE>
25.3512

>  <SCORE.INTER>
-5.32606

>  <SCORE.INTER.CONST>
1

>  <SCORE.INTER.POLAR>
-1.31407

>  <SCORE.INTER.ROT>
12

>  <SCORE.INTER.SOLV>
30.2499

>  <SCORE.INTER.VDW>
-20.8538

>  <SCORE.INTER.norm>
-0.102424

>  <SCORE.INTRA>
8.09574

>  <SCORE.INTRA.DIHEDRAL>
-5.08361

>  <SCORE.INTRA.DIHEDRAL.0>
23.9727

>  <SCORE.INTRA.POLAR>
0

>  <SCORE.INTRA.POLAR.0>
0

>  <SCORE.INTRA.REPUL>
0.244624

>  <SCORE.INTRA.REPUL.0>
0

>  <SCORE.INTRA.SOLV>
4.71858

>  <SCORE.INTRA.SOLV.lig_0>
-115.028

>  <SCORE.INTRA.VDW>
7.05514

>  <SCORE.INTRA.VDW.0>
-6.82393

>  <SCORE.INTRA.norm>
0.155687

>  <SCORE.RESTR>
22.5815

>  <SCORE.RESTR.CAVITY>
22.5815

>  <SCORE.RESTR.norm>
0.43426

>  <SCORE.SYSTEM>
0

>  <SCORE.SYSTEM.CONST>
0

>  <SCORE.SYSTEM.DIHEDRAL>
0

>  <SCORE.SYSTEM.SOLV>
0

>  <SCORE.SYSTEM.norm>
0

>  <SCORE.heavy>
52

>  <SCORE.norm>
0.487523

>  <RMSD>
26.380

$$$$
2fd0_lig
 OpenBabel11021811433D
libRbt.so/2013.1/901 2013/11/27
 52 56  0  0  0  0  0  0  0  0999 V2000
   12.7440  -27.3142    9.0985 C   0  0  2  0  0  0  0  0  0  0  0  0
   12.7299  -26.0405    8.4393 O   0  0  0  0  0  0  0  0  0  0  0  0
   11.4235  -23.3046   11.5539 C   0  0  2  0  0  0  0  0  0  0  0  0
   10.9845  -22.0810   12.2446 N   0  0  0  0  0  0  0  0  0  0  0  0
    9.8149  -24.5635    7.4602 C   0  0  1  0  0  0  0  0  0  0  0  0
    9.1841  -23.3379    4.4099 C   0  0  1  0  0  0  0  0  0  0  0  0
   10.9512  -27.2809    1.3005 C   0  0  1  0  0  0  0  0  0  0  0  0
   13.6470  -28.2971    8.2679 C   0  0  2  0  0  0  0  0  0  0  0  0
   14.9967  -27.7784    8.0946 N   0  0  0  0  0  0  0  0  0  0  0  0
   12.8369  -23.0706   10.8608 C   0  0  0  0  0  0  0  0  0  0  0  0
    8.3939  -24.7463    6.9593 C   0  0  2  0  0  0  0  0  0  0  0  0
    8.2915  -25.8039    5.9648 O   0  0  0  0  0  0  0  0  0  0  0  0
    8.8428  -23.5044    2.8558 C   0  0  2  0  0  0  0  0  0  0  0  0
    7.9230  -24.6553    2.6440 N   0  0  0  0  0  0  0  0  0  0  0  0
   11.9267  -27.7225    2.4145 C   0  0  1  0  0  0  0  0  0  0  0  0
   11.1693  -28.3202    3.4957 O   0  0  0  0  0  0  0  0  0  0  0  0
   12.9747  -28.6198    6.8822 C   0  0  0  0  0  0  0  0  0  0  0  0
   13.3179  -24.4075   10.1188 C   0  0  2  0  0  0  0  0  0  0  0  0
   14.6220  -24.2171    9.4669 N   0  0  0  0  0  0  0  0  0  0  0  0
    8.0165  -23.3509    6.4911 C   0  0  2  0  0  0  0  0  0  0  0  0
    7.9659  -23.2753    5.0924 O   0  0  0  0  0  0  0  0  0  0  0  0
   10.2469  -23.5799    2.0596 C   0  0  1  0  0  0  0  0  0  0  0  0
   10.9968  -22.3911    2.3683 O   0  0  0  0  0  0  0  0  0  0  0  0
   13.0636  -28.7045    2.0218 C   0  0  1  0  0  0  0  0  0  0  0  0
   12.6010  -30.0379    2.2716 O   0  0  0  0  0  0  0  0  0  0  0  0
   11.5383  -29.1788    7.1453 C   0  0  2  0  0  0  0  0  0  0  0  0
   10.9010  -29.5013    5.9132 O   0  0  0  0  0  0  0  0  0  0  0  0
   12.2497  -24.8190    9.0674 C   0  0  2  0  0  0  0  0  0  0  0  0
    9.1347  -22.3677    6.9122 C   0  0  2  0  0  0  0  0  0  0  0  0
    9.9682  -23.1802    7.7263 O   0  0  0  0  0  0  0  0  0  0  0  0
   11.1485  -24.8309    2.5457 C   0  0  2  0  0  0  0  0  0  0  0  0
   10.3694  -25.9923    2.2026 O   0  0  0  0  0  0  0  0  0  0  0  0
   13.5637  -28.6166    0.5614 C   0  0  2  0  0  0  0  0  0  0  0  0
   15.0008  -28.7440    0.6312 O   0  0  0  0  0  0  0  0  0  0  0  0
   10.7016  -28.1152    7.9123 C   0  0  2  0  0  0  0  0  0  0  0  0
   11.3877  -27.8215    9.1900 O   0  0  0  0  0  0  0  0  0  0  0  0
   10.8317  -25.0047    9.6883 C   0  0  2  0  0  0  0  0  0  0  0  0
    9.9248  -25.3402    8.6108 O   0  0  0  0  0  0  0  0  0  0  0  0
    8.6696  -21.1760    7.7416 C   0  0  0  0  0  0  0  0  0  0  0  0
    7.8904  -21.6982    8.8285 O   0  0  0  0  0  0  0  0  0  0  0  0
   11.2156  -24.7238    4.0575 C   0  0  1  0  0  0  0  0  0  0  0  0
   10.0797  -24.4842    4.9145 O   0  0  0  0  0  0  0  0  0  0  0  0
   13.0969  -27.3232   -0.1010 C   0  0  2  0  0  0  0  0  0  0  0  0
   11.6706  -27.0615    0.0115 O   0  0  0  0  0  0  0  0  0  0  0  0
    9.3236  -28.6039    8.2273 C   0  0  0  0  0  0  0  0  0  0  0  0
    8.7122  -27.6648    9.0699 O   0  0  0  0  0  0  0  0  0  0  0  0
   10.3866  -23.6874   10.4227 C   0  0  1  0  0  0  0  0  0  0  0  0
    9.0719  -23.9167   11.0380 O   0  0  0  0  0  0  0  0  0  0  0  0
   12.0221  -25.8932    4.7257 C   0  0  0  0  0  0  0  0  0  0  0  0
   11.6753  -26.1167    6.1502 N   0  0  0  0  0  0  0  0  0  0  0  0
   13.4423  -26.9863   -1.5498 C   0  0  0  0  0  0  0  0  0  0  0  0
   12.5518  -25.9442   -2.0554 O   0  0  0  0  0  0  0  0  0  0  0  0
  1  2  1  6  0  0  0
  1  8  1  0  0  0  0
  1 36  1  0  0  0  0
  3  4  1  6  0  0  0
  3 10  1  0  0  0  0
  3 47  1  0  0  0  0
  5 11  1  0  0  0  0
  5 30  1  0  0  0  0
  5 38  1  1  0  0  0
  6 21  1  1  0  0  0
  6 42  1  0  0  0  0
  7 15  1  0  0  0  0
  7 44  1  0  0  0  0
  7 32  1  1  0  0  0
  8  9  1  6  0  0  0
  8 17  1  0  0  0  0
 11 12  1  6  0  0  0
 11 20  1  0  0  0  0
 13  6  1  0  0  0  0
 13 14  1  1  0  0  0
 15 16  1  1  0  0  0
 15 24  1  0  0  0  0
 17 26  1  0  0  0  0
 18 10  1  0  0  0  0
 18 19  1  6  0  0  0
 20 21  1  6  0  0  0
 20 29  1  0  0  0  0
 22 13  1  0  0  0  0
 22 23  1  1  0  0  0
 24 25  1  6  0  0  0
 24 33  1  0  0  0  0
 26 27  1  6  0  0  0
 26 35  1  0  0  0  0
 28  2  1  1  0  0  0
 28 18  1  0  0  0  0
 29 30  1  0  0  0  0
 29 39  1  1  0  0  0
 31 22  1  0  0  0  0
 31 32  1  1  0  0  0
 31 41  1  0  0  0  0
 33 34  1  1  0  0  0
 33 43  1  0  0  0  0
 35 36  1  0  0  0  0
 35 45  1  1  0  0  0
 37 28  1  0  0  0  0
 37 38  1  6  0  0  0
 39 40  1  0  0  0  0
 41 42  1  0  0  0  0
 41 49  1  1  0  0  0
 43 44  1  0  0  0  0
 43 51  1  6  0  0  0
 45 46  1  0  0  0  0
 47 37  1  0  0  0  0
 47 48  1  1  0  0  0
 49 50  1  0  0  0  0
 51 52  1  0  0  0  0
M  END
>  <CHROM.1>
-165.82492450,-151.15856106,169.75059399,67.89296410,-70.77230590,72.47792311
51.26689715,127.28285707,171.99301411,-53.00578318,-157.55301180,162.10393172
11.05800050,-25.69279555,5.78715300,-1.86900219,0.93260653,-1.65825886

>  <Name>
2fd0_lig

>  <RI>
0

>  <Rbt.Current_Directory>
/home/itssahil/PROJECTS/Mol_Feturizer/New_Systems/rnas/2fd0

>  <Rbt.Executable>
rbdock ($Id: //depot/dev/client3/rdock/2013.1/src/exe/rbdock.cxx#4 $)

>  <Rbt.Library>
libRbt.so (2013.1, Build901 2013/11/27)

>  <Rbt.Parameter_File>
/export/apps/rDock/src/rDock_2013.1_src/data/scripts/dock_solv.prm

>  <Rbt.Receptor>
prm/blind_docking_40.prm

>  <SCORE>
22.0629

>  <SCORE.INTER>
-7.94253

>  <SCORE.INTER.CONST>
1

>  <SCORE.INTER.POLAR>
-1.18362

>  <SCORE.INTER.ROT>
12

>  <SCORE.INTER.SOLV>
20.5174

>  <SCORE.INTER.VDW>
-19.7888

>  <SCORE.INTER.norm>
-0.152741

>  <SCORE.INTRA>
10.7648

>  <SCORE.INTRA.DIHEDRAL>
-6.71264

>  <SCORE.INTRA.DIHEDRAL.0>
23.9727

>  <SCORE.INTRA.POLAR>
0

>  <SCORE.INTRA.POLAR.0>
0

>  <SCORE.INTRA.REPUL>
0.663023

>  <SCORE.INTRA.REPUL.0>
0

>  <SCORE.INTRA.SOLV>
11.1309

>  <SCORE.INTRA.SOLV.lig_0>
-115.028

>  <SCORE.INTRA.VDW>
5.24059

>  <SCORE.INTRA.VDW.0>
-6.82393

>  <SCORE.INTRA.norm>
0.207016

>  <SCORE.RESTR>
19.2406

>  <SCORE.RESTR.CAVITY>
19.2406

>  <SCORE.RESTR.norm>
0.370012

>  <SCORE.SYSTEM>
0

>  <SCORE.SYSTEM.CONST>
0

>  <SCORE.SYSTEM.DIHEDRAL>
0

>  <SCORE.SYSTEM.SOLV>
0

>  <SCORE.SYSTEM.norm>
0

>  <SCORE.heavy>
52

>  <SCORE.norm>
0.424287

>  <RMSD>
26.408

$$$$
2fd0_lig
 OpenBabel11021811433D
libRbt.so/2013.1/901 2013/11/27
 52 56  0  0  0  0  0  0  0  0999 V2000
   11.6522  -27.0144    9.4443 C   0  0  2  0  0  0  0  0  0  0  0  0
   10.4481  -26.2410    9.5392 O   0  0  0  0  0  0  0  0  0  0  0  0
    8.8585  -22.3962   10.7974 C   0  0  2  0  0  0  0  0  0  0  0  0
    8.7790  -21.0046   11.2710 N   0  0  0  0  0  0  0  0  0  0  0  0
    9.9668  -23.7044    6.4358 C   0  0  1  0  0  0  0  0  0  0  0  0
    8.5343  -23.6515    3.3813 C   0  0  1  0  0  0  0  0  0  0  0  0
   10.9773  -27.2489    0.4718 C   0  0  1  0  0  0  0  0  0  0  0  0
   12.6100  -26.3229    8.4070 C   0  0  2  0  0  0  0  0  0  0  0  0
   12.8977  -24.9425    8.7707 N   0  0  0  0  0  0  0  0  0  0  0  0
    9.6365  -23.2958   11.8549 C   0  0  0  0  0  0  0  0  0  0  0  0
    8.6865  -24.5096    6.3094 C   0  0  2  0  0  0  0  0  0  0  0  0
    8.8979  -25.7785    5.6288 O   0  0  0  0  0  0  0  0  0  0  0  0
    7.9666  -24.0053    1.9280 C   0  0  2  0  0  0  0  0  0  0  0  0
    7.4010  -25.3820    1.9098 N   0  0  0  0  0  0  0  0  0  0  0  0
   11.2209  -27.7577    1.9104 C   0  0  1  0  0  0  0  0  0  0  0  0
   10.0104  -28.3858    2.4003 O   0  0  0  0  0  0  0  0  0  0  0  0
   12.0081  -26.4200    6.9563 C   0  0  0  0  0  0  0  0  0  0  0  0
    9.7121  -24.8126   11.3423 C   0  0  2  0  0  0  0  0  0  0  0  0
   10.4295  -25.6656   12.3013 N   0  0  0  0  0  0  0  0  0  0  0  0
    7.7389  -23.5365    5.6283 C   0  0  2  0  0  0  0  0  0  0  0  0
    7.5047  -23.8973    4.2942 O   0  0  0  0  0  0  0  0  0  0  0  0
    9.1523  -23.7259    0.8665 C   0  0  1  0  0  0  0  0  0  0  0  0
    9.5661  -22.3554    1.0136 O   0  0  0  0  0  0  0  0  0  0  0  0
   12.3991  -28.7449    2.1300 C   0  0  1  0  0  0  0  0  0  0  0  0
   11.8816  -30.0781    2.0351 O   0  0  0  0  0  0  0  0  0  0  0  0
   11.7344  -27.9248    6.6318 C   0  0  2  0  0  0  0  0  0  0  0  0
   11.2046  -28.0576    5.3165 O   0  0  0  0  0  0  0  0  0  0  0  0
   10.4219  -24.8484    9.9600 C   0  0  2  0  0  0  0  0  0  0  0  0
    8.4183  -22.1479    5.5618 C   0  0  2  0  0  0  0  0  0  0  0  0
    9.5909  -22.3415    6.3395 O   0  0  0  0  0  0  0  0  0  0  0  0
   10.4559  -24.6341    1.1666 C   0  0  2  0  0  0  0  0  0  0  0  0
   10.0002  -25.9888    0.9914 O   0  0  0  0  0  0  0  0  0  0  0  0
   13.5939  -28.6044    1.1587 C   0  0  2  0  0  0  0  0  0  0  0  0
   14.7786  -28.7638    1.9694 O   0  0  0  0  0  0  0  0  0  0  0  0
   10.7297  -28.5034    7.6688 C   0  0  2  0  0  0  0  0  0  0  0  0
   11.3240  -28.3615    9.0165 O   0  0  0  0  0  0  0  0  0  0  0  0
    9.7298  -23.9357    8.9022 C   0  0  2  0  0  0  0  0  0  0  0  0
   10.5035  -24.0198    7.6814 O   0  0  0  0  0  0  0  0  0  0  0  0
    7.6178  -21.0059    6.1779 C   0  0  0  0  0  0  0  0  0  0  0  0
    8.5491  -19.9576    6.4860 O   0  0  0  0  0  0  0  0  0  0  0  0
   10.7760  -24.4180    2.6337 C   0  0  1  0  0  0  0  0  0  0  0  0
    9.8051  -24.4602    3.7003 O   0  0  0  0  0  0  0  0  0  0  0  0
   13.5396  -27.2745    0.4117 C   0  0  2  0  0  0  0  0  0  0  0  0
   12.2671  -26.9890   -0.2323 O   0  0  0  0  0  0  0  0  0  0  0  0
   10.4525  -29.9543    7.4344 C   0  0  0  0  0  0  0  0  0  0  0  0
   10.3335  -30.1555    6.0520 O   0  0  0  0  0  0  0  0  0  0  0  0
    9.6535  -22.4570    9.4315 C   0  0  1  0  0  0  0  0  0  0  0  0
    8.9508  -21.6389    8.4333 O   0  0  0  0  0  0  0  0  0  0  0  0
   12.0013  -25.2640    3.1310 C   0  0  0  0  0  0  0  0  0  0  0  0
   12.3733  -24.9994    4.5420 N   0  0  0  0  0  0  0  0  0  0  0  0
   14.5954  -26.8826   -0.6196 C   0  0  0  0  0  0  0  0  0  0  0  0
   14.8342  -27.9860   -1.5470 O   0  0  0  0  0  0  0  0  0  0  0  0
  1  2  1  6  0  0  0
  1  8  1  0  0  0  0
  1 36  1  0  0  0  0
  3  4  1  1  0  0  0
  3 10  1  0  0  0  0
  3 47  1  0  0  0  0
  5 11  1  0  0  0  0
  5 30  1  0  0  0  0
  5 38  1  1  0  0  0
  6 21  1  1  0  0  0
  6 42  1  0  0  0  0
  7 15  1  0  0  0  0
  7 44  1  0  0  0  0
  7 32  1  1  0  0  0
  8  9  1  1  0  0  0
  8 17  1  0  0  0  0
 11 12  1  6  0  0  0
 11 20  1  0  0  0  0
 13  6  1  0  0  0  0
 13 14  1  1  0  0  0
 15 16  1  6  0  0  0
 15 24  1  0  0  0  0
 17 26  1  0  0  0  0
 18 10  1  0  0  0  0
 18 19  1  1  0  0  0
 20 21  1  6  0  0  0
 20 29  1  0  0  0  0
 22 13  1  0  0  0  0
 22 23  1  1  0  0  0
 24 25  1  6  0  0  0
 24 33  1  0  0  0  0
 26 27  1  6  0  0  0
 26 35  1  0  0  0  0
 28  2  1  6  0  0  0
 28 18  1  0  0  0  0
 29 30  1  0  0  0  0
 29 39  1  1  0  0  0
 31 22  1  0  0  0  0
 31 32  1  1  0  0  0
 31 41  1  0  0  0  0
 33 34  1  1  0  0  0
 33 43  1  0  0  0  0
 35 36  1  0  0  0  0
 35 45  1  6  0  0  0
 37 28  1  0  0  0  0
 37 38  1  6  0  0  0
 39 40  1  0  0  0  0
 41 42  1  0  0  0  0
 41 49  1  1  0  0  0
 43 44  1  0  0  0  0
 43 51  1  6  0  0  0
 45 46  1  0  0  0  0
 47 37  1  0  0  0  0
 47 48  1  6  0  0  0
 49 50  1  0  0  0  0
 51 52  1  0  0  0  0
M  END
>  <CHROM.1>
-60.12923381,-52.00204032,-174.25026627,98.21254282,-74.62100276,-111.76114059
158.67840809,149.90589866,-40.94931647,158.49673148,176.53708496,47.48643834
10.53006025,-25.45609083,5.25216236,-2.11115426,1.03400235,-1.50087834

>  <Name>
2fd0_lig

>  <RI>
0

>  <Rbt.Current_Directory>
/home/itssahil/PROJECTS/Mol_Feturizer/New_Systems/rnas/2fd0

>  <Rbt.Executable>
rbdock ($Id: //depot/dev/client3/rdock/2013.1/src/exe/rbdock.cxx#4 $)

>  <Rbt.Library>
libRbt.so (2013.1, Build901 2013/11/27)

>  <Rbt.Parameter_File>
/export/apps/rDock/src/rDock_2013.1_src/data/scripts/dock_solv.prm

>  <Rbt.Receptor>
prm/blind_docking_40.prm

>  <SCORE>
45.7439

>  <SCORE.INTER>
16.3944

>  <SCORE.INTER.CONST>
1

>  <SCORE.INTER.POLAR>
-0.803472

>  <SCORE.INTER.ROT>
12

>  <SCORE.INTER.SOLV>
22.5028

>  <SCORE.INTER.VDW>
-5.49312

>  <SCORE.INTER.norm>
0.315276

>  <SCORE.INTRA>
11.6918

>  <SCORE.INTRA.DIHEDRAL>
-0.318258

>  <SCORE.INTRA.DIHEDRAL.0>
23.9727

>  <SCORE.INTRA.POLAR>
0

>  <SCORE.INTRA.POLAR.0>
0

>  <SCORE.INTRA.REPUL>
0.0297935

>  <SCORE.INTRA.REPUL.0>
0

>  <SCORE.INTRA.SOLV>
8.13324

>  <SCORE.INTRA.SOLV.lig_0>
-115.028

>  <SCORE.INTRA.VDW>
7.63539

>  <SCORE.INTRA.VDW.0>
-6.82393

>  <SCORE.INTRA.norm>
0.224843

>  <SCORE.RESTR>
17.6577

>  <SCORE.RESTR.CAVITY>
17.6577

>  <SCORE.RESTR.norm>
0.339572

>  <SCORE.SYSTEM>
0

>  <SCORE.SYSTEM.CONST>
0

>  <SCORE.SYSTEM.DIHEDRAL>
0

>  <SCORE.SYSTEM.SOLV>
0

>  <SCORE.SYSTEM.norm>
0

>  <SCORE.heavy>
52

>  <SCORE.norm>
0.879691

>  <RMSD>
26.608

$$$$
2fd0_lig
 OpenBabel11021811433D
libRbt.so/2013.1/901 2013/11/27
 52 56  0  0  0  0  0  0  0  0999 V2000
   10.0074  -26.9812    7.6703 C   0  0  2  0  0  0  0  0  0  0  0  0
   10.4044  -26.2997    8.8682 O   0  0  0  0  0  0  0  0  0  0  0  0
   12.9324  -23.0141   10.1747 C   0  0  2  0  0  0  0  0  0  0  0  0
   14.0857  -22.1109   10.3195 N   0  0  0  0  0  0  0  0  0  0  0  0
    9.8404  -23.0835    6.6025 C   0  0  1  0  0  0  0  0  0  0  0  0
    7.5697  -22.6281    2.9696 C   0  0  1  0  0  0  0  0  0  0  0  0
    9.4282  -27.0363    0.8257 C   0  0  1  0  0  0  0  0  0  0  0  0
   10.6841  -28.4001    7.6548 C   0  0  2  0  0  0  0  0  0  0  0  0
   10.3448  -29.1760    8.8396 N   0  0  0  0  0  0  0  0  0  0  0  0
   13.3493  -24.5054   10.5426 C   0  0  0  0  0  0  0  0  0  0  0  0
    9.3923  -23.6468    5.2663 C   0  0  2  0  0  0  0  0  0  0  0  0
   10.1909  -23.1420    4.1592 O   0  0  0  0  0  0  0  0  0  0  0  0
    6.6341  -23.9223    2.8748 C   0  0  2  0  0  0  0  0  0  0  0  0
    7.1202  -24.9861    3.7954 N   0  0  0  0  0  0  0  0  0  0  0  0
   10.0052  -27.3937    2.2139 C   0  0  1  0  0  0  0  0  0  0  0  0
    8.9898  -28.0837    2.9838 O   0  0  0  0  0  0  0  0  0  0  0  0
   12.2427  -28.2619    7.4871 C   0  0  0  0  0  0  0  0  0  0  0  0
   12.0892  -25.4851   10.3949 C   0  0  2  0  0  0  0  0  0  0  0  0
   12.4486  -26.8716   10.7269 N   0  0  0  0  0  0  0  0  0  0  0  0
    7.9123  -23.3048    5.2323 C   0  0  2  0  0  0  0  0  0  0  0  0
    7.6446  -22.2749    4.3200 O   0  0  0  0  0  0  0  0  0  0  0  0
    6.5441  -24.3386    1.3161 C   0  0  1  0  0  0  0  0  0  0  0  0
    6.0480  -23.2048    0.5817 O   0  0  0  0  0  0  0  0  0  0  0  0
   11.3017  -28.2474    2.2513 C   0  0  1  0  0  0  0  0  0  0  0  0
   10.9202  -29.6251    2.3546 O   0  0  0  0  0  0  0  0  0  0  0  0
   12.5313  -27.4292    6.1955 C   0  0  2  0  0  0  0  0  0  0  0  0
   13.9354  -27.2966    5.9975 O   0  0  0  0  0  0  0  0  0  0  0  0
   11.5507  -25.4064    8.9390 C   0  0  2  0  0  0  0  0  0  0  0  0
    7.5020  -22.7420    6.6141 C   0  0  2  0  0  0  0  0  0  0  0  0
    8.6710  -22.9549    7.3924 O   0  0  0  0  0  0  0  0  0  0  0  0
    7.9985  -24.6842    0.7000 C   0  0  2  0  0  0  0  0  0  0  0  0
    8.4456  -25.8292    1.4502 O   0  0  0  0  0  0  0  0  0  0  0  0
   12.2579  -28.0847    1.0473 C   0  0  2  0  0  0  0  0  0  0  0  0
   13.5902  -28.0651    1.6051 O   0  0  0  0  0  0  0  0  0  0  0  0
   11.8798  -26.0231    6.3301 C   0  0  2  0  0  0  0  0  0  0  0  0
   10.4233  -26.2049    6.5172 O   0  0  0  0  0  0  0  0  0  0  0  0
   11.1815  -23.9537    8.5096 C   0  0  2  0  0  0  0  0  0  0  0  0
   10.7392  -24.0058    7.1320 O   0  0  0  0  0  0  0  0  0  0  0  0
    6.3400  -23.4636    7.2874 C   0  0  0  0  0  0  0  0  0  0  0  0
    6.5444  -24.8702    7.0852 O   0  0  0  0  0  0  0  0  0  0  0  0
    8.8826  -23.5021    1.0502 C   0  0  1  0  0  0  0  0  0  0  0  0
    8.9568  -22.8911    2.3553 O   0  0  0  0  0  0  0  0  0  0  0  0
   11.9155  -26.8352    0.2403 C   0  0  2  0  0  0  0  0  0  0  0  0
   10.5175  -26.7231   -0.1450 O   0  0  0  0  0  0  0  0  0  0  0  0
   12.0898  -25.1868    5.1080 C   0  0  0  0  0  0  0  0  0  0  0  0
   11.2892  -25.7089    4.0822 O   0  0  0  0  0  0  0  0  0  0  0  0
   12.4267  -23.0080    8.6762 C   0  0  1  0  0  0  0  0  0  0  0  0
   12.0276  -21.6413    8.3126 O   0  0  0  0  0  0  0  0  0  0  0  0
   10.3668  -23.6751    0.5690 C   0  0  0  0  0  0  0  0  0  0  0  0
   11.1002  -22.3936    0.4301 N   0  0  0  0  0  0  0  0  0  0  0  0
   12.6978  -26.4408   -1.0104 C   0  0  0  0  0  0  0  0  0  0  0  0
   13.0416  -27.6276   -1.7902 O   0  0  0  0  0  0  0  0  0  0  0  0
  1  2  1  1  0  0  0
  1  8  1  0  0  0  0
  1 36  1  0  0  0  0
  3  4  1  6  0  0  0
  3 10  1  0  0  0  0
  3 47  1  0  0  0  0
  5 11  1  0  0  0  0
  5 30  1  0  0  0  0
  5 38  1  1  0  0  0
  6 21  1  1  0  0  0
  6 42  1  0  0  0  0
  7 15  1  0  0  0  0
  7 44  1  0  0  0  0
  7 32  1  1  0  0  0
  8  9  1  1  0  0  0
  8 17  1  0  0  0  0
 11 12  1  6  0  0  0
 11 20  1  0  0  0  0
 13  6  1  0  0  0  0
 13 14  1  1  0  0  0
 15 16  1  1  0  0  0
 15 24  1  0  0  0  0
 17 26  1  0  0  0  0
 18 10  1  0  0  0  0
 18 19  1  6  0  0  0
 20 21  1  6  0  0  0
 20 29  1  0  0  0  0
 22 13  1  0  0  0  0
 22 23  1  6  0  0  0
 24 25  1  6  0  0  0
 24 33  1  0  0  0  0
 26 27  1  1  0  0  0
 26 35  1  0  0  0  0
 28  2  1  1  0  0  0
 28 18  1  0  0  0  0
 29 30  1  0  0  0  0
 29 39  1  1  0  0  0
 31 22  1  0  0  0  0
 31 32  1  1  0  0  0
 31 41  1  0  0  0  0
 33 34  1  1  0  0  0
 33 43  1  0  0  0  0
 35 36  1  0  0  0  0
 35 45  1  6  0  0  0
 37 28  1  0  0  0  0
 37 38  1  6  0  0  0
 39 40  1  0  0  0  0
 41 42  1  0  0  0  0
 41 49  1  1  0  0  0
 43 44  1  0  0  0  0
 43 51  1  6  0  0  0
 45 46  1  0  0  0  0
 47 37  1  0  0  0  0
 47 48  1  1  0  0  0
 49 50  1  0  0  0  0
 51 52  1  0  0  0  0
M  END
>  <CHROM.1>
92.93013451,-167.44084484,47.38324128,153.35248974,79.65314059,-150.49783108
41.91881558,148.30912954,71.66997756,152.36244810,158.21171490,38.80466726
10.32500093,-25.25115572,4.78871643,-1.29397206,0.76292830,-1.87984623

>  <Name>
2fd0_lig

>  <RI>
0

>  <Rbt.Current_Directory>
/home/itssahil/PROJECTS/Mol_Feturizer/New_Systems/rnas/2fd0

>  <Rbt.Executable>
rbdock ($Id: //depot/dev/client3/rdock/2013.1/src/exe/rbdock.cxx#4 $)

>  <Rbt.Library>
libRbt.so (2013.1, Build901 2013/11/27)

>  <Rbt.Parameter_File>
/export/apps/rDock/src/rDock_2013.1_src/data/scripts/dock_solv.prm

>  <Rbt.Receptor>
prm/blind_docking_40.prm

>  <SCORE>
41.9944

>  <SCORE.INTER>
0.448347

>  <SCORE.INTER.CONST>
1

>  <SCORE.INTER.POLAR>
-1.50623

>  <SCORE.INTER.ROT>
12

>  <SCORE.INTER.SOLV>
29.7969

>  <SCORE.INTER.VDW>
-16.2126

>  <SCORE.INTER.norm>
0.00862206

>  <SCORE.INTRA>
19.5059

>  <SCORE.INTRA.DIHEDRAL>
2.27343

>  <SCORE.INTRA.DIHEDRAL.0>
23.9727

>  <SCORE.INTRA.POLAR>
0

>  <SCORE.INTRA.POLAR.0>
0

>  <SCORE.INTRA.REPUL>
0

>  <SCORE.INTRA.REPUL.0>
0

>  <SCORE.INTRA.SOLV>
5.49305

>  <SCORE.INTRA.SOLV.lig_0>
-115.028

>  <SCORE.INTRA.VDW>
15.6226

>  <SCORE.INTRA.VDW.0>
-6.82393

>  <SCORE.INTRA.norm>
0.375113

>  <SCORE.RESTR>
22.0401

>  <SCORE.RESTR.CAVITY>
22.0401

>  <SCORE.RESTR.norm>
0.423849

>  <SCORE.SYSTEM>
0

>  <SCORE.SYSTEM.CONST>
0

>  <SCORE.SYSTEM.DIHEDRAL>
0

>  <SCORE.SYSTEM.SOLV>
0

>  <SCORE.SYSTEM.norm>
0

>  <SCORE.heavy>
52

>  <SCORE.norm>
0.807584

>  <RMSD>
26.653

$$$$
2fd0_lig
 OpenBabel11021811433D
libRbt.so/2013.1/901 2013/11/27
 52 56  0  0  0  0  0  0  0  0999 V2000
   11.0500  -24.3941    9.8246 C   0  0  2  0  0  0  0  0  0  0  0  0
   11.3091  -23.6260    8.6415 O   0  0  0  0  0  0  0  0  0  0  0  0
    7.8782  -20.9810    8.2877 C   0  0  2  0  0  0  0  0  0  0  0  0
    6.8927  -20.0374    7.7350 N   0  0  0  0  0  0  0  0  0  0  0  0
    9.5497  -24.6233    6.0069 C   0  0  1  0  0  0  0  0  0  0  0  0
    9.9348  -26.5892    1.9231 C   0  0  1  0  0  0  0  0  0  0  0  0
   12.8942  -29.5928   -0.6352 C   0  0  1  0  0  0  0  0  0  0  0  0
   12.3955  -25.0573   10.2948 C   0  0  2  0  0  0  0  0  0  0  0  0
   13.4366  -24.0660   10.5277 N   0  0  0  0  0  0  0  0  0  0  0  0
    9.3430  -20.3652    8.1980 C   0  0  0  0  0  0  0  0  0  0  0  0
    9.4024  -26.0563    5.5288 C   0  0  2  0  0  0  0  0  0  0  0  0
   10.5627  -26.8701    5.8599 O   0  0  0  0  0  0  0  0  0  0  0  0
    9.4204  -28.1038    1.8956 C   0  0  2  0  0  0  0  0  0  0  0  0
   10.3849  -28.9952    2.5960 N   0  0  0  0  0  0  0  0  0  0  0  0
   13.5550  -28.7191    0.4546 C   0  0  1  0  0  0  0  0  0  0  0  0
   13.5052  -29.4243    1.7196 O   0  0  0  0  0  0  0  0  0  0  0  0
   12.8616  -26.1454    9.2578 C   0  0  0  0  0  0  0  0  0  0  0  0
   10.4128  -21.3897    8.8104 C   0  0  2  0  0  0  0  0  0  0  0  0
   11.7767  -20.8451    8.7372 N   0  0  0  0  0  0  0  0  0  0  0  0
    9.1030  -25.8915    4.0484 C   0  0  2  0  0  0  0  0  0  0  0  0
   10.1974  -26.2700    3.2584 O   0  0  0  0  0  0  0  0  0  0  0  0
    9.1166  -28.4814    0.3542 C   0  0  1  0  0  0  0  0  0  0  0  0
    8.1631  -27.5319   -0.1559 O   0  0  0  0  0  0  0  0  0  0  0  0
   15.0195  -28.2625    0.2147 C   0  0  1  0  0  0  0  0  0  0  0  0
   15.8876  -29.2186    0.8363 O   0  0  0  0  0  0  0  0  0  0  0  0
   11.7024  -27.1769    9.0654 C   0  0  2  0  0  0  0  0  0  0  0  0
   12.0923  -28.1914    8.1452 O   0  0  0  0  0  0  0  0  0  0  0  0
   10.3318  -22.7345    8.0355 C   0  0  2  0  0  0  0  0  0  0  0  0
    8.8863  -24.3885    3.7510 C   0  0  2  0  0  0  0  0  0  0  0  0
    8.8874  -23.8146    5.0503 O   0  0  0  0  0  0  0  0  0  0  0  0
   10.4366  -28.3485   -0.5700 C   0  0  2  0  0  0  0  0  0  0  0  0
   11.3511  -29.3242   -0.0357 O   0  0  0  0  0  0  0  0  0  0  0  0
   15.4448  -28.0904   -1.2619 C   0  0  2  0  0  0  0  0  0  0  0  0
   16.2460  -26.8892   -1.3013 O   0  0  0  0  0  0  0  0  0  0  0  0
   10.4372  -26.4411    8.5384 C   0  0  2  0  0  0  0  0  0  0  0  0
   10.0568  -25.4096    9.5287 O   0  0  0  0  0  0  0  0  0  0  0  0
    8.8999  -23.3512    8.0447 C   0  0  2  0  0  0  0  0  0  0  0  0
    8.9441  -24.5668    7.2595 O   0  0  0  0  0  0  0  0  0  0  0  0
    7.5619  -24.0468    3.0774 C   0  0  0  0  0  0  0  0  0  0  0  0
    6.5171  -24.5463    3.9259 O   0  0  0  0  0  0  0  0  0  0  0  0
   10.9918  -26.9640   -0.2936 C   0  0  1  0  0  0  0  0  0  0  0  0
   11.1685  -26.3982    1.0220 O   0  0  0  0  0  0  0  0  0  0  0  0
   14.2272  -28.0425   -2.1810 C   0  0  2  0  0  0  0  0  0  0  0  0
   13.2847  -29.1356   -2.0010 O   0  0  0  0  0  0  0  0  0  0  0  0
    9.2773  -27.3697    8.3666 C   0  0  0  0  0  0  0  0  0  0  0  0
    9.6700  -28.6408    8.8088 O   0  0  0  0  0  0  0  0  0  0  0  0
    7.8656  -22.3247    7.4537 C   0  0  1  0  0  0  0  0  0  0  0  0
    6.5236  -22.9191    7.5264 O   0  0  0  0  0  0  0  0  0  0  0  0
   12.3188  -26.6616   -1.0759 C   0  0  0  0  0  0  0  0  0  0  0  0
   12.1055  -25.9312   -2.3488 N   0  0  0  0  0  0  0  0  0  0  0  0
   14.3618  -27.8887   -3.6943 C   0  0  0  0  0  0  0  0  0  0  0  0
   15.3295  -26.8421   -4.0147 O   0  0  0  0  0  0  0  0  0  0  0  0
  1  2  1  6  0  0  0
  1  8  1  0  0  0  0
  1 36  1  0  0  0  0
  3  4  1  6  0  0  0
  3 10  1  0  0  0  0
  3 47  1  0  0  0  0
  5 11  1  0  0  0  0
  5 30  1  0  0  0  0
  5 38  1  1  0  0  0
  6 21  1  1  0  0  0
  6 42  1  0  0  0  0
  7 15  1  0  0  0  0
  7 44  1  0  0  0  0
  7 32  1  6  0  0  0
  8  9  1  6  0  0  0
  8 17  1  0  0  0  0
 11 12  1  6  0  0  0
 11 20  1  0  0  0  0
 13  6  1  0  0  0  0
 13 14  1  6  0  0  0
 15 16  1  1  0  0  0
 15 24  1  0  0  0  0
 17 26  1  0  0  0  0
 18 10  1  0  0  0  0
 18 19  1  6  0  0  0
 20 21  1  6  0  0  0
 20 29  1  0  0  0  0
 22 13  1  0  0  0  0
 22 23  1  6  0  0  0
 24 25  1  6  0  0  0
 24 33  1  0  0  0  0
 26 27  1  6  0  0  0
 26 35  1  0  0  0  0
 28  2  1  1  0  0  0
 28 18  1  0  0  0  0
 29 30  1  0  0  0  0
 29 39  1  1  0  0  0
 31 22  1  0  0  0  0
 31 32  1  1  0  0  0
 31 41  1  0  0  0  0
 33 34  1  1  0  0  0
 33 43  1  0  0  0  0
 35 36  1  0  0  0  0
 35 45  1  1  0  0  0
 37 28  1  0  0  0  0
 37 38  1  6  0  0  0
 39 40  1  0  0  0  0
 41 42  1  0  0  0  0
 41 49  1  1  0  0  0
 43 44  1  0  0  0  0
 43 51  1  6  0  0  0
 45 46  1  0  0  0  0
 47 37  1  0  0  0  0
 47 48  1  1  0  0  0
 49 50  1  0  0  0  0
 51 52  1  0  0  0  0
M  END
>  <CHROM.1>
-171.51049939,179.22565273,-82.00133505,98.46087083,159.53487841,83.05767157
56.81247385,-179.63062662,3.07258292,-46.96787597,95.62094181,-45.43285861
10.95276625,-25.95777565,4.06647101,-1.96538554,0.60317793,-1.77087933

>  <Name>
2fd0_lig

>  <RI>
0

>  <Rbt.Current_Directory>
/home/itssahil/PROJECTS/Mol_Feturizer/New_Systems/rnas/2fd0

>  <Rbt.Executable>
rbdock ($Id: //depot/dev/client3/rdock/2013.1/src/exe/rbdock.cxx#4 $)

>  <Rbt.Library>
libRbt.so (2013.1, Build901 2013/11/27)

>  <Rbt.Parameter_File>
/export/apps/rDock/src/rDock_2013.1_src/data/scripts/dock_solv.prm

>  <Rbt.Receptor>
prm/blind_docking_40.prm

>  <SCORE>
34.0796

>  <SCORE.INTER>
-2.06349

>  <SCORE.INTER.CONST>
1

>  <SCORE.INTER.POLAR>
0

>  <SCORE.INTER.ROT>
12

>  <SCORE.INTER.SOLV>
15.9233

>  <SCORE.INTER.VDW>
-18.2834

>  <SCORE.INTER.norm>
-0.0396825

>  <SCORE.INTRA>
12.1576

>  <SCORE.INTRA.DIHEDRAL>
-1.60045

>  <SCORE.INTRA.DIHEDRAL.0>
23.9727

>  <SCORE.INTRA.POLAR>
0

>  <SCORE.INTRA.POLAR.0>
0

>  <SCORE.INTRA.REPUL>
0

>  <SCORE.INTRA.REPUL.0>
0

>  <SCORE.INTRA.SOLV>
3.75296

>  <SCORE.INTRA.SOLV.lig_0>
-115.028

>  <SCORE.INTRA.VDW>
11.0813

>  <SCORE.INTRA.VDW.0>
-6.82393

>  <SCORE.INTRA.norm>
0.2338

>  <SCORE.RESTR>
23.9855

>  <SCORE.RESTR.CAVITY>
23.9855

>  <SCORE.RESTR.norm>
0.46126

>  <SCORE.SYSTEM>
0

>  <SCORE.SYSTEM.CONST>
0

>  <SCORE.SYSTEM.DIHEDRAL>
0

>  <SCORE.SYSTEM.SOLV>
0

>  <SCORE.SYSTEM.norm>
0

>  <SCORE.heavy>
52

>  <SCORE.norm>
0.655377

>  <RMSD>
26.657

$$$$
2fd0_lig
 OpenBabel11021811433D
libRbt.so/2013.1/901 2013/11/27
 52 56  0  0  0  0  0  0  0  0999 V2000
   10.4127  -25.9346    9.7880 C   0  0  2  0  0  0  0  0  0  0  0  0
   10.0630  -25.0783    8.6919 O   0  0  0  0  0  0  0  0  0  0  0  0
   12.2876  -26.6617    5.3101 C   0  0  2  0  0  0  0  0  0  0  0  0
   12.6787  -27.0077    3.9338 N   0  0  0  0  0  0  0  0  0  0  0  0
   10.5719  -22.5720    6.5717 C   0  0  1  0  0  0  0  0  0  0  0  0
    7.9519  -22.7554    3.0455 C   0  0  1  0  0  0  0  0  0  0  0  0
    9.8948  -27.1386    0.8357 C   0  0  1  0  0  0  0  0  0  0  0  0
   10.5633  -25.0544   11.0818 C   0  0  2  0  0  0  0  0  0  0  0  0
    9.3514  -24.2996   11.3686 N   0  0  0  0  0  0  0  0  0  0  0  0
   10.8541  -27.2664    5.6454 C   0  0  0  0  0  0  0  0  0  0  0  0
   10.2205  -23.2451    5.2575 C   0  0  2  0  0  0  0  0  0  0  0  0
   10.8647  -22.6047    4.1203 O   0  0  0  0  0  0  0  0  0  0  0  0
    7.1999  -24.1610    3.1803 C   0  0  2  0  0  0  0  0  0  0  0  0
    7.9709  -25.0831    4.0580 N   0  0  0  0  0  0  0  0  0  0  0  0
   10.5333  -27.5808    2.1715 C   0  0  1  0  0  0  0  0  0  0  0  0
    9.5351  -28.2655    2.9681 O   0  0  0  0  0  0  0  0  0  0  0  0
   11.8131  -24.1062   10.9568 C   0  0  0  0  0  0  0  0  0  0  0  0
   10.4352  -26.8978    7.1480 C   0  0  2  0  0  0  0  0  0  0  0  0
    9.1115  -27.4433    7.4828 N   0  0  0  0  0  0  0  0  0  0  0  0
    8.7012  -23.2264    5.2617 C   0  0  2  0  0  0  0  0  0  0  0  0
    8.1970  -22.2959    4.3426 O   0  0  0  0  0  0  0  0  0  0  0  0
    6.9147  -24.7002    1.6840 C   0  0  1  0  0  0  0  0  0  0  0  0
    6.1547  -23.6961    0.9875 O   0  0  0  0  0  0  0  0  0  0  0  0
   11.7938  -28.4844    2.0972 C   0  0  1  0  0  0  0  0  0  0  0  0
   11.3627  -29.8497    2.1626 O   0  0  0  0  0  0  0  0  0  0  0  0
   13.0735  -24.9824   10.6594 C   0  0  2  0  0  0  0  0  0  0  0  0
   14.2324  -24.1611   10.5569 O   0  0  0  0  0  0  0  0  0  0  0  0
   10.4335  -25.3522    7.3118 C   0  0  2  0  0  0  0  0  0  0  0  0
    8.2157  -22.7356    6.6465 C   0  0  2  0  0  0  0  0  0  0  0  0
    9.4225  -22.6790    7.3934 O   0  0  0  0  0  0  0  0  0  0  0  0
    8.2826  -24.9041    0.8463 C   0  0  2  0  0  0  0  0  0  0  0  0
    8.9988  -25.9243    1.5673 O   0  0  0  0  0  0  0  0  0  0  0  0
   12.6872  -28.3039    0.8483 C   0  0  2  0  0  0  0  0  0  0  0  0
   14.0482  -28.3609    1.3287 O   0  0  0  0  0  0  0  0  0  0  0  0
   12.8587  -25.7641    9.3318 C   0  0  2  0  0  0  0  0  0  0  0  0
   11.6581  -26.6151    9.4860 O   0  0  0  0  0  0  0  0  0  0  0  0
   11.8017  -24.7041    6.9389 C   0  0  2  0  0  0  0  0  0  0  0  0
   11.6600  -23.2710    7.0881 O   0  0  0  0  0  0  0  0  0  0  0  0
    7.2517  -23.6739    7.3640 C   0  0  0  0  0  0  0  0  0  0  0  0
    7.5792  -25.0095    6.9513 O   0  0  0  0  0  0  0  0  0  0  0  0
    9.0414  -23.5970    0.9775 C   0  0  1  0  0  0  0  0  0  0  0  0
    9.2430  -22.8860    2.2168 O   0  0  0  0  0  0  0  0  0  0  0  0
   12.3517  -27.0067    0.1172 C   0  0  2  0  0  0  0  0  0  0  0  0
   10.9401  -26.8236   -0.1818 O   0  0  0  0  0  0  0  0  0  0  0  0
   14.0181  -26.6518    9.0080 C   0  0  0  0  0  0  0  0  0  0  0  0
   15.1472  -25.8412    8.8246 O   0  0  0  0  0  0  0  0  0  0  0  0
   12.1994  -25.0905    5.4674 C   0  0  1  0  0  0  0  0  0  0  0  0
   13.5147  -24.5064    5.1702 O   0  0  0  0  0  0  0  0  0  0  0  0
   10.4367  -23.6164    0.2585 C   0  0  0  0  0  0  0  0  0  0  0  0
   10.9978  -22.2658    0.0126 N   0  0  0  0  0  0  0  0  0  0  0  0
   13.0784  -26.5862   -1.1583 C   0  0  0  0  0  0  0  0  0  0  0  0
   13.2683  -27.7370   -2.0381 O   0  0  0  0  0  0  0  0  0  0  0  0
  1  2  1  6  0  0  0
  1  8  1  0  0  0  0
  1 36  1  0  0  0  0
  3  4  1  6  0  0  0
  3 10  1  0  0  0  0
  3 47  1  0  0  0  0
  5 11  1  0  0  0  0
  5 30  1  0  0  0  0
  5 38  1  1  0  0  0
  6 21  1  1  0  0  0
  6 42  1  0  0  0  0
  7 15  1  0  0  0  0
  7 44  1  0  0  0  0
  7 32  1  1  0  0  0
  8  9  1  6  0  0  0
  8 17  1  0  0  0  0
 11 12  1  6  0  0  0
 11 20  1  0  0  0  0
 13  6  1  0  0  0  0
 13 14  1  1  0  0  0
 15 16  1  1  0  0  0
 15 24  1  0  0  0  0
 17 26  1  0  0  0  0
 18 10  1  0  0  0  0
 18 19  1  6  0  0  0
 20 21  1  6  0  0  0
 20 29  1  0  0  0  0
 22 13  1  0  0  0  0
 22 23  1  6  0  0  0
 24 25  1  6  0  0  0
 24 33  1  0  0  0  0
 26 27  1  6  0  0  0
 26 35  1  0  0  0  0
 28  2  1  1  0  0  0
 28 18  1  0  0  0  0
 29 30  1  0  0  0  0
 29 39  1  1  0  0  0
 31 22  1  0  0  0  0
 31 32  1  1  0  0  0
 31 41  1  0  0  0  0
 33 34  1  1  0  0  0
 33 43  1  0  0  0  0
 35 36  1  0  0  0  0
 35 45  1  1  0  0  0
 37 28  1  0  0  0  0
 37 38  1  6  0  0  0
 39 40  1  0  0  0  0
 41 42  1  0  0  0  0
 41 49  1  1  0  0  0
 43 44  1  0  0  0  0
 43 51  1  6  0  0  0
 45 46  1  0  0  0  0
 47 37  1  0  0  0  0
 47 48  1  1  0  0  0
 49 50  1  0  0  0  0
 51 52  1  0  0  0  0
M  END
>  <CHROM.1>
150.15967199,-36.13773337,45.03491950,169.21393017,90.19103310,32.86318703
30.20144296,141.65008295,-62.53147219,-47.01161478,162.17530502,41.70304298
10.63375055,-25.28039440,4.85133513,-1.44608733,0.65647718,-1.78239931

>  <Name>
2fd0_lig

>  <RI>
0

>  <Rbt.Current_Directory>
/home/itssahil/PROJECTS/Mol_Feturizer/New_Systems/rnas/2fd0

>  <Rbt.Executable>
rbdock ($Id: //depot/dev/client3/rdock/2013.1/src/exe/rbdock.cxx#4 $)

>  <Rbt.Library>
libRbt.so (2013.1, Build901 2013/11/27)

>  <Rbt.Parameter_File>
/export/apps/rDock/src/rDock_2013.1_src/data/scripts/dock_solv.prm

>  <Rbt.Receptor>
prm/blind_docking_40.prm

>  <SCORE>
38.7986

>  <SCORE.INTER>
7.67972

>  <SCORE.INTER.CONST>
1

>  <SCORE.INTER.POLAR>
-0.116693

>  <SCORE.INTER.ROT>
12

>  <SCORE.INTER.SOLV>
29.1798

>  <SCORE.INTER.VDW>
-15.8178

>  <SCORE.INTER.norm>
0.147687

>  <SCORE.INTRA>
20.01

>  <SCORE.INTRA.DIHEDRAL>
1.92232

>  <SCORE.INTRA.DIHEDRAL.0>
23.9727

>  <SCORE.INTRA.POLAR>
0

>  <SCORE.INTRA.POLAR.0>
0

>  <SCORE.INTRA.REPUL>
0

>  <SCORE.INTRA.REPUL.0>
0

>  <SCORE.INTRA.SOLV>
11.0569

>  <SCORE.INTRA.SOLV.lig_0>
-115.028

>  <SCORE.INTRA.VDW>
13.5204

>  <SCORE.INTRA.VDW.0>
-6.82393

>  <SCORE.INTRA.norm>
0.384808

>  <SCORE.RESTR>
11.1088

>  <SCORE.RESTR.CAVITY>
11.1088

>  <SCORE.RESTR.norm>
0.213632

>  <SCORE.SYSTEM>
0

>  <SCORE.SYSTEM.CONST>
0

>  <SCORE.SYSTEM.DIHEDRAL>
0

>  <SCORE.SYSTEM.SOLV>
0

>  <SCORE.SYSTEM.norm>
0

>  <SCORE.heavy>
52

>  <SCORE.norm>
0.746127

>  <RMSD>
26.675

$$$$
2fd0_lig
 OpenBabel11021811433D
libRbt.so/2013.1/901 2013/11/27
 52 56  0  0  0  0  0  0  0  0999 V2000
   12.3925  -24.1994    7.7461 C   0  0  2  0  0  0  0  0  0  0  0  0
   11.5628  -24.1887    6.5764 O   0  0  0  0  0  0  0  0  0  0  0  0
    8.1494  -21.7361    7.6837 C   0  0  2  0  0  0  0  0  0  0  0  0
    6.9904  -20.8330    7.5945 N   0  0  0  0  0  0  0  0  0  0  0  0
    8.7808  -25.1643    4.7539 C   0  0  1  0  0  0  0  0  0  0  0  0
    8.2397  -24.5740    1.1671 C   0  0  1  0  0  0  0  0  0  0  0  0
   11.2277  -28.7385    2.3807 C   0  0  1  0  0  0  0  0  0  0  0  0
   13.3932  -25.4071    7.6383 C   0  0  2  0  0  0  0  0  0  0  0  0
   14.1947  -25.3408    6.4242 N   0  0  0  0  0  0  0  0  0  0  0  0
    9.4442  -21.0340    7.0808 C   0  0  0  0  0  0  0  0  0  0  0  0
    7.8074  -24.0405    4.4486 C   0  0  2  0  0  0  0  0  0  0  0  0
    6.4415  -24.5197    4.2975 O   0  0  0  0  0  0  0  0  0  0  0  0
    7.5767  -25.9968    1.4762 C   0  0  2  0  0  0  0  0  0  0  0  0
    7.7225  -26.3383    2.9175 N   0  0  0  0  0  0  0  0  0  0  0  0
   12.2835  -27.6159    2.4935 C   0  0  1  0  0  0  0  0  0  0  0  0
   12.0135  -26.8315    3.6817 O   0  0  0  0  0  0  0  0  0  0  0  0
   12.6170  -26.7723    7.7388 C   0  0  0  0  0  0  0  0  0  0  0  0
   10.7073  -22.0149    7.1892 C   0  0  2  0  0  0  0  0  0  0  0  0
   11.9179  -21.3903    6.6358 N   0  0  0  0  0  0  0  0  0  0  0  0
    8.4225  -23.3809    3.2258 C   0  0  2  0  0  0  0  0  0  0  0  0
    7.6848  -23.6595    2.0669 O   0  0  0  0  0  0  0  0  0  0  0  0
    8.2149  -27.0607    0.4409 C   0  0  1  0  0  0  0  0  0  0  0  0
    7.9722  -26.5815   -0.8942 O   0  0  0  0  0  0  0  0  0  0  0  0
   13.7771  -28.0392    2.5244 C   0  0  1  0  0  0  0  0  0  0  0  0
   14.1690  -28.1754    3.8963 O   0  0  0  0  0  0  0  0  0  0  0  0
   11.7894  -26.7765    9.0654 C   0  0  2  0  0  0  0  0  0  0  0  0
   11.0845  -28.0063    9.2034 O   0  0  0  0  0  0  0  0  0  0  0  0
   10.3932  -23.3354    6.4320 C   0  0  2  0  0  0  0  0  0  0  0  0
    9.8189  -24.0001    2.9786 C   0  0  2  0  0  0  0  0  0  0  0  0
   10.0030  -24.8129    4.1289 O   0  0  0  0  0  0  0  0  0  0  0  0
    9.8196  -27.1720    0.6043 C   0  0  2  0  0  0  0  0  0  0  0  0
   10.0127  -27.6690    1.9420 O   0  0  0  0  0  0  0  0  0  0  0  0
   14.1295  -29.3444    1.7742 C   0  0  2  0  0  0  0  0  0  0  0  0
   15.3773  -29.0815    1.0957 O   0  0  0  0  0  0  0  0  0  0  0  0
   10.7852  -25.5886    9.0526 C   0  0  2  0  0  0  0  0  0  0  0  0
   11.5572  -24.3327    8.9250 O   0  0  0  0  0  0  0  0  0  0  0  0
    9.0982  -24.0338    6.9480 C   0  0  2  0  0  0  0  0  0  0  0  0
    8.8907  -25.2178    6.1410 O   0  0  0  0  0  0  0  0  0  0  0  0
   10.9673  -22.9997    2.9101 C   0  0  0  0  0  0  0  0  0  0  0  0
   10.8696  -22.3332    1.6422 O   0  0  0  0  0  0  0  0  0  0  0  0
   10.3373  -25.7475    0.5389 C   0  0  1  0  0  0  0  0  0  0  0  0
    9.7748  -24.6357    1.2668 O   0  0  0  0  0  0  0  0  0  0  0  0
   12.9998  -29.7593    0.8355 C   0  0  2  0  0  0  0  0  0  0  0  0
   11.6841  -29.8147    1.4530 O   0  0  0  0  0  0  0  0  0  0  0  0
    9.9849  -25.5151   10.3140 C   0  0  0  0  0  0  0  0  0  0  0  0
   10.8507  -25.1567   11.3569 O   0  0  0  0  0  0  0  0  0  0  0  0
    7.8762  -23.0496    6.8462 C   0  0  1  0  0  0  0  0  0  0  0  0
    6.6876  -23.7226    7.3881 O   0  0  0  0  0  0  0  0  0  0  0  0
   11.8924  -25.6447    0.7269 C   0  0  0  0  0  0  0  0  0  0  0  0
   12.6639  -26.4580   -0.2441 N   0  0  0  0  0  0  0  0  0  0  0  0
   13.0822  -31.0209   -0.0210 C   0  0  0  0  0  0  0  0  0  0  0  0
   11.8950  -31.1415   -0.8638 O   0  0  0  0  0  0  0  0  0  0  0  0
  1  2  1  6  0  0  0
  1  8  1  0  0  0  0
  1 36  1  0  0  0  0
  3  4  1  6  0  0  0
  3 10  1  0  0  0  0
  3 47  1  0  0  0  0
  5 11  1  0  0  0  0
  5 30  1  0  0  0  0
  5 38  1  1  0  0  0
  6 21  1  1  0  0  0
  6 42  1  0  0  0  0
  7 15  1  0  0  0  0
  7 44  1  0  0  0  0
  7 32  1  6  0  0  0
  8  9  1  6  0  0  0
  8 17  1  0  0  0  0
 11 12  1  6  0  0  0
 11 20  1  0  0  0  0
 13  6  1  0  0  0  0
 13 14  1  1  0  0  0
 15 16  1  1  0  0  0
 15 24  1  0  0  0  0
 17 26  1  0  0  0  0
 18 10  1  0  0  0  0
 18 19  1  6  0  0  0
 20 21  1  6  0  0  0
 20 29  1  0  0  0  0
 22 13  1  0  0  0  0
 22 23  1  6  0  0  0
 24 25  1  1  0  0  0
 24 33  1  0  0  0  0
 26 27  1  6  0  0  0
 26 35  1  0  0  0  0
 28  2  1  1  0  0  0
 28 18  1  0  0  0  0
 29 30  1  0  0  0  0
 29 39  1  1  0  0  0
 31 22  1  0  0  0  0
 31 32  1  1  0  0  0
 31 41  1  0  0  0  0
 33 34  1  6  0  0  0
 33 43  1  0  0  0  0
 35 36  1  0  0  0  0
 35 45  1  1  0  0  0
 37 28  1  0  0  0  0
 37 38  1  6  0  0  0
 39 40  1  0  0  0  0
 41 42  1  0  0  0  0
 41 49  1  1  0  0  0
 43 44  1  0  0  0  0
 43 51  1  1  0  0  0
 45 46  1  0  0  0  0
 47 37  1  0  0  0  0
 47 48  1  1  0  0  0
 49 50  1  0  0  0  0
 51 52  1  0  0  0  0
M  END
>  <CHROM.1>
170.35105333,-47.21088553,96.89374840,81.67550088,-106.01370391,33.58666571
-74.56578978,144.02090071,68.29213348,-56.69130516,56.28081897,-177.46215461
10.54182263,-25.60448677,4.29042383,-1.87419498,0.72378652,-1.93897138

>  <Name>
2fd0_lig

>  <RI>
0

>  <Rbt.Current_Directory>
/home/itssahil/PROJECTS/Mol_Feturizer/New_Systems/rnas/2fd0

>  <Rbt.Executable>
rbdock ($Id: //depot/dev/client3/rdock/2013.1/src/exe/rbdock.cxx#4 $)

>  <Rbt.Library>
libRbt.so (2013.1, Build901 2013/11/27)

>  <Rbt.Parameter_File>
/export/apps/rDock/src/rDock_2013.1_src/data/scripts/dock_solv.prm

>  <Rbt.Receptor>
prm/blind_docking_40.prm

>  <SCORE>
73.8794

>  <SCORE.INTER>
8.29288

>  <SCORE.INTER.CONST>
1

>  <SCORE.INTER.POLAR>
0

>  <SCORE.INTER.ROT>
12

>  <SCORE.INTER.SOLV>
17.2138

>  <SCORE.INTER.VDW>
-11.8093

>  <SCORE.INTER.norm>
0.159478

>  <SCORE.INTRA>
44.5961

>  <SCORE.INTRA.DIHEDRAL>
0.586015

>  <SCORE.INTRA.DIHEDRAL.0>
23.9727

>  <SCORE.INTRA.POLAR>
0

>  <SCORE.INTRA.POLAR.0>
0

>  <SCORE.INTRA.REPUL>
0.879154

>  <SCORE.INTRA.REPUL.0>
0

>  <SCORE.INTRA.SOLV>
10.0812

>  <SCORE.INTRA.SOLV.lig_0>
-115.028

>  <SCORE.INTRA.VDW>
34.8667

>  <SCORE.INTRA.VDW.0>
-6.82393

>  <SCORE.INTRA.norm>
0.857618

>  <SCORE.RESTR>
20.9904

>  <SCORE.RESTR.CAVITY>
20.9904

>  <SCORE.RESTR.norm>
0.403661

>  <SCORE.SYSTEM>
0

>  <SCORE.SYSTEM.CONST>
0

>  <SCORE.SYSTEM.DIHEDRAL>
0

>  <SCORE.SYSTEM.SOLV>
0

>  <SCORE.SYSTEM.norm>
0

>  <SCORE.heavy>
52

>  <SCORE.norm>
1.42076

>  <RMSD>
26.676

$$$$
2fd0_lig
 OpenBabel11021811433D
libRbt.so/2013.1/901 2013/11/27
 52 56  0  0  0  0  0  0  0  0999 V2000
   12.7082  -27.0569    9.4025 C   0  0  2  0  0  0  0  0  0  0  0  0
   13.0719  -25.8079    8.7986 O   0  0  0  0  0  0  0  0  0  0  0  0
   13.3274  -23.0739   12.1679 C   0  0  2  0  0  0  0  0  0  0  0  0
   13.4563  -21.8385   12.9580 N   0  0  0  0  0  0  0  0  0  0  0  0
   10.7844  -23.5214    8.3217 C   0  0  1  0  0  0  0  0  0  0  0  0
    9.4301  -23.7726    3.9886 C   0  0  1  0  0  0  0  0  0  0  0  0
   11.3862  -27.1417    0.3567 C   0  0  1  0  0  0  0  0  0  0  0  0
   13.4716  -28.2128    8.6590 C   0  0  2  0  0  0  0  0  0  0  0  0
   14.9141  -28.0149    8.6854 N   0  0  0  0  0  0  0  0  0  0  0  0
   14.5958  -23.2613   11.2250 C   0  0  0  0  0  0  0  0  0  0  0  0
   10.2847  -24.4663    7.2442 C   0  0  2  0  0  0  0  0  0  0  0  0
   11.3722  -25.1679    6.5783 O   0  0  0  0  0  0  0  0  0  0  0  0
    9.4058  -25.3692    4.0875 C   0  0  2  0  0  0  0  0  0  0  0  0
   10.7754  -25.8976    4.3331 N   0  0  0  0  0  0  0  0  0  0  0  0
   12.0330  -28.0647    1.4139 C   0  0  1  0  0  0  0  0  0  0  0  0
   10.9934  -28.8314    2.0706 O   0  0  0  0  0  0  0  0  0  0  0  0
   12.9402  -28.3608    7.1852 C   0  0  0  0  0  0  0  0  0  0  0  0
   14.4583  -24.6126   10.3740 C   0  0  2  0  0  0  0  0  0  0  0  0
   15.6178  -24.8083    9.4913 N   0  0  0  0  0  0  0  0  0  0  0  0
    9.4368  -23.5620    6.3657 C   0  0  2  0  0  0  0  0  0  0  0  0
   10.0656  -23.3005    5.1406 O   0  0  0  0  0  0  0  0  0  0  0  0
    8.6743  -25.9232    2.7575 C   0  0  1  0  0  0  0  0  0  0  0  0
    7.3682  -25.3230    2.6865 O   0  0  0  0  0  0  0  0  0  0  0  0
   13.1267  -29.0535    0.9270 C   0  0  1  0  0  0  0  0  0  0  0  0
   12.4898  -30.3006    0.6211 O   0  0  0  0  0  0  0  0  0  0  0  0
   11.3927  -28.5788    7.2348 C   0  0  2  0  0  0  0  0  0  0  0  0
   10.8740  -28.7360    5.9178 O   0  0  0  0  0  0  0  0  0  0  0  0
   13.1513  -24.5555    9.5349 C   0  0  2  0  0  0  0  0  0  0  0  0
    9.3023  -22.1842    7.0570 C   0  0  2  0  0  0  0  0  0  0  0  0
    9.8961  -22.4174    8.3260 O   0  0  0  0  0  0  0  0  0  0  0  0
    9.4559  -25.4829    1.4124 C   0  0  2  0  0  0  0  0  0  0  0  0
   10.7441  -26.1176    1.5192 O   0  0  0  0  0  0  0  0  0  0  0  0
   13.9533  -28.6029   -0.2995 C   0  0  2  0  0  0  0  0  0  0  0  0
   15.3167  -28.9860   -0.0151 O   0  0  0  0  0  0  0  0  0  0  0  0
   10.7202  -27.3590    7.9272 C   0  0  2  0  0  0  0  0  0  0  0  0
   11.2731  -27.2414    9.2946 O   0  0  0  0  0  0  0  0  0  0  0  0
   11.8828  -24.3150   10.4090 C   0  0  2  0  0  0  0  0  0  0  0  0
   10.7463  -24.2374    9.5154 O   0  0  0  0  0  0  0  0  0  0  0  0
    7.8708  -21.7083    7.2780 C   0  0  0  0  0  0  0  0  0  0  0  0
    7.1801  -22.7595    7.9701 O   0  0  0  0  0  0  0  0  0  0  0  0
    9.6464  -23.9819    1.5226 C   0  0  1  0  0  0  0  0  0  0  0  0
   10.1274  -23.3000    2.6998 O   0  0  0  0  0  0  0  0  0  0  0  0
   13.7803  -27.1087   -0.5582 C   0  0  2  0  0  0  0  0  0  0  0  0
   12.3991  -26.6583   -0.6268 O   0  0  0  0  0  0  0  0  0  0  0  0
    9.2376  -27.5225    8.0387 C   0  0  0  0  0  0  0  0  0  0  0  0
    8.9829  -28.5732    8.9313 O   0  0  0  0  0  0  0  0  0  0  0  0
   12.0454  -22.9933   11.2452 C   0  0  1  0  0  0  0  0  0  0  0  0
   10.8567  -22.8275   12.0931 O   0  0  0  0  0  0  0  0  0  0  0  0
   10.4378  -23.3679    0.3138 C   0  0  0  0  0  0  0  0  0  0  0  0
    9.6476  -22.3989   -0.4837 N   0  0  0  0  0  0  0  0  0  0  0  0
   14.4791  -26.4026   -1.7179 C   0  0  0  0  0  0  0  0  0  0  0  0
   15.9289  -26.4541   -1.5451 O   0  0  0  0  0  0  0  0  0  0  0  0
  1  2  1  6  0  0  0
  1  8  1  0  0  0  0
  1 36  1  0  0  0  0
  3  4  1  6  0  0  0
  3 10  1  0  0  0  0
  3 47  1  0  0  0  0
  5 11  1  0  0  0  0
  5 30  1  0  0  0  0
  5 38  1  1  0  0  0
  6 21  1  1  0  0  0
  6 42  1  0  0  0  0
  7 15  1  0  0  0  0
  7 44  1  0  0  0  0
  7 32  1  1  0  0  0
  8  9  1  6  0  0  0
  8 17  1  0  0  0  0
 11 12  1  6  0  0  0
 11 20  1  0  0  0  0
 13  6  1  0  0  0  0
 13 14  1  6  0  0  0
 15 16  1  6  0  0  0
 15 24  1  0  0  0  0
 17 26  1  0  0  0  0
 18 10  1  0  0  0  0
 18 19  1  6  0  0  0
 20 21  1  6  0  0  0
 20 29  1  0  0  0  0
 22 13  1  0  0  0  0
 22 23  1  6  0  0  0
 24 25  1  6  0  0  0
 24 33  1  0  0  0  0
 26 27  1  6  0  0  0
 26 35  1  0  0  0  0
 28  2  1  1  0  0  0
 28 18  1  0  0  0  0
 29 30  1  0  0  0  0
 29 39  1  1  0  0  0
 31 22  1  0  0  0  0
 31 32  1  1  0  0  0
 31 41  1  0  0  0  0
 33 34  1  1  0  0  0
 33 43  1  0  0  0  0
 35 36  1  0  0  0  0
 35 45  1  1  0  0  0
 37 28  1  0  0  0  0
 37 38  1  6  0  0  0
 39 40  1  0  0  0  0
 41 42  1  0  0  0  0
 41 49  1  6  0  0  0
 43 44  1  0  0  0  0
 43 51  1  6  0  0  0
 45 46  1  0  0  0  0
 47 37  1  0  0  0  0
 47 48  1  1  0  0  0
 49 50  1  0  0  0  0
 51 52  1  0  0  0  0
M  END
>  <CHROM.1>
-147.91428793,129.29790440,-63.52853403,-142.92097286,115.97453095,75.19959709
53.15483368,124.57301469,67.15520920,-43.47827251,117.01583771,-63.78465038
11.47209753,-25.58648577,5.52252935,-1.62322813,0.74719884,-1.80085610

>  <Name>
2fd0_lig

>  <RI>
0

>  <Rbt.Current_Directory>
/home/itssahil/PROJECTS/Mol_Feturizer/New_Systems/rnas/2fd0

>  <Rbt.Executable>
rbdock ($Id: //depot/dev/client3/rdock/2013.1/src/exe/rbdock.cxx#4 $)

>  <Rbt.Library>
libRbt.so (2013.1, Build901 2013/11/27)

>  <Rbt.Parameter_File>
/export/apps/rDock/src/rDock_2013.1_src/data/scripts/dock_solv.prm

>  <Rbt.Receptor>
prm/blind_docking_40.prm

>  <SCORE>
27.14

>  <SCORE.INTER>
-4.0705

>  <SCORE.INTER.CONST>
1

>  <SCORE.INTER.POLAR>
-0.424189

>  <SCORE.INTER.ROT>
12

>  <SCORE.INTER.SOLV>
26.4794

>  <SCORE.INTER.VDW>
-21.7262

>  <SCORE.INTER.norm>
-0.0782789

>  <SCORE.INTRA>
9.3157

>  <SCORE.INTRA.DIHEDRAL>
13.3109

>  <SCORE.INTRA.DIHEDRAL.0>
23.9727

>  <SCORE.INTRA.POLAR>
0

>  <SCORE.INTRA.POLAR.0>
0

>  <SCORE.INTRA.REPUL>
0

>  <SCORE.INTRA.REPUL.0>
0

>  <SCORE.INTRA.SOLV>
2.49128

>  <SCORE.INTRA.SOLV.lig_0>
-115.028

>  <SCORE.INTRA.VDW>
1.41462

>  <SCORE.INTRA.VDW.0>
-6.82393

>  <SCORE.INTRA.norm>
0.179148

>  <SCORE.RESTR>
21.8948

>  <SCORE.RESTR.CAVITY>
21.8948

>  <SCORE.RESTR.norm>
0.421053

>  <SCORE.SYSTEM>
0

>  <SCORE.SYSTEM.CONST>
0

>  <SCORE.SYSTEM.DIHEDRAL>
0

>  <SCORE.SYSTEM.SOLV>
0

>  <SCORE.SYSTEM.norm>
0

>  <SCORE.heavy>
52

>  <SCORE.norm>
0.521922

>  <RMSD>
26.703

$$$$
2fd0_lig
 OpenBabel11021811433D
libRbt.so/2013.1/901 2013/11/27
 52 56  0  0  0  0  0  0  0  0999 V2000
   10.6827  -25.7813    9.8941 C   0  0  2  0  0  0  0  0  0  0  0  0
   10.1412  -25.0443    8.7893 O   0  0  0  0  0  0  0  0  0  0  0  0
   12.1845  -26.7127    5.3348 C   0  0  2  0  0  0  0  0  0  0  0  0
   12.5028  -27.0923    3.9486 N   0  0  0  0  0  0  0  0  0  0  0  0
   10.5504  -22.5880    6.5680 C   0  0  1  0  0  0  0  0  0  0  0  0
    7.9391  -22.7709    3.0787 C   0  0  1  0  0  0  0  0  0  0  0  0
    9.8740  -27.1957    0.8784 C   0  0  1  0  0  0  0  0  0  0  0  0
   10.5519  -24.9043   11.1923 C   0  0  2  0  0  0  0  0  0  0  0  0
    9.1724  -24.5125   11.4456 N   0  0  0  0  0  0  0  0  0  0  0  0
   10.7699  -27.3062    5.7588 C   0  0  0  0  0  0  0  0  0  0  0  0
   10.1729  -23.2671    5.2642 C   0  0  2  0  0  0  0  0  0  0  0  0
   10.7873  -22.6267    4.1107 O   0  0  0  0  0  0  0  0  0  0  0  0
    7.1944  -24.1846    3.1566 C   0  0  2  0  0  0  0  0  0  0  0  0
    7.9347  -25.1157    4.0511 N   0  0  0  0  0  0  0  0  0  0  0  0
   10.5733  -27.5964    2.1968 C   0  0  1  0  0  0  0  0  0  0  0  0
    9.5971  -28.1920    3.0869 O   0  0  0  0  0  0  0  0  0  0  0  0
   11.4971  -23.6493   11.1030 C   0  0  0  0  0  0  0  0  0  0  0  0
   10.4305  -26.9009    7.2721 C   0  0  2  0  0  0  0  0  0  0  0  0
    9.1256  -27.4354    7.6885 N   0  0  0  0  0  0  0  0  0  0  0  0
    8.6540  -23.2570    5.3031 C   0  0  2  0  0  0  0  0  0  0  0  0
    8.1236  -22.3322    4.3930 O   0  0  0  0  0  0  0  0  0  0  0  0
    6.9792  -24.6999    1.6403 C   0  0  1  0  0  0  0  0  0  0  0  0
    6.2412  -23.6900    0.9287 O   0  0  0  0  0  0  0  0  0  0  0  0
   11.7871  -28.5597    2.0986 C   0  0  1  0  0  0  0  0  0  0  0  0
   11.3027  -29.8985    2.2639 O   0  0  0  0  0  0  0  0  0  0  0  0
   12.9567  -24.1445   10.8403 C   0  0  2  0  0  0  0  0  0  0  0  0
   13.8487  -23.0365   10.7708 O   0  0  0  0  0  0  0  0  0  0  0  0
   10.4388  -25.3519    7.3987 C   0  0  2  0  0  0  0  0  0  0  0  0
    8.1974  -22.7646    6.6971 C   0  0  2  0  0  0  0  0  0  0  0  0
    9.4206  -22.6989    7.4161 O   0  0  0  0  0  0  0  0  0  0  0  0
    8.3838  -24.8781    0.8596 C   0  0  2  0  0  0  0  0  0  0  0  0
    9.0770  -25.9050    1.5936 O   0  0  0  0  0  0  0  0  0  0  0  0
   12.6096  -28.4859    0.7914 C   0  0  2  0  0  0  0  0  0  0  0  0
   13.9937  -28.5803    1.1937 O   0  0  0  0  0  0  0  0  0  0  0  0
   12.9997  -24.9440    9.5066 C   0  0  2  0  0  0  0  0  0  0  0  0
   12.0744  -26.0924    9.6266 O   0  0  0  0  0  0  0  0  0  0  0  0
   11.7862  -24.7158    6.9394 C   0  0  2  0  0  0  0  0  0  0  0  0
   11.6538  -23.2793    7.0615 O   0  0  0  0  0  0  0  0  0  0  0  0
    7.2554  -23.7061    7.4392 C   0  0  0  0  0  0  0  0  0  0  0  0
    7.3529  -24.9883    6.8006 O   0  0  0  0  0  0  0  0  0  0  0  0
    9.1246  -23.5674    1.0460 C   0  0  1  0  0  0  0  0  0  0  0  0
    9.2660  -22.8766    2.3049 O   0  0  0  0  0  0  0  0  0  0  0  0
   12.2859  -27.2147    0.0111 C   0  0  2  0  0  0  0  0  0  0  0  0
   10.8679  -26.9827   -0.2142 O   0  0  0  0  0  0  0  0  0  0  0  0
   14.3661  -25.4777    9.2147 C   0  0  0  0  0  0  0  0  0  0  0  0
   14.4687  -26.7492    9.7965 O   0  0  0  0  0  0  0  0  0  0  0  0
   12.1061  -25.1380    5.4589 C   0  0  1  0  0  0  0  0  0  0  0  0
   13.4047  -24.5641    5.0795 O   0  0  0  0  0  0  0  0  0  0  0  0
   10.5500  -23.5630    0.3882 C   0  0  0  0  0  0  0  0  0  0  0  0
   10.5740  -22.9793   -0.9750 N   0  0  0  0  0  0  0  0  0  0  0  0
   12.9508  -26.8952   -1.3259 C   0  0  0  0  0  0  0  0  0  0  0  0
   12.2625  -25.7872   -1.9840 O   0  0  0  0  0  0  0  0  0  0  0  0
  1  2  1  6  0  0  0
  1  8  1  0  0  0  0
  1 36  1  0  0  0  0
  3  4  1  6  0  0  0
  3 10  1  0  0  0  0
  3 47  1  0  0  0  0
  5 11  1  0  0  0  0
  5 30  1  0  0  0  0
  5 38  1  1  0  0  0
  6 21  1  1  0  0  0
  6 42  1  0  0  0  0
  7 15  1  0  0  0  0
  7 44  1  0  0  0  0
  7 32  1  1  0  0  0
  8  9  1  6  0  0  0
  8 17  1  0  0  0  0
 11 12  1  6  0  0  0
 11 20  1  0  0  0  0
 13  6  1  0  0  0  0
 13 14  1  1  0  0  0
 15 16  1  1  0  0  0
 15 24  1  0  0  0  0
 17 26  1  0  0  0  0
 18 10  1  0  0  0  0
 18 19  1  6  0  0  0
 20 21  1  6  0  0  0
 20 29  1  0  0  0  0
 22 13  1  0  0  0  0
 22 23  1  6  0  0  0
 24 25  1  6  0  0  0
 24 33  1  0  0  0  0
 26 27  1  6  0  0  0
 26 35  1  0  0  0  0
 28  2  1  1  0  0  0
 28 18  1  0  0  0  0
 29 30  1  0  0  0  0
 29 39  1  1  0  0  0
 31 22  1  0  0  0  0
 31 32  1  1  0  0  0
 31 41  1  0  0  0  0
 33 34  1  1  0  0  0
 33 43  1  0  0  0  0
 35 36  1  0  0  0  0
 35 45  1  1  0  0  0
 37 28  1  0  0  0  0
 37 38  1  6  0  0  0
 39 40  1  0  0  0  0
 41 42  1  0  0  0  0
 41 49  1  1  0  0  0
 43 44  1  0  0  0  0
 43 51  1  6  0  0  0
 45 46  1  0  0  0  0
 47 37  1  0  0  0  0
 47 48  1  1  0  0  0
 49 50  1  0  0  0  0
 51 52  1  0  0  0  0
M  END
>  <CHROM.1>
161.15296801,-37.53616676,47.89917716,167.99186259,85.84409791,40.77237998
16.69095076,134.60640576,89.74237206,-48.01027529,95.24036754,167.89054917
10.57481172,-25.20450657,4.89240874,-1.42983299,0.67954201,-1.80601102

>  <Name>
2fd0_lig

>  <RI>
0

>  <Rbt.Current_Directory>
/home/itssahil/PROJECTS/Mol_Feturizer/New_Systems/rnas/2fd0

>  <Rbt.Executable>
rbdock ($Id: //depot/dev/client3/rdock/2013.1/src/exe/rbdock.cxx#4 $)

>  <Rbt.Library>
libRbt.so (2013.1, Build901 2013/11/27)

>  <Rbt.Parameter_File>
/export/apps/rDock/src/rDock_2013.1_src/data/scripts/dock_solv.prm

>  <Rbt.Receptor>
prm/blind_docking_40.prm

>  <SCORE>
41.7168

>  <SCORE.INTER>
6.70719

>  <SCORE.INTER.CONST>
1

>  <SCORE.INTER.POLAR>
-0.141691

>  <SCORE.INTER.ROT>
12

>  <SCORE.INTER.SOLV>
26.2288

>  <SCORE.INTER.VDW>
-15.3992

>  <SCORE.INTER.norm>
0.128984

>  <SCORE.INTRA>
21.2449

>  <SCORE.INTRA.DIHEDRAL>
3.27285

>  <SCORE.INTRA.DIHEDRAL.0>
23.9727

>  <SCORE.INTRA.POLAR>
0

>  <SCORE.INTRA.POLAR.0>
0

>  <SCORE.INTRA.REPUL>
0.0270869

>  <SCORE.INTRA.REPUL.0>
0

>  <SCORE.INTRA.SOLV>
10.9429

>  <SCORE.INTRA.SOLV.lig_0>
-115.028

>  <SCORE.INTRA.VDW>
14.0016

>  <SCORE.INTRA.VDW.0>
-6.82393

>  <SCORE.INTRA.norm>
0.408556

>  <SCORE.RESTR>
13.7646

>  <SCORE.RESTR.CAVITY>
13.7646

>  <SCORE.RESTR.norm>
0.264704

>  <SCORE.SYSTEM>
0

>  <SCORE.SYSTEM.CONST>
0

>  <SCORE.SYSTEM.DIHEDRAL>
0

>  <SCORE.SYSTEM.SOLV>
0

>  <SCORE.SYSTEM.norm>
0

>  <SCORE.heavy>
52

>  <SCORE.norm>
0.802245

>  <RMSD>
26.715

$$$$
2fd0_lig
 OpenBabel11021811433D
libRbt.so/2013.1/901 2013/11/27
 52 56  0  0  0  0  0  0  0  0999 V2000
   12.1133  -25.7896   10.0808 C   0  0  2  0  0  0  0  0  0  0  0  0
   12.8105  -24.9799    9.1241 O   0  0  0  0  0  0  0  0  0  0  0  0
   14.7449  -25.0380    5.2322 C   0  0  2  0  0  0  0  0  0  0  0  0
   15.2515  -25.5032    3.9307 N   0  0  0  0  0  0  0  0  0  0  0  0
   10.2955  -24.1365    5.9097 C   0  0  1  0  0  0  0  0  0  0  0  0
    7.8888  -23.2221    3.7824 C   0  0  1  0  0  0  0  0  0  0  0  0
    9.2937  -26.9472    0.7295 C   0  0  1  0  0  0  0  0  0  0  0  0
   10.6375  -25.9962    9.5799 C   0  0  2  0  0  0  0  0  0  0  0  0
   10.5937  -26.5933    8.2525 N   0  0  0  0  0  0  0  0  0  0  0  0
   15.3440  -25.9278    6.4079 C   0  0  0  0  0  0  0  0  0  0  0  0
    8.9162  -24.7056    6.1873 C   0  0  2  0  0  0  0  0  0  0  0  0
    8.5649  -25.7750    5.2647 O   0  0  0  0  0  0  0  0  0  0  0  0
    6.8434  -23.5513    2.6171 C   0  0  2  0  0  0  0  0  0  0  0  0
    6.2704  -24.9129    2.7994 N   0  0  0  0  0  0  0  0  0  0  0  0
    9.3772  -27.3251    2.2255 C   0  0  1  0  0  0  0  0  0  0  0  0
    8.0865  -27.8200    2.6602 O   0  0  0  0  0  0  0  0  0  0  0  0
    9.8491  -24.6349    9.6224 C   0  0  0  0  0  0  0  0  0  0  0  0
   14.7998  -25.4125    7.8248 C   0  0  2  0  0  0  0  0  0  0  0  0
   15.3370  -26.2206    8.9294 N   0  0  0  0  0  0  0  0  0  0  0  0
    8.0269  -23.4741    6.1515 C   0  0  2  0  0  0  0  0  0  0  0  0
    7.2335  -23.4476    4.9963 O   0  0  0  0  0  0  0  0  0  0  0  0
    7.5945  -23.2951    1.2095 C   0  0  1  0  0  0  0  0  0  0  0  0
    8.0696  -21.9367    1.2006 O   0  0  0  0  0  0  0  0  0  0  0  0
   10.4561  -28.3610    2.6423 C   0  0  1  0  0  0  0  0  0  0  0  0
    9.8506  -29.6600    2.6259 O   0  0  0  0  0  0  0  0  0  0  0  0
    9.9305  -24.0588   11.0737 C   0  0  2  0  0  0  0  0  0  0  0  0
    9.2117  -22.8324   11.1589 O   0  0  0  0  0  0  0  0  0  0  0  0
   13.2467  -25.4709    7.8258 C   0  0  2  0  0  0  0  0  0  0  0  0
    8.9248  -22.2173    6.0581 C   0  0  2  0  0  0  0  0  0  0  0  0
   10.2279  -22.7569    6.2261 O   0  0  0  0  0  0  0  0  0  0  0  0
    8.8968  -24.2384    1.0413 C   0  0  2  0  0  0  0  0  0  0  0  0
    8.3731  -25.5798    1.0383 O   0  0  0  0  0  0  0  0  0  0  0  0
   11.7352  -28.3972    1.7744 C   0  0  2  0  0  0  0  0  0  0  0  0
   12.8327  -28.5530    2.7006 O   0  0  0  0  0  0  0  0  0  0  0  0
   11.4206  -23.8274   11.4556 C   0  0  2  0  0  0  0  0  0  0  0  0
   12.1260  -25.1254   11.3707 O   0  0  0  0  0  0  0  0  0  0  0  0
   12.6113  -24.6600    6.6555 C   0  0  2  0  0  0  0  0  0  0  0  0
   11.1757  -24.8280    6.7381 O   0  0  0  0  0  0  0  0  0  0  0  0
    8.6938  -21.1749    7.1465 C   0  0  0  0  0  0  0  0  0  0  0  0
    9.7306  -20.1908    7.0134 O   0  0  0  0  0  0  0  0  0  0  0  0
    9.7113  -24.0407    2.3058 C   0  0  1  0  0  0  0  0  0  0  0  0
    9.1696  -24.0652    3.6430 O   0  0  0  0  0  0  0  0  0  0  0  0
   11.8430  -27.1477    0.9046 C   0  0  2  0  0  0  0  0  0  0  0  0
   10.6538  -26.8444    0.1241 O   0  0  0  0  0  0  0  0  0  0  0  0
   11.5696  -23.3088   12.8506 C   0  0  0  0  0  0  0  0  0  0  0  0
   12.9336  -23.0882   13.0881 O   0  0  0  0  0  0  0  0  0  0  0  0
   13.1697  -25.1720    5.2776 C   0  0  1  0  0  0  0  0  0  0  0  0
   12.5898  -24.3524    4.2046 O   0  0  0  0  0  0  0  0  0  0  0  0
   11.0102  -24.9211    2.3495 C   0  0  0  0  0  0  0  0  0  0  0  0
   11.0657  -25.8420    3.5107 N   0  0  0  0  0  0  0  0  0  0  0  0
   13.0078  -26.9311   -0.0589 C   0  0  0  0  0  0  0  0  0  0  0  0
   13.0588  -28.0080   -1.0449 O   0  0  0  0  0  0  0  0  0  0  0  0
  1  2  1  6  0  0  0
  1  8  1  0  0  0  0
  1 36  1  0  0  0  0
  3  4  1  6  0  0  0
  3 10  1  0  0  0  0
  3 47  1  0  0  0  0
  5 11  1  0  0  0  0
  5 30  1  0  0  0  0
  5 38  1  1  0  0  0
  6 21  1  1  0  0  0
  6 42  1  0  0  0  0
  7 15  1  0  0  0  0
  7 44  1  0  0  0  0
  7 32  1  1  0  0  0
  8  9  1  6  0  0  0
  8 17  1  0  0  0  0
 11 12  1  6  0  0  0
 11 20  1  0  0  0  0
 13  6  1  0  0  0  0
 13 14  1  6  0  0  0
 15 16  1  6  0  0  0
 15 24  1  0  0  0  0
 17 26  1  0  0  0  0
 18 10  1  0  0  0  0
 18 19  1  1  0  0  0
 20 21  1  6  0  0  0
 20 29  1  0  0  0  0
 22 13  1  0  0  0  0
 22 23  1  1  0  0  0
 24 25  1  6  0  0  0
 24 33  1  0  0  0  0
 26 27  1  6  0  0  0
 26 35  1  0  0  0  0
 28  2  1  1  0  0  0
 28 18  1  0  0  0  0
 29 30  1  0  0  0  0
 29 39  1  1  0  0  0
 31 22  1  0  0  0  0
 31 32  1  1  0  0  0
 31 41  1  0  0  0  0
 33 34  1  1  0  0  0
 33 43  1  0  0  0  0
 35 36  1  0  0  0  0
 35 45  1  1  0  0  0
 37 28  1  0  0  0  0
 37 38  1  6  0  0  0
 39 40  1  0  0  0  0
 41 42  1  0  0  0  0
 41 49  1  1  0  0  0
 43 44  1  0  0  0  0
 43 51  1  6  0  0  0
 45 46  1  0  0  0  0
 47 37  1  0  0  0  0
 47 48  1  6  0  0  0
 49 50  1  0  0  0  0
 51 52  1  0  0  0  0
M  END
>  <CHROM.1>
-73.69402690,173.32343401,167.97924598,102.40367170,-69.59945490,-115.89437656
171.85253114,173.37534447,-177.99608611,174.12469160,-121.00289323,59.75907671
10.70364065,-25.04093523,5.31132533,-1.36111610,0.55589559,-1.92141591

>  <Name>
2fd0_lig

>  <RI>
0

>  <Rbt.Current_Directory>
/home/itssahil/PROJECTS/Mol_Feturizer/New_Systems/rnas/2fd0

>  <Rbt.Executable>
rbdock ($Id: //depot/dev/client3/rdock/2013.1/src/exe/rbdock.cxx#4 $)

>  <Rbt.Library>
libRbt.so (2013.1, Build901 2013/11/27)

>  <Rbt.Parameter_File>
/export/apps/rDock/src/rDock_2013.1_src/data/scripts/dock_solv.prm

>  <Rbt.Receptor>
prm/blind_docking_40.prm

>  <SCORE>
53.0536

>  <SCORE.INTER>
10.2715

>  <SCORE.INTER.CONST>
1

>  <SCORE.INTER.POLAR>
-0.383182

>  <SCORE.INTER.ROT>
12

>  <SCORE.INTER.SOLV>
22.6887

>  <SCORE.INTER.VDW>
-11.038

>  <SCORE.INTER.norm>
0.197528

>  <SCORE.INTRA>
20.6205

>  <SCORE.INTRA.DIHEDRAL>
-3.16641

>  <SCORE.INTRA.DIHEDRAL.0>
23.9727

>  <SCORE.INTRA.POLAR>
0

>  <SCORE.INTRA.POLAR.0>
0

>  <SCORE.INTRA.REPUL>
0.0267577

>  <SCORE.INTRA.REPUL.0>
0

>  <SCORE.INTRA.SOLV>
15.0443

>  <SCORE.INTRA.SOLV.lig_0>
-115.028

>  <SCORE.INTRA.VDW>
14.5478

>  <SCORE.INTRA.VDW.0>
-6.82393

>  <SCORE.INTRA.norm>
0.396548

>  <SCORE.RESTR>
22.1617

>  <SCORE.RESTR.CAVITY>
22.1617

>  <SCORE.RESTR.norm>
0.426186

>  <SCORE.SYSTEM>
0

>  <SCORE.SYSTEM.CONST>
0

>  <SCORE.SYSTEM.DIHEDRAL>
0

>  <SCORE.SYSTEM.SOLV>
0

>  <SCORE.SYSTEM.norm>
0

>  <SCORE.heavy>
52

>  <SCORE.norm>
1.02026

>  <RMSD>
26.725

$$$$
2fd0_lig
 OpenBabel11021811433D
libRbt.so/2013.1/901 2013/11/27
 52 56  0  0  0  0  0  0  0  0999 V2000
   13.3988  -26.0609    7.9868 C   0  0  2  0  0  0  0  0  0  0  0  0
   13.1777  -24.6921    8.3534 O   0  0  0  0  0  0  0  0  0  0  0  0
    9.5257  -24.7214   10.7102 C   0  0  2  0  0  0  0  0  0  0  0  0
    8.5078  -24.3699   11.7138 N   0  0  0  0  0  0  0  0  0  0  0  0
   10.3106  -22.4241    6.6870 C   0  0  1  0  0  0  0  0  0  0  0  0
    9.0737  -24.0125    2.6105 C   0  0  1  0  0  0  0  0  0  0  0  0
   12.8351  -26.5060    1.1195 C   0  0  1  0  0  0  0  0  0  0  0  0
   13.5299  -26.1446    6.4224 C   0  0  2  0  0  0  0  0  0  0  0  0
   14.5938  -25.2862    5.9205 N   0  0  0  0  0  0  0  0  0  0  0  0
   10.9088  -25.0593   11.4214 C   0  0  0  0  0  0  0  0  0  0  0  0
   10.6725  -23.4106    5.5919 C   0  0  2  0  0  0  0  0  0  0  0  0
   11.6863  -22.8854    4.6894 O   0  0  0  0  0  0  0  0  0  0  0  0
    9.9679  -25.2992    2.9332 C   0  0  2  0  0  0  0  0  0  0  0  0
   11.3554  -24.8945    3.2888 N   0  0  0  0  0  0  0  0  0  0  0  0
   12.9599  -27.2069   -0.2519 C   0  0  1  0  0  0  0  0  0  0  0  0
   13.7323  -26.3655   -1.1436 O   0  0  0  0  0  0  0  0  0  0  0  0
   12.1526  -25.8100    5.7386 C   0  0  0  0  0  0  0  0  0  0  0  0
   12.0125  -25.4524   10.3274 C   0  0  2  0  0  0  0  0  0  0  0  0
   13.3024  -25.7670   10.9591 N   0  0  0  0  0  0  0  0  0  0  0  0
    9.3258  -23.7341    4.9673 C   0  0  2  0  0  0  0  0  0  0  0  0
    9.1930  -23.1468    3.7015 O   0  0  0  0  0  0  0  0  0  0  0  0
    9.8370  -26.3046    1.6750 C   0  0  1  0  0  0  0  0  0  0  0  0
    8.4410  -26.5972    1.4838 O   0  0  0  0  0  0  0  0  0  0  0  0
   13.5803  -28.6302   -0.2740 C   0  0  1  0  0  0  0  0  0  0  0  0
   14.9861  -28.4951   -0.5182 O   0  0  0  0  0  0  0  0  0  0  0  0
   11.0644  -26.7725    6.3165 C   0  0  2  0  0  0  0  0  0  0  0  0
    9.8031  -26.5135    5.7080 O   0  0  0  0  0  0  0  0  0  0  0  0
   12.1802  -24.2748    9.3270 C   0  0  2  0  0  0  0  0  0  0  0  0
    8.2125  -23.0954    5.8316 C   0  0  2  0  0  0  0  0  0  0  0  0
    8.9336  -22.6186    6.9587 O   0  0  0  0  0  0  0  0  0  0  0  0
   10.3557  -25.6237    0.3033 C   0  0  2  0  0  0  0  0  0  0  0  0
   11.7534  -25.3658    0.5343 O   0  0  0  0  0  0  0  0  0  0  0  0
   13.3761  -29.4807    1.0009 C   0  0  2  0  0  0  0  0  0  0  0  0
   13.0842  -30.8173    0.5374 O   0  0  0  0  0  0  0  0  0  0  0  0
   10.9613  -26.5725    7.8557 C   0  0  2  0  0  0  0  0  0  0  0  0
   12.2844  -26.8668    8.4493 O   0  0  0  0  0  0  0  0  0  0  0  0
   10.8389  -23.8666    8.6448 C   0  0  2  0  0  0  0  0  0  0  0  0
   11.1162  -22.7408    7.7778 O   0  0  0  0  0  0  0  0  0  0  0  0
    7.1402  -24.0616    6.3225 C   0  0  0  0  0  0  0  0  0  0  0  0
    6.6268  -24.7426    5.1676 O   0  0  0  0  0  0  0  0  0  0  0  0
    9.6291  -24.2955    0.2057 C   0  0  1  0  0  0  0  0  0  0  0  0
    9.4994  -23.3496    1.2877 O   0  0  0  0  0  0  0  0  0  0  0  0
   12.2821  -28.8888    1.8854 C   0  0  2  0  0  0  0  0  0  0  0  0
   12.4392  -27.4740    2.1841 O   0  0  0  0  0  0  0  0  0  0  0  0
    9.9591  -27.4929    8.4766 C   0  0  0  0  0  0  0  0  0  0  0  0
    8.7238  -27.2754    7.8502 O   0  0  0  0  0  0  0  0  0  0  0  0
    9.7677  -23.4994    9.7358 C   0  0  1  0  0  0  0  0  0  0  0  0
    8.5052  -23.1711    9.0592 O   0  0  0  0  0  0  0  0  0  0  0  0
   10.0408  -23.4559   -1.0552 C   0  0  0  0  0  0  0  0  0  0  0  0
    9.5070  -22.0723   -1.0486 N   0  0  0  0  0  0  0  0  0  0  0  0
   11.8836  -29.5263    3.2146 C   0  0  0  0  0  0  0  0  0  0  0  0
   10.5249  -29.1327    3.5799 O   0  0  0  0  0  0  0  0  0  0  0  0
  1  2  1  6  0  0  0
  1  8  1  0  0  0  0
  1 36  1  0  0  0  0
  3  4  1  1  0  0  0
  3 10  1  0  0  0  0
  3 47  1  0  0  0  0
  5 11  1  0  0  0  0
  5 30  1  0  0  0  0
  5 38  1  1  0  0  0
  6 21  1  1  0  0  0
  6 42  1  0  0  0  0
  7 15  1  0  0  0  0
  7 44  1  0  0  0  0
  7 32  1  6  0  0  0
  8  9  1  6  0  0  0
  8 17  1  0  0  0  0
 11 12  1  6  0  0  0
 11 20  1  0  0  0  0
 13  6  1  0  0  0  0
 13 14  1  6  0  0  0
 15 16  1  6  0  0  0
 15 24  1  0  0  0  0
 17 26  1  0  0  0  0
 18 10  1  0  0  0  0
 18 19  1  1  0  0  0
 20 21  1  6  0  0  0
 20 29  1  0  0  0  0
 22 13  1  0  0  0  0
 22 23  1  6  0  0  0
 24 25  1  1  0  0  0
 24 33  1  0  0  0  0
 26 27  1  6  0  0  0
 26 35  1  0  0  0  0
 28  2  1  6  0  0  0
 28 18  1  0  0  0  0
 29 30  1  0  0  0  0
 29 39  1  1  0  0  0
 31 22  1  0  0  0  0
 31 32  1  1  0  0  0
 31 41  1  0  0  0  0
 33 34  1  6  0  0  0
 33 43  1  0  0  0  0
 35 36  1  0  0  0  0
 35 45  1  1  0  0  0
 37 28  1  0  0  0  0
 37 38  1  6  0  0  0
 39 40  1  0  0  0  0
 41 42  1  0  0  0  0
 41 49  1  6  0  0  0
 43 44  1  0  0  0  0
 43 51  1  1  0  0  0
 45 46  1  0  0  0  0
 47 37  1  0  0  0  0
 47 48  1  6  0  0  0
 49 50  1  0  0  0  0
 51 52  1  0  0  0  0
M  END
>  <CHROM.1>
135.36595787,-77.37910670,-34.19130957,77.87994989,115.90988715,28.88842254
-53.72284706,49.95349573,-56.98355716,156.52335958,-170.69655581,-156.94309032
10.94083643,-25.51521189,4.81923747,-1.81656394,0.83395511,-1.63496877

>  <Name>
2fd0_lig

>  <RI>
0

>  <Rbt.Current_Directory>
/home/itssahil/PROJECTS/Mol_Feturizer/New_Systems/rnas/2fd0

>  <Rbt.Executable>
rbdock ($Id: //depot/dev/client3/rdock/2013.1/src/exe/rbdock.cxx#4 $)

>  <Rbt.Library>
libRbt.so (2013.1, Build901 2013/11/27)

>  <Rbt.Parameter_File>
/export/apps/rDock/src/rDock_2013.1_src/data/scripts/dock_solv.prm

>  <Rbt.Receptor>
prm/blind_docking_40.prm

>  <SCORE>
35.431

>  <SCORE.INTER>
0.0591944

>  <SCORE.INTER.CONST>
1

>  <SCORE.INTER.POLAR>
-0.827999

>  <SCORE.INTER.ROT>
12

>  <SCORE.INTER.SOLV>
27.3004

>  <SCORE.INTER.VDW>
-17.9007

>  <SCORE.INTER.norm>
0.00113835

>  <SCORE.INTRA>
19.7544

>  <SCORE.INTRA.DIHEDRAL>
5.00854

>  <SCORE.INTRA.DIHEDRAL.0>
23.9727

>  <SCORE.INTRA.POLAR>
0

>  <SCORE.INTRA.POLAR.0>
0

>  <SCORE.INTRA.REPUL>
0

>  <SCORE.INTRA.REPUL.0>
0

>  <SCORE.INTRA.SOLV>
7.33154

>  <SCORE.INTRA.SOLV.lig_0>
-115.028

>  <SCORE.INTRA.VDW>
13.5844

>  <SCORE.INTRA.VDW.0>
-6.82393

>  <SCORE.INTRA.norm>
0.379892

>  <SCORE.RESTR>
15.6174

>  <SCORE.RESTR.CAVITY>
15.6174

>  <SCORE.RESTR.norm>
0.300334

>  <SCORE.SYSTEM>
0

>  <SCORE.SYSTEM.CONST>
0

>  <SCORE.SYSTEM.DIHEDRAL>
0

>  <SCORE.SYSTEM.SOLV>
0

>  <SCORE.SYSTEM.norm>
0

>  <SCORE.heavy>
52

>  <SCORE.norm>
0.681365

>  <RMSD>
26.728

$$$$
2fd0_lig
 OpenBabel11021811433D
libRbt.so/2013.1/901 2013/11/27
 52 56  0  0  0  0  0  0  0  0999 V2000
   12.2701  -25.2817   10.3489 C   0  0  2  0  0  0  0  0  0  0  0  0
   11.4016  -24.7829    9.3223 O   0  0  0  0  0  0  0  0  0  0  0  0
    7.6698  -22.5661    9.5492 C   0  0  2  0  0  0  0  0  0  0  0  0
    6.6999  -21.4833    9.7813 N   0  0  0  0  0  0  0  0  0  0  0  0
   10.6379  -23.0341    5.8765 C   0  0  1  0  0  0  0  0  0  0  0  0
    9.8200  -26.2533    2.7626 C   0  0  1  0  0  0  0  0  0  0  0  0
   12.9491  -28.8392   -0.2061 C   0  0  1  0  0  0  0  0  0  0  0  0
   13.5196  -24.3332   10.4512 C   0  0  2  0  0  0  0  0  0  0  0  0
   13.1334  -22.9535   10.7120 N   0  0  0  0  0  0  0  0  0  0  0  0
    8.4529  -22.9033   10.8931 C   0  0  0  0  0  0  0  0  0  0  0  0
   10.6331  -24.5334    5.6406 C   0  0  2  0  0  0  0  0  0  0  0  0
   11.9581  -25.0464    5.3255 O   0  0  0  0  0  0  0  0  0  0  0  0
   10.6909  -27.3623    3.5183 C   0  0  2  0  0  0  0  0  0  0  0  0
   12.1354  -27.0055    3.4818 N   0  0  0  0  0  0  0  0  0  0  0  0
   14.3009  -28.7443    0.5364 C   0  0  1  0  0  0  0  0  0  0  0  0
   14.5226  -29.9728    1.2722 O   0  0  0  0  0  0  0  0  0  0  0  0
   14.4008  -24.4460    9.1523 C   0  0  0  0  0  0  0  0  0  0  0  0
    9.5004  -24.0900   10.6407 C   0  0  2  0  0  0  0  0  0  0  0  0
   10.2402  -24.4197   11.8678 N   0  0  0  0  0  0  0  0  0  0  0  0
    9.5770  -24.7043    4.5617 C   0  0  2  0  0  0  0  0  0  0  0  0
   10.1546  -25.0175    3.3235 O   0  0  0  0  0  0  0  0  0  0  0  0
   10.3112  -28.7945    2.8737 C   0  0  1  0  0  0  0  0  0  0  0  0
    8.8901  -28.9784    3.0062 O   0  0  0  0  0  0  0  0  0  0  0  0
   15.5666  -28.4577   -0.3160 C   0  0  1  0  0  0  0  0  0  0  0  0
   16.1559  -29.7159   -0.6682 O   0  0  0  0  0  0  0  0  0  0  0  0
   14.7844  -25.9470    8.9412 C   0  0  2  0  0  0  0  0  0  0  0  0
   15.5998  -26.0897    7.7823 O   0  0  0  0  0  0  0  0  0  0  0  0
   10.4886  -23.6671    9.5180 C   0  0  2  0  0  0  0  0  0  0  0  0
    8.8639  -23.3479    4.3472 C   0  0  2  0  0  0  0  0  0  0  0  0
    9.3948  -22.5518    5.3969 O   0  0  0  0  0  0  0  0  0  0  0  0
   10.6356  -28.8476    1.2906 C   0  0  2  0  0  0  0  0  0  0  0  0
   12.0632  -28.6774    1.2087 O   0  0  0  0  0  0  0  0  0  0  0  0
   15.3457  -27.6334   -1.6054 C   0  0  2  0  0  0  0  0  0  0  0  0
   16.4569  -26.7133   -1.6772 O   0  0  0  0  0  0  0  0  0  0  0  0
   13.4896  -26.7950    8.7859 C   0  0  2  0  0  0  0  0  0  0  0  0
   12.6810  -26.6325   10.0144 O   0  0  0  0  0  0  0  0  0  0  0  0
    9.7653  -23.2704    8.1950 C   0  0  2  0  0  0  0  0  0  0  0  0
   10.7813  -22.8567    7.2502 O   0  0  0  0  0  0  0  0  0  0  0  0
    7.3468  -23.3844    4.4939 C   0  0  0  0  0  0  0  0  0  0  0  0
    7.0636  -23.8484    5.8227 O   0  0  0  0  0  0  0  0  0  0  0  0
    9.9682  -27.6224    0.6949 C   0  0  1  0  0  0  0  0  0  0  0  0
   10.0597  -26.2904    1.2422 O   0  0  0  0  0  0  0  0  0  0  0  0
   13.9834  -26.9453   -1.5894 C   0  0  2  0  0  0  0  0  0  0  0  0
   12.8613  -27.8227   -1.2951 O   0  0  0  0  0  0  0  0  0  0  0  0
   13.7878  -28.2508    8.6160 C   0  0  0  0  0  0  0  0  0  0  0  0
   12.6007  -28.8961    8.2420 O   0  0  0  0  0  0  0  0  0  0  0  0
    8.7332  -22.1160    8.4686 C   0  0  1  0  0  0  0  0  0  0  0  0
    8.0357  -21.8054    7.2130 O   0  0  0  0  0  0  0  0  0  0  0  0
   10.2125  -27.4732   -0.8486 C   0  0  0  0  0  0  0  0  0  0  0  0
    9.6551  -26.2238   -1.4210 N   0  0  0  0  0  0  0  0  0  0  0  0
   13.5039  -26.0739   -2.7481 C   0  0  0  0  0  0  0  0  0  0  0  0
   12.1500  -25.5881   -2.4924 O   0  0  0  0  0  0  0  0  0  0  0  0
  1  2  1  6  0  0  0
  1  8  1  0  0  0  0
  1 36  1  0  0  0  0
  3  4  1  1  0  0  0
  3 10  1  0  0  0  0
  3 47  1  0  0  0  0
  5 11  1  0  0  0  0
  5 30  1  0  0  0  0
  5 38  1  1  0  0  0
  6 21  1  1  0  0  0
  6 42  1  0  0  0  0
  7 15  1  0  0  0  0
  7 44  1  0  0  0  0
  7 32  1  1  0  0  0
  8  9  1  6  0  0  0
  8 17  1  0  0  0  0
 11 12  1  6  0  0  0
 11 20  1  0  0  0  0
 13  6  1  0  0  0  0
 13 14  1  6  0  0  0
 15 16  1  6  0  0  0
 15 24  1  0  0  0  0
 17 26  1  0  0  0  0
 18 10  1  0  0  0  0
 18 19  1  1  0  0  0
 20 21  1  6  0  0  0
 20 29  1  0  0  0  0
 22 13  1  0  0  0  0
 22 23  1  6  0  0  0
 24 25  1  6  0  0  0
 24 33  1  0  0  0  0
 26 27  1  6  0  0  0
 26 35  1  0  0  0  0
 28  2  1  6  0  0  0
 28 18  1  0  0  0  0
 29 30  1  0  0  0  0
 29 39  1  1  0  0  0
 31 22  1  0  0  0  0
 31 32  1  1  0  0  0
 31 41  1  0  0  0  0
 33 34  1  1  0  0  0
 33 43  1  0  0  0  0
 35 36  1  0  0  0  0
 35 45  1  1  0  0  0
 37 28  1  0  0  0  0
 37 38  1  6  0  0  0
 39 40  1  0  0  0  0
 41 42  1  0  0  0  0
 41 49  1  6  0  0  0
 43 44  1  0  0  0  0
 43 51  1  6  0  0  0
 45 46  1  0  0  0  0
 47 37  1  0  0  0  0
 47 48  1  6  0  0  0
 49 50  1  0  0  0  0
 51 52  1  0  0  0  0
M  END
>  <CHROM.1>
-79.23911403,-65.78909687,-78.43017505,-171.76761261,117.64393662,-61.22938089
59.06647846,172.31917439,-169.36371459,149.12302751,-175.44437875,177.70387709
11.47737860,-25.77132034,4.71423593,-1.86496487,0.53378768,-1.80208801

>  <Name>
2fd0_lig

>  <RI>
0

>  <Rbt.Current_Directory>
/home/itssahil/PROJECTS/Mol_Feturizer/New_Systems/rnas/2fd0

>  <Rbt.Executable>
rbdock ($Id: //depot/dev/client3/rdock/2013.1/src/exe/rbdock.cxx#4 $)

>  <Rbt.Library>
libRbt.so (2013.1, Build901 2013/11/27)

>  <Rbt.Parameter_File>
/export/apps/rDock/src/rDock_2013.1_src/data/scripts/dock_solv.prm

>  <Rbt.Receptor>
prm/blind_docking_40.prm

>  <SCORE>
20.2321

>  <SCORE.INTER>
-4.82981

>  <SCORE.INTER.CONST>
1

>  <SCORE.INTER.POLAR>
-0.936693

>  <SCORE.INTER.ROT>
12

>  <SCORE.INTER.SOLV>
18.9076

>  <SCORE.INTER.VDW>
-18.0001

>  <SCORE.INTER.norm>
-0.092881

>  <SCORE.INTRA>
2.19815

>  <SCORE.INTRA.DIHEDRAL>
-6.92442

>  <SCORE.INTRA.DIHEDRAL.0>
23.9727

>  <SCORE.INTRA.POLAR>
0

>  <SCORE.INTRA.POLAR.0>
0

>  <SCORE.INTRA.REPUL>
0.00407253

>  <SCORE.INTRA.REPUL.0>
0

>  <SCORE.INTRA.SOLV>
4.7827

>  <SCORE.INTRA.SOLV.lig_0>
-115.028

>  <SCORE.INTRA.VDW>
3.24865

>  <SCORE.INTRA.VDW.0>
-6.82393

>  <SCORE.INTRA.norm>
0.0422721

>  <SCORE.RESTR>
22.8637

>  <SCORE.RESTR.CAVITY>
22.8637

>  <SCORE.RESTR.norm>
0.439687

>  <SCORE.SYSTEM>
0

>  <SCORE.SYSTEM.CONST>
0

>  <SCORE.SYSTEM.DIHEDRAL>
0

>  <SCORE.SYSTEM.SOLV>
0

>  <SCORE.SYSTEM.norm>
0

>  <SCORE.heavy>
52

>  <SCORE.norm>
0.389078

>  <RMSD>
26.758

$$$$
2fd0_lig
 OpenBabel11021811433D
libRbt.so/2013.1/901 2013/11/27
 52 56  0  0  0  0  0  0  0  0999 V2000
   10.2392  -25.0701    8.7475 C   0  0  2  0  0  0  0  0  0  0  0  0
   10.5577  -23.8047    8.1523 O   0  0  0  0  0  0  0  0  0  0  0  0
    7.2358  -21.0639    7.5646 C   0  0  2  0  0  0  0  0  0  0  0  0
    6.2568  -20.1729    6.9205 N   0  0  0  0  0  0  0  0  0  0  0  0
    8.6494  -25.1566    5.8956 C   0  0  1  0  0  0  0  0  0  0  0  0
    9.2943  -25.9063    2.7094 C   0  0  1  0  0  0  0  0  0  0  0  0
   12.7989  -27.4560    0.3870 C   0  0  1  0  0  0  0  0  0  0  0  0
   10.1060  -24.8723   10.3014 C   0  0  2  0  0  0  0  0  0  0  0  0
    9.1081  -23.8661   10.6367 N   0  0  0  0  0  0  0  0  0  0  0  0
    8.7168  -20.5589    7.2741 C   0  0  0  0  0  0  0  0  0  0  0  0
    8.0267  -24.2394    4.8590 C   0  0  2  0  0  0  0  0  0  0  0  0
    6.8867  -24.8525    4.1938 O   0  0  0  0  0  0  0  0  0  0  0  0
   10.8701  -26.1818    2.7316 C   0  0  2  0  0  0  0  0  0  0  0  0
   11.5460  -25.4338    1.6366 N   0  0  0  0  0  0  0  0  0  0  0  0
   12.9292  -27.3207   -1.1468 C   0  0  1  0  0  0  0  0  0  0  0  0
   12.2318  -26.1252   -1.5762 O   0  0  0  0  0  0  0  0  0  0  0  0
   11.5055  -24.5239   10.9311 C   0  0  0  0  0  0  0  0  0  0  0  0
    9.7806  -21.5241    7.9856 C   0  0  2  0  0  0  0  0  0  0  0  0
   11.1589  -21.0805    7.7303 N   0  0  0  0  0  0  0  0  0  0  0  0
    9.2056  -23.8817    3.9697 C   0  0  2  0  0  0  0  0  0  0  0  0
    9.1208  -24.5194    2.7243 O   0  0  0  0  0  0  0  0  0  0  0  0
   11.0793  -27.7839    2.7122 C   0  0  1  0  0  0  0  0  0  0  0  0
   10.3742  -28.3374    3.8381 O   0  0  0  0  0  0  0  0  0  0  0  0
   14.3627  -27.2827   -1.7423 C   0  0  1  0  0  0  0  0  0  0  0  0
   14.7561  -25.9094   -1.8587 O   0  0  0  0  0  0  0  0  0  0  0  0
   12.5200  -25.6473   10.5393 C   0  0  2  0  0  0  0  0  0  0  0  0
   13.7981  -25.3778   11.1067 O   0  0  0  0  0  0  0  0  0  0  0  0
    9.5805  -22.9746    7.4644 C   0  0  2  0  0  0  0  0  0  0  0  0
   10.4998  -24.4271    4.6194 C   0  0  2  0  0  0  0  0  0  0  0  0
   10.0401  -24.8853    5.8829 O   0  0  0  0  0  0  0  0  0  0  0  0
   10.4372  -28.4593    1.3909 C   0  0  2  0  0  0  0  0  0  0  0  0
   11.1818  -27.8914    0.2970 O   0  0  0  0  0  0  0  0  0  0  0  0
   15.4487  -28.0461   -0.9495 C   0  0  2  0  0  0  0  0  0  0  0  0
   16.2624  -28.7110   -1.9406 O   0  0  0  0  0  0  0  0  0  0  0  0
   12.6336  -25.7243    8.9898 C   0  0  2  0  0  0  0  0  0  0  0  0
   11.2913  -26.0215    8.4426 O   0  0  0  0  0  0  0  0  0  0  0  0
    8.1262  -23.4962    7.6738 C   0  0  2  0  0  0  0  0  0  0  0  0
    8.0562  -24.8287    7.1119 O   0  0  0  0  0  0  0  0  0  0  0  0
   11.5923  -23.3900    4.8543 C   0  0  0  0  0  0  0  0  0  0  0  0
   12.5496  -23.9818    5.7458 O   0  0  0  0  0  0  0  0  0  0  0  0
    9.0109  -27.9473    1.3217 C   0  0  1  0  0  0  0  0  0  0  0  0
    8.6254  -26.5670    1.4901 O   0  0  0  0  0  0  0  0  0  0  0  0
   14.8198  -28.9991    0.0634 C   0  0  2  0  0  0  0  0  0  0  0  0
   13.8239  -28.3931    0.9331 O   0  0  0  0  0  0  0  0  0  0  0  0
   13.5652  -26.8076    8.5474 C   0  0  0  0  0  0  0  0  0  0  0  0
   14.8599  -26.4615    8.9595 O   0  0  0  0  0  0  0  0  0  0  0  0
    7.0997  -22.5274    6.9808 C   0  0  1  0  0  0  0  0  0  0  0  0
    5.7407  -23.0214    7.2429 O   0  0  0  0  0  0  0  0  0  0  0  0
    8.2280  -28.4641    0.0629 C   0  0  0  0  0  0  0  0  0  0  0  0
    8.9476  -28.2466   -1.2155 N   0  0  0  0  0  0  0  0  0  0  0  0
   15.6670  -29.8704    0.9880 C   0  0  0  0  0  0  0  0  0  0  0  0
   14.8134  -30.7635    1.7679 O   0  0  0  0  0  0  0  0  0  0  0  0
  1  2  1  6  0  0  0
  1  8  1  0  0  0  0
  1 36  1  0  0  0  0
  3  4  1  6  0  0  0
  3 10  1  0  0  0  0
  3 47  1  0  0  0  0
  5 11  1  0  0  0  0
  5 30  1  0  0  0  0
  5 38  1  1  0  0  0
  6 21  1  6  0  0  0
  6 42  1  0  0  0  0
  7 15  1  0  0  0  0
  7 44  1  0  0  0  0
  7 32  1  6  0  0  0
  8  9  1  6  0  0  0
  8 17  1  0  0  0  0
 11 12  1  6  0  0  0
 11 20  1  0  0  0  0
 13  6  1  0  0  0  0
 13 14  1  6  0  0  0
 15 16  1  1  0  0  0
 15 24  1  0  0  0  0
 17 26  1  0  0  0  0
 18 10  1  0  0  0  0
 18 19  1  6  0  0  0
 20 21  1  6  0  0  0
 20 29  1  0  0  0  0
 22 13  1  0  0  0  0
 22 23  1  1  0  0  0
 24 25  1  1  0  0  0
 24 33  1  0  0  0  0
 26 27  1  1  0  0  0
 26 35  1  0  0  0  0
 28  2  1  1  0  0  0
 28 18  1  0  0  0  0
 29 30  1  0  0  0  0
 29 39  1  1  0  0  0
 31 22  1  0  0  0  0
 31 32  1  6  0  0  0
 31 41  1  0  0  0  0
 33 34  1  6  0  0  0
 33 43  1  0  0  0  0
 35 36  1  0  0  0  0
 35 45  1  1  0  0  0
 37 28  1  0  0  0  0
 37 38  1  6  0  0  0
 39 40  1  0  0  0  0
 41 42  1  0  0  0  0
 41 49  1  6  0  0  0
 43 44  1  0  0  0  0
 43 51  1  1  0  0  0
 45 46  1  0  0  0  0
 47 37  1  0  0  0  0
 47 48  1  1  0  0  0
 49 50  1  0  0  0  0
 51 52  1  0  0  0  0
M  END
>  <CHROM.1>
-101.93299239,-58.74349510,-81.47045027,166.29502343,-69.02588787,133.91442295
165.79080989,32.58614606,-66.31743930,-42.18227587,-51.37618434,-175.12710509
10.91679463,-25.58540882,4.47694191,-1.96815607,0.49356883,-1.86038873

>  <Name>
2fd0_lig

>  <RI>
0

>  <Rbt.Current_Directory>
/home/itssahil/PROJECTS/Mol_Feturizer/New_Systems/rnas/2fd0

>  <Rbt.Executable>
rbdock ($Id: //depot/dev/client3/rdock/2013.1/src/exe/rbdock.cxx#4 $)

>  <Rbt.Library>
libRbt.so (2013.1, Build901 2013/11/27)

>  <Rbt.Parameter_File>
/export/apps/rDock/src/rDock_2013.1_src/data/scripts/dock_solv.prm

>  <Rbt.Receptor>
prm/blind_docking_40.prm

>  <SCORE>
28.6408

>  <SCORE.INTER>
-2.73176

>  <SCORE.INTER.CONST>
1

>  <SCORE.INTER.POLAR>
-0.246243

>  <SCORE.INTER.ROT>
12

>  <SCORE.INTER.SOLV>
17.2981

>  <SCORE.INTER.VDW>
-18.3664

>  <SCORE.INTER.norm>
-0.0525338

>  <SCORE.INTRA>
12.5552

>  <SCORE.INTRA.DIHEDRAL>
-1.54907

>  <SCORE.INTRA.DIHEDRAL.0>
23.9727

>  <SCORE.INTRA.POLAR>
0

>  <SCORE.INTRA.POLAR.0>
0

>  <SCORE.INTRA.REPUL>
0

>  <SCORE.INTRA.REPUL.0>
0

>  <SCORE.INTRA.SOLV>
5.75403

>  <SCORE.INTRA.SOLV.lig_0>
-115.028

>  <SCORE.INTRA.VDW>
10.4527

>  <SCORE.INTRA.VDW.0>
-6.82393

>  <SCORE.INTRA.norm>
0.241446

>  <SCORE.RESTR>
18.8174

>  <SCORE.RESTR.CAVITY>
18.8174

>  <SCORE.RESTR.norm>
0.361872

>  <SCORE.SYSTEM>
0

>  <SCORE.SYSTEM.CONST>
0

>  <SCORE.SYSTEM.DIHEDRAL>
0

>  <SCORE.SYSTEM.SOLV>
0

>  <SCORE.SYSTEM.norm>
0

>  <SCORE.heavy>
52

>  <SCORE.norm>
0.550784

>  <RMSD>
26.785

$$$$
2fd0_lig
 OpenBabel11021811433D
libRbt.so/2013.1/901 2013/11/27
 52 56  0  0  0  0  0  0  0  0999 V2000
   11.0495  -24.6194    9.3964 C   0  0  2  0  0  0  0  0  0  0  0  0
   11.5247  -23.9698    8.2094 O   0  0  0  0  0  0  0  0  0  0  0  0
   10.9835  -19.6813    8.6659 C   0  0  2  0  0  0  0  0  0  0  0  0
   10.7184  -18.2662    8.3593 N   0  0  0  0  0  0  0  0  0  0  0  0
    8.1918  -22.7774    7.0765 C   0  0  1  0  0  0  0  0  0  0  0  0
    7.9566  -24.6486    2.9139 C   0  0  1  0  0  0  0  0  0  0  0  0
   12.3211  -26.6153    1.4698 C   0  0  1  0  0  0  0  0  0  0  0  0
   12.2339  -25.4394   10.0259 C   0  0  2  0  0  0  0  0  0  0  0  0
   13.3860  -24.5958   10.3120 N   0  0  0  0  0  0  0  0  0  0  0  0
   12.1955  -20.2194    7.7858 C   0  0  0  0  0  0  0  0  0  0  0  0
    8.9638  -23.6534    6.1070 C   0  0  2  0  0  0  0  0  0  0  0  0
    9.9750  -22.9063    5.3738 O   0  0  0  0  0  0  0  0  0  0  0  0
    8.9989  -25.7724    3.3721 C   0  0  2  0  0  0  0  0  0  0  0  0
   10.2649  -25.1483    3.8445 N   0  0  0  0  0  0  0  0  0  0  0  0
   12.3055  -27.2073    0.0426 C   0  0  1  0  0  0  0  0  0  0  0  0
   12.7911  -26.2085   -0.8882 O   0  0  0  0  0  0  0  0  0  0  0  0
   12.6236  -26.6441    9.0914 C   0  0  0  0  0  0  0  0  0  0  0  0
   12.4894  -21.7572    8.1293 C   0  0  2  0  0  0  0  0  0  0  0  0
   13.6048  -22.2802    7.3266 N   0  0  0  0  0  0  0  0  0  0  0  0
    7.8642  -24.2860    5.2709 C   0  0  2  0  0  0  0  0  0  0  0  0
    7.8306  -23.7492    3.9765 O   0  0  0  0  0  0  0  0  0  0  0  0
    9.1519  -26.8156    2.1476 C   0  0  1  0  0  0  0  0  0  0  0  0
    7.8436  -27.3263    1.8334 O   0  0  0  0  0  0  0  0  0  0  0  0
   13.1031  -28.5178   -0.1969 C   0  0  1  0  0  0  0  0  0  0  0  0
   14.4145  -28.1597   -0.6511 O   0  0  0  0  0  0  0  0  0  0  0  0
   11.3457  -27.5080    8.8358 C   0  0  2  0  0  0  0  0  0  0  0  0
   11.6609  -28.6221    8.0066 O   0  0  0  0  0  0  0  0  0  0  0  0
   11.2049  -22.5921    7.8677 C   0  0  2  0  0  0  0  0  0  0  0  0
    6.4959  -23.9253    5.8972 C   0  0  2  0  0  0  0  0  0  0  0  0
    6.8711  -23.2898    7.1108 O   0  0  0  0  0  0  0  0  0  0  0  0
    9.6977  -26.0950    0.8071 C   0  0  2  0  0  0  0  0  0  0  0  0
   11.0089  -25.6172    1.1623 O   0  0  0  0  0  0  0  0  0  0  0  0
   13.2385  -29.4632    1.0190 C   0  0  2  0  0  0  0  0  0  0  0  0
   13.0589  -30.7987    0.4987 O   0  0  0  0  0  0  0  0  0  0  0  0
   10.2563  -26.6314    8.1542 C   0  0  2  0  0  0  0  0  0  0  0  0
    9.9467  -25.4977    9.0533 O   0  0  0  0  0  0  0  0  0  0  0  0
    9.9715  -22.0682    8.6647 C   0  0  2  0  0  0  0  0  0  0  0  0
    8.8376  -22.8933    8.3047 O   0  0  0  0  0  0  0  0  0  0  0  0
    5.6052  -25.1157    6.2351 C   0  0  0  0  0  0  0  0  0  0  0  0
    6.3332  -25.9364    7.1611 O   0  0  0  0  0  0  0  0  0  0  0  0
    8.7909  -24.8988    0.5874 C   0  0  1  0  0  0  0  0  0  0  0  0
    8.4089  -23.9592    1.6137 O   0  0  0  0  0  0  0  0  0  0  0  0
   12.2405  -29.0950    2.1135 C   0  0  2  0  0  0  0  0  0  0  0  0
   12.2498  -27.6928    2.4998 O   0  0  0  0  0  0  0  0  0  0  0  0
    8.9911  -27.3922    7.9143 C   0  0  0  0  0  0  0  0  0  0  0  0
    8.6239  -28.0135    9.1163 O   0  0  0  0  0  0  0  0  0  0  0  0
    9.7107  -20.5555    8.3237 C   0  0  1  0  0  0  0  0  0  0  0  0
    8.5765  -20.0834    9.1301 O   0  0  0  0  0  0  0  0  0  0  0  0
    9.1961  -24.0356   -0.6597 C   0  0  0  0  0  0  0  0  0  0  0  0
   10.3979  -23.1958   -0.4365 N   0  0  0  0  0  0  0  0  0  0  0  0
   12.1662  -29.8624    3.4316 C   0  0  0  0  0  0  0  0  0  0  0  0
   13.4721  -29.8752    4.0866 O   0  0  0  0  0  0  0  0  0  0  0  0
  1  2  1  6  0  0  0
  1  8  1  0  0  0  0
  1 36  1  0  0  0  0
  3  4  1  6  0  0  0
  3 10  1  0  0  0  0
  3 47  1  0  0  0  0
  5 11  1  0  0  0  0
  5 30  1  0  0  0  0
  5 38  1  1  0  0  0
  6 21  1  1  0  0  0
  6 42  1  0  0  0  0
  7 15  1  0  0  0  0
  7 44  1  0  0  0  0
  7 32  1  6  0  0  0
  8  9  1  6  0  0  0
  8 17  1  0  0  0  0
 11 12  1  6  0  0  0
 11 20  1  0  0  0  0
 13  6  1  0  0  0  0
 13 14  1  6  0  0  0
 15 16  1  6  0  0  0
 15 24  1  0  0  0  0
 17 26  1  0  0  0  0
 18 10  1  0  0  0  0
 18 19  1  6  0  0  0
 20 21  1  6  0  0  0
 20 29  1  0  0  0  0
 22 13  1  0  0  0  0
 22 23  1  6  0  0  0
 24 25  1  1  0  0  0
 24 33  1  0  0  0  0
 26 27  1  6  0  0  0
 26 35  1  0  0  0  0
 28  2  1  1  0  0  0
 28 18  1  0  0  0  0
 29 30  1  0  0  0  0
 29 39  1  1  0  0  0
 31 22  1  0  0  0  0
 31 32  1  1  0  0  0
 31 41  1  0  0  0  0
 33 34  1  6  0  0  0
 33 43  1  0  0  0  0
 35 36  1  0  0  0  0
 35 45  1  1  0  0  0
 37 28  1  0  0  0  0
 37 38  1  6  0  0  0
 39 40  1  0  0  0  0
 41 42  1  0  0  0  0
 41 49  1  6  0  0  0
 43 44  1  0  0  0  0
 43 51  1  1  0  0  0
 45 46  1  0  0  0  0
 47 37  1  0  0  0  0
 47 48  1  1  0  0  0
 49 50  1  0  0  0  0
 51 52  1  0  0  0  0
M  END
>  <CHROM.1>
-136.95431785,85.74628172,-36.85057195,61.66451553,123.27345307,105.94349944
59.08048922,68.52881089,50.67918593,-74.37101339,-75.00455777,55.59220824
10.39715546,-25.15273417,5.08977332,-1.91856920,0.99537364,-1.84511774

>  <Name>
2fd0_lig

>  <RI>
0

>  <Rbt.Current_Directory>
/home/itssahil/PROJECTS/Mol_Feturizer/New_Systems/rnas/2fd0

>  <Rbt.Executable>
rbdock ($Id: //depot/dev/client3/rdock/2013.1/src/exe/rbdock.cxx#4 $)

>  <Rbt.Library>
libRbt.so (2013.1, Build901 2013/11/27)

>  <Rbt.Parameter_File>
/export/apps/rDock/src/rDock_2013.1_src/data/scripts/dock_solv.prm

>  <Rbt.Receptor>
prm/blind_docking_40.prm

>  <SCORE>
34.6026

>  <SCORE.INTER>
-1.06773

>  <SCORE.INTER.CONST>
1

>  <SCORE.INTER.POLAR>
0

>  <SCORE.INTER.ROT>
12

>  <SCORE.INTER.SOLV>
19.4221

>  <SCORE.INTER.VDW>
-18.7859

>  <SCORE.INTER.norm>
-0.0205332

>  <SCORE.INTRA>
6.66752

>  <SCORE.INTRA.DIHEDRAL>
4.26979

>  <SCORE.INTRA.DIHEDRAL.0>
23.9727

>  <SCORE.INTRA.POLAR>
0

>  <SCORE.INTRA.POLAR.0>
0

>  <SCORE.INTRA.REPUL>
0.0437574

>  <SCORE.INTRA.REPUL.0>
0

>  <SCORE.INTRA.SOLV>
3.02123

>  <SCORE.INTRA.SOLV.lig_0>
-115.028

>  <SCORE.INTRA.VDW>
2.80322

>  <SCORE.INTRA.VDW.0>
-6.82393

>  <SCORE.INTRA.norm>
0.128222

>  <SCORE.RESTR>
29.0029

>  <SCORE.RESTR.CAVITY>
29.0029

>  <SCORE.RESTR.norm>
0.557747

>  <SCORE.SYSTEM>
0

>  <SCORE.SYSTEM.CONST>
0

>  <SCORE.SYSTEM.DIHEDRAL>
0

>  <SCORE.SYSTEM.SOLV>
0

>  <SCORE.SYSTEM.norm>
0

>  <SCORE.heavy>
52

>  <SCORE.norm>
0.665436

>  <RMSD>
26.785

$$$$
2fd0_lig
 OpenBabel11021811433D
libRbt.so/2013.1/901 2013/11/27
 52 56  0  0  0  0  0  0  0  0999 V2000
    9.4186  -22.0120    7.2736 C   0  0  2  0  0  0  0  0  0  0  0  0
    9.6091  -22.4280    8.6329 O   0  0  0  0  0  0  0  0  0  0  0  0
   12.0714  -25.4187   10.6040 C   0  0  2  0  0  0  0  0  0  0  0  0
   12.6044  -26.7164   11.0499 N   0  0  0  0  0  0  0  0  0  0  0  0
   10.9871  -24.7667    6.2796 C   0  0  1  0  0  0  0  0  0  0  0  0
   10.1132  -26.9554    3.8970 C   0  0  1  0  0  0  0  0  0  0  0  0
   11.8731  -26.2814    0.5798 C   0  0  1  0  0  0  0  0  0  0  0  0
    8.5332  -20.7129    7.2677 C   0  0  2  0  0  0  0  0  0  0  0  0
    9.1256  -19.6490    8.0664 N   0  0  0  0  0  0  0  0  0  0  0  0
   10.5423  -25.2767   11.0223 C   0  0  0  0  0  0  0  0  0  0  0  0
   12.0405  -25.7981    5.9189 C   0  0  2  0  0  0  0  0  0  0  0  0
   12.6948  -25.4989    4.6538 O   0  0  0  0  0  0  0  0  0  0  0  0
    9.6237  -27.9897    2.7790 C   0  0  2  0  0  0  0  0  0  0  0  0
   10.7901  -28.5755    2.0637 N   0  0  0  0  0  0  0  0  0  0  0  0
   12.2630  -26.8034   -0.8213 C   0  0  1  0  0  0  0  0  0  0  0  0
   11.9394  -25.7931   -1.8085 O   0  0  0  0  0  0  0  0  0  0  0  0
    7.0716  -21.0441    7.7478 C   0  0  0  0  0  0  0  0  0  0  0  0
    9.9672  -23.8585   10.5455 C   0  0  2  0  0  0  0  0  0  0  0  0
    8.5534  -23.7028   10.9179 N   0  0  0  0  0  0  0  0  0  0  0  0
   11.2699  -27.1062    5.9789 C   0  0  2  0  0  0  0  0  0  0  0  0
   11.0418  -27.6266    4.6975 O   0  0  0  0  0  0  0  0  0  0  0  0
    8.5508  -27.2202    1.8475 C   0  0  1  0  0  0  0  0  0  0  0  0
    7.4945  -26.7342    2.6954 O   0  0  0  0  0  0  0  0  0  0  0  0
   13.7386  -27.2349   -1.0388 C   0  0  1  0  0  0  0  0  0  0  0  0
   14.4566  -26.1073   -1.5559 O   0  0  0  0  0  0  0  0  0  0  0  0
    6.4978  -22.1830    6.8432 C   0  0  2  0  0  0  0  0  0  0  0  0
    5.1658  -22.5003    7.2347 O   0  0  0  0  0  0  0  0  0  0  0  0
   10.1312  -23.7341    9.0050 C   0  0  2  0  0  0  0  0  0  0  0  0
    9.8638  -26.8266    6.5613 C   0  0  2  0  0  0  0  0  0  0  0  0
    9.9613  -25.4672    6.9615 O   0  0  0  0  0  0  0  0  0  0  0  0
    9.1970  -25.9235    1.1296 C   0  0  2  0  0  0  0  0  0  0  0  0
   10.2320  -26.4578    0.2829 O   0  0  0  0  0  0  0  0  0  0  0  0
   14.4816  -27.7690    0.2075 C   0  0  2  0  0  0  0  0  0  0  0  0
   15.2572  -28.8973   -0.2525 O   0  0  0  0  0  0  0  0  0  0  0  0
    7.4004  -23.4441    6.9641 C   0  0  2  0  0  0  0  0  0  0  0  0
    8.7675  -23.0766    6.5334 O   0  0  0  0  0  0  0  0  0  0  0  0
   11.6066  -23.9237    8.5376 C   0  0  2  0  0  0  0  0  0  0  0  0
   11.6212  -23.8310    7.0929 O   0  0  0  0  0  0  0  0  0  0  0  0
    9.4920  -27.6601    7.7826 C   0  0  0  0  0  0  0  0  0  0  0  0
    9.9035  -29.0088    7.5127 O   0  0  0  0  0  0  0  0  0  0  0  0
    9.8479  -25.1223    2.2413 C   0  0  1  0  0  0  0  0  0  0  0  0
   10.6991  -25.6798    3.2644 O   0  0  0  0  0  0  0  0  0  0  0  0
   13.5002  -28.1170    1.3235 C   0  0  2  0  0  0  0  0  0  0  0  0
   12.5542  -27.0627    1.6535 O   0  0  0  0  0  0  0  0  0  0  0  0
    6.9242  -24.5622    6.0922 C   0  0  0  0  0  0  0  0  0  0  0  0
    7.2334  -25.7718    6.7302 O   0  0  0  0  0  0  0  0  0  0  0  0
   12.1544  -25.3136    9.0282 C   0  0  1  0  0  0  0  0  0  0  0  0
   13.5594  -25.4343    8.6151 O   0  0  0  0  0  0  0  0  0  0  0  0
   10.5782  -23.8310    1.7278 C   0  0  0  0  0  0  0  0  0  0  0  0
    9.6703  -22.8502    1.0850 N   0  0  0  0  0  0  0  0  0  0  0  0
   13.9685  -28.6574    2.6727 C   0  0  0  0  0  0  0  0  0  0  0  0
   13.9670  -30.1184    2.6633 O   0  0  0  0  0  0  0  0  0  0  0  0
  1  2  1  1  0  0  0
  1  8  1  0  0  0  0
  1 36  1  0  0  0  0
  3  4  1  6  0  0  0
  3 10  1  0  0  0  0
  3 47  1  0  0  0  0
  5 11  1  0  0  0  0
  5 30  1  0  0  0  0
  5 38  1  1  0  0  0
  6 21  1  6  0  0  0
  6 42  1  0  0  0  0
  7 15  1  0  0  0  0
  7 44  1  0  0  0  0
  7 32  1  1  0  0  0
  8  9  1  1  0  0  0
  8 17  1  0  0  0  0
 11 12  1  6  0  0  0
 11 20  1  0  0  0  0
 13  6  1  0  0  0  0
 13 14  1  6  0  0  0
 15 16  1  6  0  0  0
 15 24  1  0  0  0  0
 17 26  1  0  0  0  0
 18 10  1  0  0  0  0
 18 19  1  6  0  0  0
 20 21  1  6  0  0  0
 20 29  1  0  0  0  0
 22 13  1  0  0  0  0
 22 23  1  1  0  0  0
 24 25  1  1  0  0  0
 24 33  1  0  0  0  0
 26 27  1  1  0  0  0
 26 35  1  0  0  0  0
 28  2  1  1  0  0  0
 28 18  1  0  0  0  0
 29 30  1  0  0  0  0
 29 39  1  1  0  0  0
 31 22  1  0  0  0  0
 31 32  1  6  0  0  0
 31 41  1  0  0  0  0
 33 34  1  6  0  0  0
 33 43  1  0  0  0  0
 35 36  1  0  0  0  0
 35 45  1  6  0  0  0
 37 28  1  0  0  0  0
 37 38  1  6  0  0  0
 39 40  1  0  0  0  0
 41 42  1  0  0  0  0
 41 49  1  6  0  0  0
 43 44  1  0  0  0  0
 43 51  1  1  0  0  0
 45 46  1  0  0  0  0
 47 37  1  0  0  0  0
 47 48  1  1  0  0  0
 49 50  1  0  0  0  0
 51 52  1  0  0  0  0
M  END
>  <CHROM.1>
166.53106792,-93.61465746,-159.03990350,-168.74909705,-71.36418314,-171.26573027
-43.76320342,-108.64913365,-147.89865969,-65.41681747,62.46728919,-92.86264580
10.60133073,-25.49774517,4.94135807,2.05888177,-0.73127695,1.48553953

>  <Name>
2fd0_lig

>  <RI>
0

>  <Rbt.Current_Directory>
/home/itssahil/PROJECTS/Mol_Feturizer/New_Systems/rnas/2fd0

>  <Rbt.Executable>
rbdock ($Id: //depot/dev/client3/rdock/2013.1/src/exe/rbdock.cxx#4 $)

>  <Rbt.Library>
libRbt.so (2013.1, Build901 2013/11/27)

>  <Rbt.Parameter_File>
/export/apps/rDock/src/rDock_2013.1_src/data/scripts/dock_solv.prm

>  <Rbt.Receptor>
prm/blind_docking_40.prm

>  <SCORE>
21.72

>  <SCORE.INTER>
0.192654

>  <SCORE.INTER.CONST>
1

>  <SCORE.INTER.POLAR>
-0.7822

>  <SCORE.INTER.ROT>
12

>  <SCORE.INTER.SOLV>
30.9447

>  <SCORE.INTER.VDW>
-19.1791

>  <SCORE.INTER.norm>
0.00370489

>  <SCORE.INTRA>
6.6631

>  <SCORE.INTRA.DIHEDRAL>
-0.963382

>  <SCORE.INTRA.DIHEDRAL.0>
23.9727

>  <SCORE.INTRA.POLAR>
0

>  <SCORE.INTRA.POLAR.0>
0

>  <SCORE.INTRA.REPUL>
0.367948

>  <SCORE.INTRA.REPUL.0>
0

>  <SCORE.INTRA.SOLV>
3.34604

>  <SCORE.INTRA.SOLV.lig_0>
-115.028

>  <SCORE.INTRA.VDW>
3.63203

>  <SCORE.INTRA.VDW.0>
-6.82393

>  <SCORE.INTRA.norm>
0.128136

>  <SCORE.RESTR>
14.8642

>  <SCORE.RESTR.CAVITY>
14.8642

>  <SCORE.RESTR.norm>
0.28585

>  <SCORE.SYSTEM>
0

>  <SCORE.SYSTEM.CONST>
0

>  <SCORE.SYSTEM.DIHEDRAL>
0

>  <SCORE.SYSTEM.SOLV>
0

>  <SCORE.SYSTEM.norm>
0

>  <SCORE.heavy>
52

>  <SCORE.norm>
0.417692

>  <RMSD>
26.795

$$$$
2fd0_lig
 OpenBabel11021811433D
libRbt.so/2013.1/901 2013/11/27
 52 56  0  0  0  0  0  0  0  0999 V2000
   10.8474  -25.8294    9.8556 C   0  0  2  0  0  0  0  0  0  0  0  0
   10.4919  -24.9860    8.7514 O   0  0  0  0  0  0  0  0  0  0  0  0
   12.1893  -26.9176    5.2471 C   0  0  2  0  0  0  0  0  0  0  0  0
   12.3866  -27.3748    3.8618 N   0  0  0  0  0  0  0  0  0  0  0  0
   10.8787  -22.6556    6.3809 C   0  0  1  0  0  0  0  0  0  0  0  0
    8.0309  -22.7932    3.0288 C   0  0  1  0  0  0  0  0  0  0  0  0
   10.5781  -26.4530    0.4914 C   0  0  1  0  0  0  0  0  0  0  0  0
   10.9137  -24.9487   11.1562 C   0  0  2  0  0  0  0  0  0  0  0  0
    9.6580  -24.2547   11.4060 N   0  0  0  0  0  0  0  0  0  0  0  0
   10.7787  -27.4100    5.7955 C   0  0  0  0  0  0  0  0  0  0  0  0
   10.4223  -23.3338    5.1021 C   0  0  2  0  0  0  0  0  0  0  0  0
   11.0180  -22.7344    3.9172 O   0  0  0  0  0  0  0  0  0  0  0  0
    7.5045  -24.2924    3.2143 C   0  0  2  0  0  0  0  0  0  0  0  0
    8.5058  -25.1094    3.9527 N   0  0  0  0  0  0  0  0  0  0  0  0
   10.3009  -27.8572    1.0736 C   0  0  1  0  0  0  0  0  0  0  0  0
    9.1060  -28.3968    0.4564 O   0  0  0  0  0  0  0  0  0  0  0  0
   12.1193  -23.9407   11.0743 C   0  0  0  0  0  0  0  0  0  0  0  0
   10.5710  -26.9205    7.3076 C   0  0  2  0  0  0  0  0  0  0  0  0
    9.2722  -27.3607    7.8380 N   0  0  0  0  0  0  0  0  0  0  0  0
    8.9079  -23.2580    5.1990 C   0  0  2  0  0  0  0  0  0  0  0  0
    8.3823  -22.3225    4.2972 O   0  0  0  0  0  0  0  0  0  0  0  0
    7.0981  -24.8449    1.7512 C   0  0  1  0  0  0  0  0  0  0  0  0
    6.1206  -23.9479    1.1937 O   0  0  0  0  0  0  0  0  0  0  0  0
   11.4282  -28.9180    0.9504 C   0  0  1  0  0  0  0  0  0  0  0  0
   11.2004  -29.6668   -0.2502 O   0  0  0  0  0  0  0  0  0  0  0  0
   13.4296  -24.7536   10.8152 C   0  0  2  0  0  0  0  0  0  0  0  0
   14.5501  -23.8768   10.7524 O   0  0  0  0  0  0  0  0  0  0  0  0
   10.6721  -25.3704    7.3597 C   0  0  2  0  0  0  0  0  0  0  0  0
    8.5271  -22.7294    6.6026 C   0  0  2  0  0  0  0  0  0  0  0  0
    9.7790  -22.7075    7.2731 O   0  0  0  0  0  0  0  0  0  0  0  0
    8.3561  -24.8420    0.7355 C   0  0  2  0  0  0  0  0  0  0  0  0
    9.2961  -25.7615    1.3226 O   0  0  0  0  0  0  0  0  0  0  0  0
   12.8751  -28.3732    0.9302 C   0  0  2  0  0  0  0  0  0  0  0  0
   13.6466  -29.2806    1.7475 O   0  0  0  0  0  0  0  0  0  0  0  0
   13.2956  -25.5388    9.4790 C   0  0  2  0  0  0  0  0  0  0  0  0
   12.1333  -26.4475    9.5920 O   0  0  0  0  0  0  0  0  0  0  0  0
   12.0156  -24.8332    6.7788 C   0  0  2  0  0  0  0  0  0  0  0  0
   11.9702  -23.3875    6.8414 O   0  0  0  0  0  0  0  0  0  0  0  0
    7.5756  -23.6205    7.3932 C   0  0  0  0  0  0  0  0  0  0  0  0
    7.3795  -22.9969    8.6714 O   0  0  0  0  0  0  0  0  0  0  0  0
    8.9384  -23.4431    0.8094 C   0  0  1  0  0  0  0  0  0  0  0  0
    9.2047  -22.7287    2.0345 O   0  0  0  0  0  0  0  0  0  0  0  0
   12.9227  -26.9260    1.4128 C   0  0  2  0  0  0  0  0  0  0  0  0
   11.9862  -26.0319    0.7504 O   0  0  0  0  0  0  0  0  0  0  0  0
   14.5064  -26.3680    9.1901 C   0  0  0  0  0  0  0  0  0  0  0  0
   14.4041  -26.8416    7.8745 O   0  0  0  0  0  0  0  0  0  0  0  0
   12.2054  -25.3371    5.3014 C   0  0  1  0  0  0  0  0  0  0  0  0
   13.5025  -24.8556    4.8064 O   0  0  0  0  0  0  0  0  0  0  0  0
   10.2140  -23.2555   -0.0863 C   0  0  0  0  0  0  0  0  0  0  0  0
   10.7497  -21.8727   -0.0760 N   0  0  0  0  0  0  0  0  0  0  0  0
   14.2299  -26.1397    1.4829 C   0  0  0  0  0  0  0  0  0  0  0  0
   14.8695  -26.0989    0.1701 O   0  0  0  0  0  0  0  0  0  0  0  0
  1  2  1  6  0  0  0
  1  8  1  0  0  0  0
  1 36  1  0  0  0  0
  3  4  1  6  0  0  0
  3 10  1  0  0  0  0
  3 47  1  0  0  0  0
  5 11  1  0  0  0  0
  5 30  1  0  0  0  0
  5 38  1  1  0  0  0
  6 21  1  1  0  0  0
  6 42  1  0  0  0  0
  7 15  1  0  0  0  0
  7 44  1  0  0  0  0
  7 32  1  1  0  0  0
  8  9  1  6  0  0  0
  8 17  1  0  0  0  0
 11 12  1  6  0  0  0
 11 20  1  0  0  0  0
 13  6  1  0  0  0  0
 13 14  1  6  0  0  0
 15 16  1  6  0  0  0
 15 24  1  0  0  0  0
 17 26  1  0  0  0  0
 18 10  1  0  0  0  0
 18 19  1  6  0  0  0
 20 21  1  6  0  0  0
 20 29  1  0  0  0  0
 22 13  1  0  0  0  0
 22 23  1  6  0  0  0
 24 25  1  6  0  0  0
 24 33  1  0  0  0  0
 26 27  1  6  0  0  0
 26 35  1  0  0  0  0
 28  2  1  1  0  0  0
 28 18  1  0  0  0  0
 29 30  1  0  0  0  0
 29 39  1  1  0  0  0
 31 22  1  0  0  0  0
 31 32  1  1  0  0  0
 31 41  1  0  0  0  0
 33 34  1  1  0  0  0
 33 43  1  0  0  0  0
 35 36  1  0  0  0  0
 35 45  1  1  0  0  0
 37 28  1  0  0  0  0
 37 38  1  6  0  0  0
 39 40  1  0  0  0  0
 41 42  1  0  0  0  0
 41 49  1  1  0  0  0
 43 44  1  0  0  0  0
 43 51  1  6  0  0  0
 45 46  1  0  0  0  0
 47 37  1  0  0  0  0
 47 48  1  1  0  0  0
 49 50  1  0  0  0  0
 51 52  1  0  0  0  0
M  END
>  <CHROM.1>
163.51661771,-39.84905766,33.63521194,-135.32662226,90.68548726,28.50359514
177.95913656,162.54310286,-169.52959465,-48.65476966,176.99993161,57.42379648
10.82644569,-25.20677328,4.84726859,-1.41332368,0.65882054,-1.81263747

>  <Name>
2fd0_lig

>  <RI>
0

>  <Rbt.Current_Directory>
/home/itssahil/PROJECTS/Mol_Feturizer/New_Systems/rnas/2fd0

>  <Rbt.Executable>
rbdock ($Id: //depot/dev/client3/rdock/2013.1/src/exe/rbdock.cxx#4 $)

>  <Rbt.Library>
libRbt.so (2013.1, Build901 2013/11/27)

>  <Rbt.Parameter_File>
/export/apps/rDock/src/rDock_2013.1_src/data/scripts/dock_solv.prm

>  <Rbt.Receptor>
prm/blind_docking_40.prm

>  <SCORE>
37.8784

>  <SCORE.INTER>
3.88713

>  <SCORE.INTER.CONST>
1

>  <SCORE.INTER.POLAR>
0

>  <SCORE.INTER.ROT>
12

>  <SCORE.INTER.SOLV>
28.6197

>  <SCORE.INTER.VDW>
-18.5485

>  <SCORE.INTER.norm>
0.0747526

>  <SCORE.INTRA>
20.0058

>  <SCORE.INTRA.DIHEDRAL>
-0.298539

>  <SCORE.INTRA.DIHEDRAL.0>
23.9727

>  <SCORE.INTRA.POLAR>
0

>  <SCORE.INTRA.POLAR.0>
0

>  <SCORE.INTRA.REPUL>
0.0756939

>  <SCORE.INTRA.REPUL.0>
0

>  <SCORE.INTRA.SOLV>
9.74098

>  <SCORE.INTRA.SOLV.lig_0>
-115.028

>  <SCORE.INTRA.VDW>
14.9061

>  <SCORE.INTRA.VDW.0>
-6.82393

>  <SCORE.INTRA.norm>
0.384726

>  <SCORE.RESTR>
13.9855

>  <SCORE.RESTR.CAVITY>
13.9855

>  <SCORE.RESTR.norm>
0.268952

>  <SCORE.SYSTEM>
0

>  <SCORE.SYSTEM.CONST>
0

>  <SCORE.SYSTEM.DIHEDRAL>
0

>  <SCORE.SYSTEM.SOLV>
0

>  <SCORE.SYSTEM.norm>
0

>  <SCORE.heavy>
52

>  <SCORE.norm>
0.728431

>  <RMSD>
26.822

$$$$
2fd0_lig
 OpenBabel11021811433D
libRbt.so/2013.1/901 2013/11/27
 52 56  0  0  0  0  0  0  0  0999 V2000
   10.3368  -24.4854    9.3003 C   0  0  2  0  0  0  0  0  0  0  0  0
   10.5652  -23.6816    8.1347 O   0  0  0  0  0  0  0  0  0  0  0  0
    6.8993  -21.8097    6.7384 C   0  0  2  0  0  0  0  0  0  0  0  0
    5.9206  -20.7908    6.3249 N   0  0  0  0  0  0  0  0  0  0  0  0
   10.6105  -23.6499    4.3074 C   0  0  1  0  0  0  0  0  0  0  0  0
   10.4702  -26.3498    2.4860 C   0  0  1  0  0  0  0  0  0  0  0  0
   12.6494  -29.4650   -0.2868 C   0  0  1  0  0  0  0  0  0  0  0  0
   11.6804  -24.5844   10.1105 C   0  0  2  0  0  0  0  0  0  0  0  0
   12.1957  -23.2704   10.4691 N   0  0  0  0  0  0  0  0  0  0  0  0
    7.3949  -21.5283    8.2244 C   0  0  0  0  0  0  0  0  0  0  0  0
    9.2595  -24.2586    3.9791 C   0  0  2  0  0  0  0  0  0  0  0  0
    9.0530  -25.5354    4.6465 O   0  0  0  0  0  0  0  0  0  0  0  0
   11.5447  -26.4997    1.3102 C   0  0  2  0  0  0  0  0  0  0  0  0
   10.9017  -27.0413    0.0819 N   0  0  0  0  0  0  0  0  0  0  0  0
   14.0255  -29.6242    0.3978 C   0  0  1  0  0  0  0  0  0  0  0  0
   14.1490  -30.9776    0.9006 O   0  0  0  0  0  0  0  0  0  0  0  0
   12.7453  -25.4176    9.3054 C   0  0  0  0  0  0  0  0  0  0  0  0
    8.4520  -22.6452    8.6764 C   0  0  2  0  0  0  0  0  0  0  0  0
    8.9285  -22.4065   10.0467 N   0  0  0  0  0  0  0  0  0  0  0  0
    9.2618  -24.2921    2.4601 C   0  0  2  0  0  0  0  0  0  0  0  0
    9.4069  -25.5995    1.9760 O   0  0  0  0  0  0  0  0  0  0  0  0
   12.7769  -27.3684    1.8916 C   0  0  1  0  0  0  0  0  0  0  0  0
   13.2809  -26.6970    3.0605 O   0  0  0  0  0  0  0  0  0  0  0  0
   15.2872  -29.3079   -0.4503 C   0  0  1  0  0  0  0  0  0  0  0  0
   15.7410  -30.5329   -1.0401 O   0  0  0  0  0  0  0  0  0  0  0  0
   12.1291  -26.8136    8.9643 C   0  0  2  0  0  0  0  0  0  0  0  0
   13.0709  -27.6073    8.2494 O   0  0  0  0  0  0  0  0  0  0  0  0
    9.6499  -22.6433    7.6860 C   0  0  2  0  0  0  0  0  0  0  0  0
   10.5068  -23.5280    1.9496 C   0  0  2  0  0  0  0  0  0  0  0  0
   11.0303  -22.9613    3.1422 O   0  0  0  0  0  0  0  0  0  0  0  0
   12.3038  -28.8374    2.3738 C   0  0  2  0  0  0  0  0  0  0  0  0
   11.8258  -29.4745    1.1741 O   0  0  0  0  0  0  0  0  0  0  0  0
   15.1089  -28.2539   -1.5673 C   0  0  2  0  0  0  0  0  0  0  0  0
   16.3013  -27.4395   -1.5313 O   0  0  0  0  0  0  0  0  0  0  0  0
   10.8444  -26.6171    8.1095 C   0  0  2  0  0  0  0  0  0  0  0  0
    9.8883  -25.8038    8.8930 O   0  0  0  0  0  0  0  0  0  0  0  0
    9.2097  -22.8581    6.2057 C   0  0  2  0  0  0  0  0  0  0  0  0
   10.3995  -22.7917    5.3835 O   0  0  0  0  0  0  0  0  0  0  0  0
   10.2149  -22.3971    0.9697 C   0  0  0  0  0  0  0  0  0  0  0  0
    9.5146  -22.9745   -0.1427 O   0  0  0  0  0  0  0  0  0  0  0  0
   11.1247  -28.6041    3.2994 C   0  0  1  0  0  0  0  0  0  0  0  0
   10.0177  -27.7241    3.0124 O   0  0  0  0  0  0  0  0  0  0  0  0
   13.8207  -27.4592   -1.3706 C   0  0  2  0  0  0  0  0  0  0  0  0
   12.6281  -28.2696   -1.1799 O   0  0  0  0  0  0  0  0  0  0  0  0
   10.1847  -27.9181    7.7787 C   0  0  0  0  0  0  0  0  0  0  0  0
   10.5112  -28.8383    8.7848 O   0  0  0  0  0  0  0  0  0  0  0  0
    8.1630  -21.7612    5.7887 C   0  0  1  0  0  0  0  0  0  0  0  0
    7.7334  -22.0259    4.4086 O   0  0  0  0  0  0  0  0  0  0  0  0
   10.4904  -29.9340    3.8411 C   0  0  0  0  0  0  0  0  0  0  0  0
   11.2524  -30.5448    4.9572 N   0  0  0  0  0  0  0  0  0  0  0  0
   13.3937  -26.3585   -2.3391 C   0  0  0  0  0  0  0  0  0  0  0  0
   14.5519  -25.5725   -2.7579 O   0  0  0  0  0  0  0  0  0  0  0  0
  1  2  1  6  0  0  0
  1  8  1  0  0  0  0
  1 36  1  0  0  0  0
  3  4  1  6  0  0  0
  3 10  1  0  0  0  0
  3 47  1  0  0  0  0
  5 11  1  0  0  0  0
  5 30  1  0  0  0  0
  5 38  1  1  0  0  0
  6 21  1  6  0  0  0
  6 42  1  0  0  0  0
  7 15  1  0  0  0  0
  7 44  1  0  0  0  0
  7 32  1  1  0  0  0
  8  9  1  6  0  0  0
  8 17  1  0  0  0  0
 11 12  1  1  0  0  0
 11 20  1  0  0  0  0
 13  6  1  0  0  0  0
 13 14  1  6  0  0  0
 15 16  1  6  0  0  0
 15 24  1  0  0  0  0
 17 26  1  0  0  0  0
 18 10  1  0  0  0  0
 18 19  1  1  0  0  0
 20 21  1  1  0  0  0
 20 29  1  0  0  0  0
 22 13  1  0  0  0  0
 22 23  1  1  0  0  0
 24 25  1  6  0  0  0
 24 33  1  0  0  0  0
 26 27  1  6  0  0  0
 26 35  1  0  0  0  0
 28  2  1  1  0  0  0
 28 18  1  0  0  0  0
 29 30  1  0  0  0  0
 29 39  1  6  0  0  0
 31 22  1  0  0  0  0
 31 32  1  6  0  0  0
 31 41  1  0  0  0  0
 33 34  1  1  0  0  0
 33 43  1  0  0  0  0
 35 36  1  0  0  0  0
 35 45  1  1  0  0  0
 37 28  1  0  0  0  0
 37 38  1  6  0  0  0
 39 40  1  0  0  0  0
 41 42  1  0  0  0  0
 41 49  1  6  0  0  0
 43 44  1  0  0  0  0
 43 51  1  6  0  0  0
 45 46  1  0  0  0  0
 47 37  1  0  0  0  0
 47 48  1  6  0  0  0
 49 50  1  0  0  0  0
 51 52  1  0  0  0  0
M  END
>  <CHROM.1>
-135.69076580,16.76677785,-109.03661633,38.48480877,-51.37339815,-1.24966458
-57.91820713,46.78616200,26.88259611,139.73805340,78.92963979,-39.89967543
11.16705709,-25.87149874,3.93789347,-2.40055477,0.99822620,-1.34364329

>  <Name>
2fd0_lig

>  <RI>
0

>  <Rbt.Current_Directory>
/home/itssahil/PROJECTS/Mol_Feturizer/New_Systems/rnas/2fd0

>  <Rbt.Executable>
rbdock ($Id: //depot/dev/client3/rdock/2013.1/src/exe/rbdock.cxx#4 $)

>  <Rbt.Library>
libRbt.so (2013.1, Build901 2013/11/27)

>  <Rbt.Parameter_File>
/export/apps/rDock/src/rDock_2013.1_src/data/scripts/dock_solv.prm

>  <Rbt.Receptor>
prm/blind_docking_40.prm

>  <SCORE>
31.7866

>  <SCORE.INTER>
-10.6016

>  <SCORE.INTER.CONST>
1

>  <SCORE.INTER.POLAR>
-0.637974

>  <SCORE.INTER.ROT>
12

>  <SCORE.INTER.SOLV>
15.2869

>  <SCORE.INTER.VDW>
-21.6368

>  <SCORE.INTER.norm>
-0.203878

>  <SCORE.INTRA>
21.4429

>  <SCORE.INTRA.DIHEDRAL>
16.9047

>  <SCORE.INTRA.DIHEDRAL.0>
23.9727

>  <SCORE.INTRA.POLAR>
0

>  <SCORE.INTRA.POLAR.0>
0

>  <SCORE.INTRA.REPUL>
0

>  <SCORE.INTRA.REPUL.0>
0

>  <SCORE.INTRA.SOLV>
4.00247

>  <SCORE.INTRA.SOLV.lig_0>
-115.028

>  <SCORE.INTRA.VDW>
10.9893

>  <SCORE.INTRA.VDW.0>
-6.82393

>  <SCORE.INTRA.norm>
0.412363

>  <SCORE.RESTR>
20.9454

>  <SCORE.RESTR.CAVITY>
20.9454

>  <SCORE.RESTR.norm>
0.402796

>  <SCORE.SYSTEM>
0

>  <SCORE.SYSTEM.CONST>
0

>  <SCORE.SYSTEM.DIHEDRAL>
0

>  <SCORE.SYSTEM.SOLV>
0

>  <SCORE.SYSTEM.norm>
0

>  <SCORE.heavy>
52

>  <SCORE.norm>
0.611281

>  <RMSD>
26.840

$$$$
2fd0_lig
 OpenBabel11021811433D
libRbt.so/2013.1/901 2013/11/27
 52 56  0  0  0  0  0  0  0  0999 V2000
   11.5195  -25.2686    7.9107 C   0  0  2  0  0  0  0  0  0  0  0  0
   10.7809  -24.9857    9.1070 O   0  0  0  0  0  0  0  0  0  0  0  0
    7.7435  -21.9121    9.5765 C   0  0  2  0  0  0  0  0  0  0  0  0
    7.0866  -20.6349    9.8991 N   0  0  0  0  0  0  0  0  0  0  0  0
   10.4405  -22.9435    5.7906 C   0  0  1  0  0  0  0  0  0  0  0  0
    9.4322  -25.9046    2.4485 C   0  0  1  0  0  0  0  0  0  0  0  0
   12.4524  -28.9657   -0.1345 C   0  0  1  0  0  0  0  0  0  0  0  0
   11.8368  -26.8079    7.8713 C   0  0  2  0  0  0  0  0  0  0  0  0
   10.6259  -27.6135    7.9461 N   0  0  0  0  0  0  0  0  0  0  0  0
    8.4377  -22.5191   10.8737 C   0  0  0  0  0  0  0  0  0  0  0  0
   10.4688  -24.4261    5.4671 C   0  0  2  0  0  0  0  0  0  0  0  0
   11.7934  -24.8783    5.0681 O   0  0  0  0  0  0  0  0  0  0  0  0
    9.9067  -27.2011    3.2568 C   0  0  2  0  0  0  0  0  0  0  0  0
   11.3760  -27.1611    3.4910 N   0  0  0  0  0  0  0  0  0  0  0  0
   13.6831  -28.8646    0.7944 C   0  0  1  0  0  0  0  0  0  0  0  0
   13.7496  -30.0529    1.6210 O   0  0  0  0  0  0  0  0  0  0  0  0
   12.8495  -27.1878    9.0143 C   0  0  0  0  0  0  0  0  0  0  0  0
    9.1428  -23.9151   10.5225 C   0  0  2  0  0  0  0  0  0  0  0  0
    9.7950  -24.4966   11.7051 N   0  0  0  0  0  0  0  0  0  0  0  0
    9.3729  -24.5674    4.4242 C   0  0  2  0  0  0  0  0  0  0  0  0
    9.9057  -24.7903    3.1470 O   0  0  0  0  0  0  0  0  0  0  0  0
    9.3648  -28.4944    2.4540 C   0  0  1  0  0  0  0  0  0  0  0  0
    7.9361  -28.3740    2.3308 O   0  0  0  0  0  0  0  0  0  0  0  0
   15.0698  -28.6645    0.1252 C   0  0  1  0  0  0  0  0  0  0  0  0
   15.6583  -29.9573   -0.0661 O   0  0  0  0  0  0  0  0  0  0  0  0
   14.1236  -26.2937    8.8663 C   0  0  2  0  0  0  0  0  0  0  0  0
   15.0754  -26.6202    9.8742 O   0  0  0  0  0  0  0  0  0  0  0  0
   10.1866  -23.6887    9.3934 C   0  0  2  0  0  0  0  0  0  0  0  0
    8.6124  -23.2239    4.3196 C   0  0  2  0  0  0  0  0  0  0  0  0
    9.1646  -22.4735    5.3918 O   0  0  0  0  0  0  0  0  0  0  0  0
    9.9518  -28.5586    0.9488 C   0  0  2  0  0  0  0  0  0  0  0  0
   11.3749  -28.6955    1.1218 O   0  0  0  0  0  0  0  0  0  0  0  0
   15.0707  -27.9125   -1.2258 C   0  0  2  0  0  0  0  0  0  0  0  0
   16.2131  -27.0296   -1.1818 O   0  0  0  0  0  0  0  0  0  0  0  0
   13.7210  -24.7957    8.9829 C   0  0  2  0  0  0  0  0  0  0  0  0
   12.7467  -24.4946    7.9108 O   0  0  0  0  0  0  0  0  0  0  0  0
    9.5659  -23.0408    8.1184 C   0  0  2  0  0  0  0  0  0  0  0  0
   10.6373  -22.8414    7.1653 O   0  0  0  0  0  0  0  0  0  0  0  0
    7.1046  -23.3163    4.5261 C   0  0  0  0  0  0  0  0  0  0  0  0
    6.6418  -24.4340    3.7530 O   0  0  0  0  0  0  0  0  0  0  0  0
    9.6679  -27.1981    0.3406 C   0  0  1  0  0  0  0  0  0  0  0  0
    9.9298  -25.9373    0.9918 O   0  0  0  0  0  0  0  0  0  0  0  0
   13.7467  -27.1870   -1.4501 C   0  0  2  0  0  0  0  0  0  0  0  0
   12.5624  -28.0137   -1.2785 O   0  0  0  0  0  0  0  0  0  0  0  0
   14.8939  -23.8832    8.8136 C   0  0  0  0  0  0  0  0  0  0  0  0
   15.4226  -24.0895    7.5316 O   0  0  0  0  0  0  0  0  0  0  0  0
    8.8678  -21.6812    8.4884 C   0  0  1  0  0  0  0  0  0  0  0  0
    8.2512  -21.1271    7.2751 O   0  0  0  0  0  0  0  0  0  0  0  0
   10.2122  -27.0491   -1.1243 C   0  0  0  0  0  0  0  0  0  0  0  0
   10.8548  -25.7392   -1.3897 N   0  0  0  0  0  0  0  0  0  0  0  0
   13.4746  -26.3730   -2.7132 C   0  0  0  0  0  0  0  0  0  0  0  0
   14.6184  -25.5186   -3.0235 O   0  0  0  0  0  0  0  0  0  0  0  0
  1  2  1  1  0  0  0
  1  8  1  0  0  0  0
  1 36  1  0  0  0  0
  3  4  1  1  0  0  0
  3 10  1  0  0  0  0
  3 47  1  0  0  0  0
  5 11  1  0  0  0  0
  5 30  1  0  0  0  0
  5 38  1  1  0  0  0
  6 21  1  1  0  0  0
  6 42  1  0  0  0  0
  7 15  1  0  0  0  0
  7 44  1  0  0  0  0
  7 32  1  1  0  0  0
  8  9  1  1  0  0  0
  8 17  1  0  0  0  0
 11 12  1  6  0  0  0
 11 20  1  0  0  0  0
 13  6  1  0  0  0  0
 13 14  1  6  0  0  0
 15 16  1  6  0  0  0
 15 24  1  0  0  0  0
 17 26  1  0  0  0  0
 18 10  1  0  0  0  0
 18 19  1  1  0  0  0
 20 21  1  6  0  0  0
 20 29  1  0  0  0  0
 22 13  1  0  0  0  0
 22 23  1  6  0  0  0
 24 25  1  6  0  0  0
 24 33  1  0  0  0  0
 26 27  1  1  0  0  0
 26 35  1  0  0  0  0
 28  2  1  6  0  0  0
 28 18  1  0  0  0  0
 29 30  1  0  0  0  0
 29 39  1  1  0  0  0
 31 22  1  0  0  0  0
 31 32  1  1  0  0  0
 31 41  1  0  0  0  0
 33 34  1  1  0  0  0
 33 43  1  0  0  0  0
 35 36  1  0  0  0  0
 35 45  1  6  0  0  0
 37 28  1  0  0  0  0
 37 38  1  6  0  0  0
 39 40  1  0  0  0  0
 41 42  1  0  0  0  0
 41 49  1  6  0  0  0
 43 44  1  0  0  0  0
 43 51  1  6  0  0  0
 45 46  1  0  0  0  0
 47 37  1  0  0  0  0
 47 48  1  6  0  0  0
 49 50  1  0  0  0  0
 51 52  1  0  0  0  0
M  END
>  <CHROM.1>
-172.62976036,-80.78119565,-65.63171566,175.37494332,126.68740920,163.04575805
-45.62959294,173.42829119,61.22233195,146.54389421,-137.90488603,-45.82979132
11.24766944,-25.61712863,4.47692417,-1.86945909,0.45418218,-1.85960240

>  <Name>
2fd0_lig

>  <RI>
0

>  <Rbt.Current_Directory>
/home/itssahil/PROJECTS/Mol_Feturizer/New_Systems/rnas/2fd0

>  <Rbt.Executable>
rbdock ($Id: //depot/dev/client3/rdock/2013.1/src/exe/rbdock.cxx#4 $)

>  <Rbt.Library>
libRbt.so (2013.1, Build901 2013/11/27)

>  <Rbt.Parameter_File>
/export/apps/rDock/src/rDock_2013.1_src/data/scripts/dock_solv.prm

>  <Rbt.Receptor>
prm/blind_docking_40.prm

>  <SCORE>
28.1406

>  <SCORE.INTER>
0.813948

>  <SCORE.INTER.CONST>
1

>  <SCORE.INTER.POLAR>
0

>  <SCORE.INTER.ROT>
12

>  <SCORE.INTER.SOLV>
21.5141

>  <SCORE.INTER.VDW>
-18.2287

>  <SCORE.INTER.norm>
0.0156529

>  <SCORE.INTRA>
5.24614

>  <SCORE.INTRA.DIHEDRAL>
-3.12283

>  <SCORE.INTRA.DIHEDRAL.0>
23.9727

>  <SCORE.INTRA.POLAR>
0

>  <SCORE.INTRA.POLAR.0>
0

>  <SCORE.INTRA.REPUL>
0

>  <SCORE.INTRA.REPUL.0>
0

>  <SCORE.INTRA.SOLV>
3.22813

>  <SCORE.INTRA.SOLV.lig_0>
-115.028

>  <SCORE.INTRA.VDW>
5.19349

>  <SCORE.INTRA.VDW.0>
-6.82393

>  <SCORE.INTRA.norm>
0.100887

>  <SCORE.RESTR>
22.0805

>  <SCORE.RESTR.CAVITY>
22.0805

>  <SCORE.RESTR.norm>
0.424625

>  <SCORE.SYSTEM>
0

>  <SCORE.SYSTEM.CONST>
0

>  <SCORE.SYSTEM.DIHEDRAL>
0

>  <SCORE.SYSTEM.SOLV>
0

>  <SCORE.SYSTEM.norm>
0

>  <SCORE.heavy>
52

>  <SCORE.norm>
0.541165

>  <RMSD>
26.856

$$$$
2fd0_lig
 OpenBabel11021811433D
libRbt.so/2013.1/901 2013/11/27
 52 56  0  0  0  0  0  0  0  0999 V2000
   11.6909  -25.7491    9.8404 C   0  0  2  0  0  0  0  0  0  0  0  0
   11.6774  -24.6589    8.9086 O   0  0  0  0  0  0  0  0  0  0  0  0
    7.9549  -22.6080    9.8191 C   0  0  2  0  0  0  0  0  0  0  0  0
    6.9076  -21.5754    9.8804 N   0  0  0  0  0  0  0  0  0  0  0  0
    9.1868  -23.7073    5.7850 C   0  0  1  0  0  0  0  0  0  0  0  0
    7.8713  -22.5694    2.9203 C   0  0  1  0  0  0  0  0  0  0  0  0
   11.3287  -26.0246    0.9046 C   0  0  1  0  0  0  0  0  0  0  0  0
   12.9153  -26.6771    9.5065 C   0  0  2  0  0  0  0  0  0  0  0  0
   14.1739  -25.9452    9.5334 N   0  0  0  0  0  0  0  0  0  0  0  0
    9.3149  -22.0520   10.4310 C   0  0  0  0  0  0  0  0  0  0  0  0
    7.8052  -24.2346    5.4434 C   0  0  2  0  0  0  0  0  0  0  0  0
    7.8442  -25.2477    4.3993 O   0  0  0  0  0  0  0  0  0  0  0  0
    7.6143  -23.3023    1.5216 C   0  0  2  0  0  0  0  0  0  0  0  0
    7.3333  -24.7483    1.7343 N   0  0  0  0  0  0  0  0  0  0  0  0
   10.3871  -27.2409    1.0519 C   0  0  1  0  0  0  0  0  0  0  0  0
    9.4852  -27.2797   -0.0817 O   0  0  0  0  0  0  0  0  0  0  0  0
   12.6982  -27.3934    8.1222 C   0  0  0  0  0  0  0  0  0  0  0  0
   10.4507  -23.1817   10.3733 C   0  0  2  0  0  0  0  0  0  0  0  0
   11.7200  -22.6920   10.9310 N   0  0  0  0  0  0  0  0  0  0  0  0
    7.0297  -22.9694    5.1173 C   0  0  2  0  0  0  0  0  0  0  0  0
    6.7792  -22.8612    3.7424 O   0  0  0  0  0  0  0  0  0  0  0  0
    8.8744  -22.9714    0.5657 C   0  0  1  0  0  0  0  0  0  0  0  0
    8.9896  -21.5406    0.4623 O   0  0  0  0  0  0  0  0  0  0  0  0
   11.0437  -28.6408    1.1937 C   0  0  1  0  0  0  0  0  0  0  0  0
   11.1418  -29.2170   -0.1150 O   0  0  0  0  0  0  0  0  0  0  0  0
   11.3382  -28.1635    8.1693 C   0  0  2  0  0  0  0  0  0  0  0  0
   11.1126  -28.8423    6.9379 O   0  0  0  0  0  0  0  0  0  0  0  0
   10.6515  -23.6272    8.8979 C   0  0  2  0  0  0  0  0  0  0  0  0
    7.9084  -21.7451    5.4689 C   0  0  2  0  0  0  0  0  0  0  0  0
    9.0191  -22.3415    6.1232 O   0  0  0  0  0  0  0  0  0  0  0  0
   10.2654  -23.4997    1.1983 C   0  0  2  0  0  0  0  0  0  0  0  0
   10.1109  -24.9298    1.2663 O   0  0  0  0  0  0  0  0  0  0  0  0
   12.4398  -28.6729    1.8575 C   0  0  2  0  0  0  0  0  0  0  0  0
   12.4327  -29.8248    2.7290 O   0  0  0  0  0  0  0  0  0  0  0  0
   10.1830  -27.1574    8.4393 C   0  0  2  0  0  0  0  0  0  0  0  0
   10.4466  -26.4875    9.7321 O   0  0  0  0  0  0  0  0  0  0  0  0
    9.3327  -24.1274    8.2335 C   0  0  2  0  0  0  0  0  0  0  0  0
    9.6388  -24.4682    6.8601 O   0  0  0  0  0  0  0  0  0  0  0  0
    7.2699  -20.7439    6.4251 C   0  0  0  0  0  0  0  0  0  0  0  0
    8.2845  -19.7902    6.7747 O   0  0  0  0  0  0  0  0  0  0  0  0
   10.3067  -22.9505    2.6118 C   0  0  1  0  0  0  0  0  0  0  0  0
    9.2085  -23.0060    3.5462 O   0  0  0  0  0  0  0  0  0  0  0  0
   12.7329  -27.3614    2.5812 C   0  0  2  0  0  0  0  0  0  0  0  0
   12.5291  -26.1648    1.7800 O   0  0  0  0  0  0  0  0  0  0  0  0
    8.8544  -27.8382    8.5320 C   0  0  0  0  0  0  0  0  0  0  0  0
    8.9179  -29.0179    7.7770 O   0  0  0  0  0  0  0  0  0  0  0  0
    8.2293  -23.0100    8.3143 C   0  0  1  0  0  0  0  0  0  0  0  0
    6.9888  -23.5346    7.7266 O   0  0  0  0  0  0  0  0  0  0  0  0
   11.5794  -23.3999    3.4136 C   0  0  0  0  0  0  0  0  0  0  0  0
   11.5625  -22.9851    4.8373 N   0  0  0  0  0  0  0  0  0  0  0  0
   14.0499  -27.1199    3.3155 C   0  0  0  0  0  0  0  0  0  0  0  0
   13.9456  -25.9405    4.1715 O   0  0  0  0  0  0  0  0  0  0  0  0
  1  2  1  6  0  0  0
  1  8  1  0  0  0  0
  1 36  1  0  0  0  0
  3  4  1  6  0  0  0
  3 10  1  0  0  0  0
  3 47  1  0  0  0  0
  5 11  1  0  0  0  0
  5 30  1  0  0  0  0
  5 38  1  1  0  0  0
  6 21  1  1  0  0  0
  6 42  1  0  0  0  0
  7 15  1  0  0  0  0
  7 44  1  0  0  0  0
  7 32  1  1  0  0  0
  8  9  1  6  0  0  0
  8 17  1  0  0  0  0
 11 12  1  6  0  0  0
 11 20  1  0  0  0  0
 13  6  1  0  0  0  0
 13 14  1  1  0  0  0
 15 16  1  6  0  0  0
 15 24  1  0  0  0  0
 17 26  1  0  0  0  0
 18 10  1  0  0  0  0
 18 19  1  6  0  0  0
 20 21  1  6  0  0  0
 20 29  1  0  0  0  0
 22 13  1  0  0  0  0
 22 23  1  1  0  0  0
 24 25  1  6  0  0  0
 24 33  1  0  0  0  0
 26 27  1  6  0  0  0
 26 35  1  0  0  0  0
 28  2  1  1  0  0  0
 28 18  1  0  0  0  0
 29 30  1  0  0  0  0
 29 39  1  1  0  0  0
 31 22  1  0  0  0  0
 31 32  1  1  0  0  0
 31 41  1  0  0  0  0
 33 34  1  1  0  0  0
 33 43  1  0  0  0  0
 35 36  1  0  0  0  0
 35 45  1  1  0  0  0
 37 28  1  0  0  0  0
 37 38  1  6  0  0  0
 39 40  1  0  0  0  0
 41 42  1  0  0  0  0
 41 49  1  1  0  0  0
 43 44  1  0  0  0  0
 43 51  1  6  0  0  0
 45 46  1  0  0  0  0
 47 37  1  0  0  0  0
 47 48  1  1  0  0  0
 49 50  1  0  0  0  0
 51 52  1  0  0  0  0
M  END
>  <CHROM.1>
177.94805132,-86.69590010,147.41368375,-174.25881568,-71.39552598,45.97031482
172.24043983,139.87971077,-26.63802014,-109.37366761,-174.06730761,-166.55633217
10.02890066,-24.86606384,5.34662977,-1.79089299,0.95178654,-1.70285028

>  <Name>
2fd0_lig

>  <RI>
0

>  <Rbt.Current_Directory>
/home/itssahil/PROJECTS/Mol_Feturizer/New_Systems/rnas/2fd0

>  <Rbt.Executable>
rbdock ($Id: //depot/dev/client3/rdock/2013.1/src/exe/rbdock.cxx#4 $)

>  <Rbt.Library>
libRbt.so (2013.1, Build901 2013/11/27)

>  <Rbt.Parameter_File>
/export/apps/rDock/src/rDock_2013.1_src/data/scripts/dock_solv.prm

>  <Rbt.Receptor>
prm/blind_docking_40.prm

>  <SCORE>
50.565

>  <SCORE.INTER>
8.06768

>  <SCORE.INTER.CONST>
1

>  <SCORE.INTER.POLAR>
0

>  <SCORE.INTER.ROT>
12

>  <SCORE.INTER.SOLV>
21.3237

>  <SCORE.INTER.VDW>
-13.3295

>  <SCORE.INTER.norm>
0.155148

>  <SCORE.INTRA>
23.7019

>  <SCORE.INTRA.DIHEDRAL>
2.21398

>  <SCORE.INTRA.DIHEDRAL.0>
23.9727

>  <SCORE.INTRA.POLAR>
0

>  <SCORE.INTRA.POLAR.0>
0

>  <SCORE.INTRA.REPUL>
0.0500128

>  <SCORE.INTRA.REPUL.0>
0

>  <SCORE.INTRA.SOLV>
6.5818

>  <SCORE.INTRA.SOLV.lig_0>
-115.028

>  <SCORE.INTRA.VDW>
19.0539

>  <SCORE.INTRA.VDW.0>
-6.82393

>  <SCORE.INTRA.norm>
0.455805

>  <SCORE.RESTR>
18.7955

>  <SCORE.RESTR.CAVITY>
18.7955

>  <SCORE.RESTR.norm>
0.361451

>  <SCORE.SYSTEM>
0

>  <SCORE.SYSTEM.CONST>
0

>  <SCORE.SYSTEM.DIHEDRAL>
0

>  <SCORE.SYSTEM.SOLV>
0

>  <SCORE.SYSTEM.norm>
0

>  <SCORE.heavy>
52

>  <SCORE.norm>
0.972404

>  <RMSD>
26.948

$$$$
2fd0_lig
 OpenBabel11021811433D
libRbt.so/2013.1/901 2013/11/27
 52 56  0  0  0  0  0  0  0  0999 V2000
   13.0214  -24.1803    9.2436 C   0  0  2  0  0  0  0  0  0  0  0  0
   12.2589  -24.4450    8.0580 O   0  0  0  0  0  0  0  0  0  0  0  0
    9.1724  -21.3850    8.1171 C   0  0  2  0  0  0  0  0  0  0  0  0
    8.1138  -20.4599    7.6807 N   0  0  0  0  0  0  0  0  0  0  0  0
    9.2969  -25.7162    6.7383 C   0  0  1  0  0  0  0  0  0  0  0  0
    7.9196  -24.8099    2.4700 C   0  0  1  0  0  0  0  0  0  0  0  0
   11.0408  -26.0360    0.6174 C   0  0  1  0  0  0  0  0  0  0  0  0
   13.2236  -25.5322   10.0201 C   0  0  2  0  0  0  0  0  0  0  0  0
   13.8692  -26.5418    9.1926 N   0  0  0  0  0  0  0  0  0  0  0  0
   10.5103  -21.1195    7.2970 C   0  0  0  0  0  0  0  0  0  0  0  0
    8.2569  -24.8102    6.1049 C   0  0  2  0  0  0  0  0  0  0  0  0
    6.9098  -25.3474    6.2268 O   0  0  0  0  0  0  0  0  0  0  0  0
    7.5500  -26.0208    1.4919 C   0  0  2  0  0  0  0  0  0  0  0  0
    8.5051  -27.1479    1.6729 N   0  0  0  0  0  0  0  0  0  0  0  0
   11.8076  -27.0210   -0.2933 C   0  0  1  0  0  0  0  0  0  0  0  0
   12.3764  -26.2891   -1.4071 O   0  0  0  0  0  0  0  0  0  0  0  0
   11.8497  -26.0489   10.5874 C   0  0  0  0  0  0  0  0  0  0  0  0
   11.6647  -22.1204    7.7816 C   0  0  2  0  0  0  0  0  0  0  0  0
   12.9126  -21.8974    7.0367 N   0  0  0  0  0  0  0  0  0  0  0  0
    8.7788  -24.6314    4.6892 C   0  0  2  0  0  0  0  0  0  0  0  0
    7.9992  -25.3369    3.7622 O   0  0  0  0  0  0  0  0  0  0  0  0
    7.4581  -25.4199   -0.0053 C   0  0  1  0  0  0  0  0  0  0  0  0
    6.4871  -24.3578    0.0014 O   0  0  0  0  0  0  0  0  0  0  0  0
   12.9377  -27.8644    0.3569 C   0  0  1  0  0  0  0  0  0  0  0  0
   14.1729  -27.1597    0.1783 O   0  0  0  0  0  0  0  0  0  0  0  0
   11.2212  -24.9214   11.4697 C   0  0  2  0  0  0  0  0  0  0  0  0
    9.9814  -25.3575   12.0183 O   0  0  0  0  0  0  0  0  0  0  0  0
   11.1823  -23.5854    7.5899 C   0  0  2  0  0  0  0  0  0  0  0  0
   10.1894  -25.2609    4.5981 C   0  0  2  0  0  0  0  0  0  0  0  0
   10.4686  -25.5875    5.9519 O   0  0  0  0  0  0  0  0  0  0  0  0
    8.8571  -24.7603   -0.4764 C   0  0  2  0  0  0  0  0  0  0  0  0
    9.7892  -25.8579   -0.4846 O   0  0  0  0  0  0  0  0  0  0  0  0
   12.7640  -28.1916    1.8580 C   0  0  2  0  0  0  0  0  0  0  0  0
   13.1832  -29.5655    2.0104 O   0  0  0  0  0  0  0  0  0  0  0  0
   10.9988  -23.6492   10.6026 C   0  0  2  0  0  0  0  0  0  0  0  0
   12.3098  -23.2206   10.0668 O   0  0  0  0  0  0  0  0  0  0  0  0
    9.8412  -23.8809    8.3284 C   0  0  2  0  0  0  0  0  0  0  0  0
    9.4773  -25.2519    8.0387 O   0  0  0  0  0  0  0  0  0  0  0  0
   11.2837  -24.3259    4.0952 C   0  0  0  0  0  0  0  0  0  0  0  0
   11.1966  -23.1208    4.8707 O   0  0  0  0  0  0  0  0  0  0  0  0
    9.2505  -23.8008    0.6309 C   0  0  1  0  0  0  0  0  0  0  0  0
    9.2253  -24.1175    2.0385 O   0  0  0  0  0  0  0  0  0  0  0  0
   11.3292  -27.9372    2.3121 C   0  0  2  0  0  0  0  0  0  0  0  0
   10.8052  -26.6247    1.9683 O   0  0  0  0  0  0  0  0  0  0  0  0
   10.4309  -22.5179   11.3993 C   0  0  0  0  0  0  0  0  0  0  0  0
    9.0467  -22.4841   11.1790 O   0  0  0  0  0  0  0  0  0  0  0  0
    8.7282  -22.8790    7.8488 C   0  0  1  0  0  0  0  0  0  0  0  0
    7.4965  -23.1533    8.6019 O   0  0  0  0  0  0  0  0  0  0  0  0
   10.6251  -23.0878    0.3729 C   0  0  0  0  0  0  0  0  0  0  0  0
   10.4901  -21.6816   -0.0785 N   0  0  0  0  0  0  0  0  0  0  0  0
   10.8842  -28.1695    3.7543 C   0  0  0  0  0  0  0  0  0  0  0  0
   10.6129  -29.5871    3.9804 O   0  0  0  0  0  0  0  0  0  0  0  0
  1  2  1  6  0  0  0
  1  8  1  0  0  0  0
  1 36  1  0  0  0  0
  3  4  1  6  0  0  0
  3 10  1  0  0  0  0
  3 47  1  0  0  0  0
  5 11  1  0  0  0  0
  5 30  1  0  0  0  0
  5 38  1  1  0  0  0
  6 21  1  1  0  0  0
  6 42  1  0  0  0  0
  7 15  1  0  0  0  0
  7 44  1  0  0  0  0
  7 32  1  6  0  0  0
  8  9  1  6  0  0  0
  8 17  1  0  0  0  0
 11 12  1  6  0  0  0
 11 20  1  0  0  0  0
 13  6  1  0  0  0  0
 13 14  1  6  0  0  0
 15 16  1  6  0  0  0
 15 24  1  0  0  0  0
 17 26  1  0  0  0  0
 18 10  1  0  0  0  0
 18 19  1  6  0  0  0
 20 21  1  6  0  0  0
 20 29  1  0  0  0  0
 22 13  1  0  0  0  0
 22 23  1  1  0  0  0
 24 25  1  1  0  0  0
 24 33  1  0  0  0  0
 26 27  1  6  0  0  0
 26 35  1  0  0  0  0
 28  2  1  1  0  0  0
 28 18  1  0  0  0  0
 29 30  1  0  0  0  0
 29 39  1  1  0  0  0
 31 22  1  0  0  0  0
 31 32  1  1  0  0  0
 31 41  1  0  0  0  0
 33 34  1  6  0  0  0
 33 43  1  0  0  0  0
 35 36  1  0  0  0  0
 35 45  1  1  0  0  0
 37 28  1  0  0  0  0
 37 38  1  6  0  0  0
 39 40  1  0  0  0  0
 41 42  1  0  0  0  0
 41 49  1  6  0  0  0
 43 44  1  0  0  0  0
 43 51  1  1  0  0  0
 45 46  1  0  0  0  0
 47 37  1  0  0  0  0
 47 48  1  1  0  0  0
 49 50  1  0  0  0  0
 51 52  1  0  0  0  0
M  END
>  <CHROM.1>
137.87257467,-55.52922847,156.39590188,-160.96445403,150.25961792,41.48025751
50.30734867,-109.71423239,-98.61921534,-57.84766618,103.44903750,-80.93262649
10.37494873,-24.91100333,5.03705952,-1.53809498,0.74863092,-1.85583205

>  <Name>
2fd0_lig

>  <RI>
0

>  <Rbt.Current_Directory>
/home/itssahil/PROJECTS/Mol_Feturizer/New_Systems/rnas/2fd0

>  <Rbt.Executable>
rbdock ($Id: //depot/dev/client3/rdock/2013.1/src/exe/rbdock.cxx#4 $)

>  <Rbt.Library>
libRbt.so (2013.1, Build901 2013/11/27)

>  <Rbt.Parameter_File>
/export/apps/rDock/src/rDock_2013.1_src/data/scripts/dock_solv.prm

>  <Rbt.Receptor>
prm/blind_docking_40.prm

>  <SCORE>
45.9688

>  <SCORE.INTER>
7.24366

>  <SCORE.INTER.CONST>
1

>  <SCORE.INTER.POLAR>
0

>  <SCORE.INTER.ROT>
12

>  <SCORE.INTER.SOLV>
24.7855

>  <SCORE.INTER.VDW>
-15.0327

>  <SCORE.INTER.norm>
0.139301

>  <SCORE.INTRA>
15.566

>  <SCORE.INTRA.DIHEDRAL>
7.14108

>  <SCORE.INTRA.DIHEDRAL.0>
23.9727

>  <SCORE.INTRA.POLAR>
0

>  <SCORE.INTRA.POLAR.0>
0

>  <SCORE.INTRA.REPUL>
0.0651015

>  <SCORE.INTRA.REPUL.0>
0

>  <SCORE.INTRA.SOLV>
5.7176

>  <SCORE.INTRA.SOLV.lig_0>
-115.028

>  <SCORE.INTRA.VDW>
8.81119

>  <SCORE.INTRA.VDW.0>
-6.82393

>  <SCORE.INTRA.norm>
0.299347

>  <SCORE.RESTR>
23.1591

>  <SCORE.RESTR.CAVITY>
23.1591

>  <SCORE.RESTR.norm>
0.445367

>  <SCORE.SYSTEM>
0

>  <SCORE.SYSTEM.CONST>
0

>  <SCORE.SYSTEM.DIHEDRAL>
0

>  <SCORE.SYSTEM.SOLV>
0

>  <SCORE.SYSTEM.norm>
0

>  <SCORE.heavy>
52

>  <SCORE.norm>
0.884015

>  <RMSD>
26.971

$$$$
2fd0_lig
 OpenBabel11021811433D
libRbt.so/2013.1/901 2013/11/27
 52 56  0  0  0  0  0  0  0  0999 V2000
   12.7574  -27.1188    8.9494 C   0  0  2  0  0  0  0  0  0  0  0  0
   13.0816  -26.0041    8.1071 O   0  0  0  0  0  0  0  0  0  0  0  0
   14.0449  -22.8547   10.9437 C   0  0  2  0  0  0  0  0  0  0  0  0
   14.4050  -21.5425   11.5052 N   0  0  0  0  0  0  0  0  0  0  0  0
   10.9622  -23.3095    7.6214 C   0  0  1  0  0  0  0  0  0  0  0  0
    9.6268  -23.6356    3.2852 C   0  0  1  0  0  0  0  0  0  0  0  0
   11.8666  -27.0380    0.0626 C   0  0  1  0  0  0  0  0  0  0  0  0
   12.1819  -28.2735    8.0511 C   0  0  2  0  0  0  0  0  0  0  0  0
   13.1140  -28.6599    7.0011 N   0  0  0  0  0  0  0  0  0  0  0  0
   15.1613  -23.3423    9.9195 C   0  0  0  0  0  0  0  0  0  0  0  0
   10.6138  -24.2897    6.5163 C   0  0  2  0  0  0  0  0  0  0  0  0
   11.7954  -24.7858    5.8264 O   0  0  0  0  0  0  0  0  0  0  0  0
    9.8856  -25.2142    3.3069 C   0  0  2  0  0  0  0  0  0  0  0  0
   11.3317  -25.5031    3.5087 N   0  0  0  0  0  0  0  0  0  0  0  0
   12.0843  -27.6494    1.4650 C   0  0  1  0  0  0  0  0  0  0  0  0
   10.7961  -27.9768    2.0424 O   0  0  0  0  0  0  0  0  0  0  0  0
   10.7859  -27.8591    7.4543 C   0  0  0  0  0  0  0  0  0  0  0  0
   14.7725  -24.7762    9.3178 C   0  0  2  0  0  0  0  0  0  0  0  0
   15.7879  -25.2490    8.3652 N   0  0  0  0  0  0  0  0  0  0  0  0
    9.6245  -23.5082    5.6683 C   0  0  2  0  0  0  0  0  0  0  0  0
   10.1939  -23.1115    4.4504 O   0  0  0  0  0  0  0  0  0  0  0  0
    9.2345  -25.8276    1.9612 C   0  0  1  0  0  0  0  0  0  0  0  0
    7.8421  -25.4648    1.9364 O   0  0  0  0  0  0  0  0  0  0  0  0
   12.9907  -28.9061    1.5646 C   0  0  1  0  0  0  0  0  0  0  0  0
   12.1499  -30.0642    1.4867 O   0  0  0  0  0  0  0  0  0  0  0  0
    9.8377  -27.4678    8.6344 C   0  0  2  0  0  0  0  0  0  0  0  0
    8.5545  -27.1030    8.1361 O   0  0  0  0  0  0  0  0  0  0  0  0
   13.3882  -24.6768    8.6182 C   0  0  2  0  0  0  0  0  0  0  0  0
    9.2744  -22.1917    6.4023 C   0  0  2  0  0  0  0  0  0  0  0  0
    9.9073  -22.3642    7.6621 O   0  0  0  0  0  0  0  0  0  0  0  0
    9.8977  -25.1956    0.6290 C   0  0  2  0  0  0  0  0  0  0  0  0
   11.2793  -25.5970    0.6881 O   0  0  0  0  0  0  0  0  0  0  0  0
   14.1046  -29.0272    0.4991 C   0  0  2  0  0  0  0  0  0  0  0  0
   15.2701  -29.5084    1.2037 O   0  0  0  0  0  0  0  0  0  0  0  0
   10.4574  -26.2793    9.4238 C   0  0  2  0  0  0  0  0  0  0  0  0
   11.7785  -26.7045    9.9369 O   0  0  0  0  0  0  0  0  0  0  0  0
   12.2693  -24.1474    9.5662 C   0  0  2  0  0  0  0  0  0  0  0  0
   11.0489  -24.0580    8.7924 O   0  0  0  0  0  0  0  0  0  0  0  0
    7.7865  -21.9604    6.6413 C   0  0  0  0  0  0  0  0  0  0  0  0
    7.6271  -20.5782    6.9954 O   0  0  0  0  0  0  0  0  0  0  0  0
    9.8236  -23.6911    0.8094 C   0  0  1  0  0  0  0  0  0  0  0  0
   10.2024  -22.9892    2.0119 O   0  0  0  0  0  0  0  0  0  0  0  0
   14.3284  -27.6962   -0.2136 C   0  0  2  0  0  0  0  0  0  0  0  0
   13.1227  -27.0779   -0.7422 O   0  0  0  0  0  0  0  0  0  0  0  0
    9.6130  -25.8787   10.5916 C   0  0  0  0  0  0  0  0  0  0  0  0
   10.2563  -24.8208   11.2494 O   0  0  0  0  0  0  0  0  0  0  0  0
   12.6778  -22.7480   10.1556 C   0  0  1  0  0  0  0  0  0  0  0  0
   11.6262  -22.3060   11.0819 O   0  0  0  0  0  0  0  0  0  0  0  0
   10.4688  -22.8928   -0.3784 C   0  0  0  0  0  0  0  0  0  0  0  0
    9.6765  -22.9464   -1.6309 N   0  0  0  0  0  0  0  0  0  0  0  0
   15.3666  -27.5370   -1.3221 C   0  0  0  0  0  0  0  0  0  0  0  0
   15.5199  -26.1280   -1.6764 O   0  0  0  0  0  0  0  0  0  0  0  0
  1  2  1  6  0  0  0
  1  8  1  0  0  0  0
  1 36  1  0  0  0  0
  3  4  1  6  0  0  0
  3 10  1  0  0  0  0
  3 47  1  0  0  0  0
  5 11  1  0  0  0  0
  5 30  1  0  0  0  0
  5 38  1  1  0  0  0
  6 21  1  1  0  0  0
  6 42  1  0  0  0  0
  7 15  1  0  0  0  0
  7 44  1  0  0  0  0
  7 32  1  1  0  0  0
  8  9  1  6  0  0  0
  8 17  1  0  0  0  0
 11 12  1  6  0  0  0
 11 20  1  0  0  0  0
 13  6  1  0  0  0  0
 13 14  1  6  0  0  0
 15 16  1  6  0  0  0
 15 24  1  0  0  0  0
 17 26  1  0  0  0  0
 18 10  1  0  0  0  0
 18 19  1  6  0  0  0
 20 21  1  6  0  0  0
 20 29  1  0  0  0  0
 22 13  1  0  0  0  0
 22 23  1  1  0  0  0
 24 25  1  6  0  0  0
 24 33  1  0  0  0  0
 26 27  1  6  0  0  0
 26 35  1  0  0  0  0
 28  2  1  1  0  0  0
 28 18  1  0  0  0  0
 29 30  1  0  0  0  0
 29 39  1  1  0  0  0
 31 22  1  0  0  0  0
 31 32  1  1  0  0  0
 31 41  1  0  0  0  0
 33 34  1  1  0  0  0
 33 43  1  0  0  0  0
 35 36  1  0  0  0  0
 35 45  1  1  0  0  0
 37 28  1  0  0  0  0
 37 38  1  6  0  0  0
 39 40  1  0  0  0  0
 41 42  1  0  0  0  0
 41 49  1  6  0  0  0
 43 44  1  0  0  0  0
 43 51  1  6  0  0  0
 45 46  1  0  0  0  0
 47 37  1  0  0  0  0
 47 48  1  1  0  0  0
 49 50  1  0  0  0  0
 51 52  1  0  0  0  0
M  END
>  <CHROM.1>
167.51662896,119.00263542,-65.15089885,-107.89956306,116.53998294,70.19453735
-165.14217368,88.18601478,179.15701728,-56.45930209,71.41000866,-170.97430931
11.56411511,-25.29724386,5.25288791,-1.64371306,0.77808141,-1.77778699

>  <Name>
2fd0_lig

>  <RI>
0

>  <Rbt.Current_Directory>
/home/itssahil/PROJECTS/Mol_Feturizer/New_Systems/rnas/2fd0

>  <Rbt.Executable>
rbdock ($Id: //depot/dev/client3/rdock/2013.1/src/exe/rbdock.cxx#4 $)

>  <Rbt.Library>
libRbt.so (2013.1, Build901 2013/11/27)

>  <Rbt.Parameter_File>
/export/apps/rDock/src/rDock_2013.1_src/data/scripts/dock_solv.prm

>  <Rbt.Receptor>
prm/blind_docking_40.prm

>  <SCORE>
40.0528

>  <SCORE.INTER>
6.70153

>  <SCORE.INTER.CONST>
1

>  <SCORE.INTER.POLAR>
-0.620729

>  <SCORE.INTER.ROT>
12

>  <SCORE.INTER.SOLV>
22.215

>  <SCORE.INTER.VDW>
-12.4682

>  <SCORE.INTER.norm>
0.128875

>  <SCORE.INTRA>
9.6629

>  <SCORE.INTRA.DIHEDRAL>
4.1418

>  <SCORE.INTRA.DIHEDRAL.0>
23.9727

>  <SCORE.INTRA.POLAR>
0

>  <SCORE.INTRA.POLAR.0>
0

>  <SCORE.INTRA.REPUL>
0

>  <SCORE.INTRA.REPUL.0>
0

>  <SCORE.INTRA.SOLV>
0.871426

>  <SCORE.INTRA.SOLV.lig_0>
-115.028

>  <SCORE.INTRA.VDW>
7.15629

>  <SCORE.INTRA.VDW.0>
-6.82393

>  <SCORE.INTRA.norm>
0.185825

>  <SCORE.RESTR>
23.6884

>  <SCORE.RESTR.CAVITY>
23.6884

>  <SCORE.RESTR.norm>
0.455546

>  <SCORE.SYSTEM>
0

>  <SCORE.SYSTEM.CONST>
0

>  <SCORE.SYSTEM.DIHEDRAL>
0

>  <SCORE.SYSTEM.SOLV>
0

>  <SCORE.SYSTEM.norm>
0

>  <SCORE.heavy>
52

>  <SCORE.norm>
0.770246

>  <RMSD>
26.990

$$$$
2fd0_lig
 OpenBabel11021811433D
libRbt.so/2013.1/901 2013/11/27
 52 56  0  0  0  0  0  0  0  0999 V2000
   10.1343  -24.7684    9.7490 C   0  0  2  0  0  0  0  0  0  0  0  0
   10.3985  -23.3778    9.9801 O   0  0  0  0  0  0  0  0  0  0  0  0
    8.8189  -19.7197    8.2436 C   0  0  2  0  0  0  0  0  0  0  0  0
    8.5611  -18.6182    7.3017 N   0  0  0  0  0  0  0  0  0  0  0  0
    8.9085  -24.0363    6.8614 C   0  0  1  0  0  0  0  0  0  0  0  0
    8.7150  -26.1703    2.8679 C   0  0  1  0  0  0  0  0  0  0  0  0
   12.3045  -27.9527   -0.3724 C   0  0  1  0  0  0  0  0  0  0  0  0
   10.8741  -25.6082   10.8530 C   0  0  2  0  0  0  0  0  0  0  0  0
   10.4732  -25.2117   12.1957 N   0  0  0  0  0  0  0  0  0  0  0  0
   10.3733  -19.8121    8.5729 C   0  0  0  0  0  0  0  0  0  0  0  0
    8.0592  -25.1943    6.3701 C   0  0  2  0  0  0  0  0  0  0  0  0
    8.5304  -26.4761    6.8731 O   0  0  0  0  0  0  0  0  0  0  0  0
    9.3319  -27.5998    2.4998 C   0  0  2  0  0  0  0  0  0  0  0  0
   10.7284  -27.7106    3.0028 N   0  0  0  0  0  0  0  0  0  0  0  0
   12.6532  -28.6555    0.9588 C   0  0  1  0  0  0  0  0  0  0  0  0
   11.5036  -29.4154    1.4068 O   0  0  0  0  0  0  0  0  0  0  0  0
   12.4333  -25.5052   10.6664 C   0  0  0  0  0  0  0  0  0  0  0  0
   10.6502  -21.0050    9.6072 C   0  0  2  0  0  0  0  0  0  0  0  0
   12.0813  -21.1138    9.9265 N   0  0  0  0  0  0  0  0  0  0  0  0
    8.0856  -25.0188    4.8611 C   0  0  2  0  0  0  0  0  0  0  0  0
    8.8802  -25.9953    4.2448 O   0  0  0  0  0  0  0  0  0  0  0  0
    9.1469  -27.8089    0.9083 C   0  0  1  0  0  0  0  0  0  0  0  0
    7.7461  -27.6819    0.6037 O   0  0  0  0  0  0  0  0  0  0  0  0
   13.8874  -29.5977    0.9683 C   0  0  1  0  0  0  0  0  0  0  0  0
   13.4289  -30.9285    0.6981 O   0  0  0  0  0  0  0  0  0  0  0  0
   12.7900  -25.9533    9.2115 C   0  0  2  0  0  0  0  0  0  0  0  0
   14.1982  -25.8917    9.0075 O   0  0  0  0  0  0  0  0  0  0  0  0
   10.1359  -22.3384    8.9964 C   0  0  2  0  0  0  0  0  0  0  0  0
    8.7684  -23.6700    4.5311 C   0  0  2  0  0  0  0  0  0  0  0  0
    8.9235  -23.0815    5.8145 O   0  0  0  0  0  0  0  0  0  0  0  0
    9.9076  -26.6635    0.0577 C   0  0  2  0  0  0  0  0  0  0  0  0
   11.3001  -26.8398    0.3795 O   0  0  0  0  0  0  0  0  0  0  0  0
   15.0170  -29.2485   -0.0280 C   0  0  2  0  0  0  0  0  0  0  0  0
   16.2522  -29.4610    0.6901 O   0  0  0  0  0  0  0  0  0  0  0  0
   12.0660  -25.0272    8.1927 C   0  0  2  0  0  0  0  0  0  0  0  0
   10.6088  -25.1330    8.4271 O   0  0  0  0  0  0  0  0  0  0  0  0
    8.6285  -22.2802    8.6023 C   0  0  2  0  0  0  0  0  0  0  0  0
    8.2837  -23.5551    8.0091 O   0  0  0  0  0  0  0  0  0  0  0  0
    7.9448  -22.7226    3.6659 C   0  0  0  0  0  0  0  0  0  0  0  0
    6.7737  -22.3749    4.4202 O   0  0  0  0  0  0  0  0  0  0  0  0
    9.4406  -25.3430    0.6406 C   0  0  1  0  0  0  0  0  0  0  0  0
    9.3769  -25.0454    2.0511 O   0  0  0  0  0  0  0  0  0  0  0  0
   14.8576  -27.8274   -0.5614 C   0  0  2  0  0  0  0  0  0  0  0  0
   13.5385  -27.5200   -1.0914 O   0  0  0  0  0  0  0  0  0  0  0  0
   12.3384  -25.4267    6.7774 C   0  0  0  0  0  0  0  0  0  0  0  0
   11.4785  -26.4853    6.4521 O   0  0  0  0  0  0  0  0  0  0  0  0
    8.3775  -21.0951    7.5997 C   0  0  1  0  0  0  0  0  0  0  0  0
    6.9416  -21.0392    7.2922 O   0  0  0  0  0  0  0  0  0  0  0  0
   10.1139  -24.0958   -0.0342 C   0  0  0  0  0  0  0  0  0  0  0  0
   10.3339  -22.9624    0.8966 N   0  0  0  0  0  0  0  0  0  0  0  0
   15.8334  -27.2287   -1.5720 C   0  0  0  0  0  0  0  0  0  0  0  0
   15.5329  -25.8162   -1.7934 O   0  0  0  0  0  0  0  0  0  0  0  0
  1  2  1  1  0  0  0
  1  8  1  0  0  0  0
  1 36  1  0  0  0  0
  3  4  1  6  0  0  0
  3 10  1  0  0  0  0
  3 47  1  0  0  0  0
  5 11  1  0  0  0  0
  5 30  1  0  0  0  0
  5 38  1  1  0  0  0
  6 21  1  1  0  0  0
  6 42  1  0  0  0  0
  7 15  1  0  0  0  0
  7 44  1  0  0  0  0
  7 32  1  1  0  0  0
  8  9  1  1  0  0  0
  8 17  1  0  0  0  0
 11 12  1  6  0  0  0
 11 20  1  0  0  0  0
 13  6  1  0  0  0  0
 13 14  1  6  0  0  0
 15 16  1  6  0  0  0
 15 24  1  0  0  0  0
 17 26  1  0  0  0  0
 18 10  1  0  0  0  0
 18 19  1  6  0  0  0
 20 21  1  6  0  0  0
 20 29  1  0  0  0  0
 22 13  1  0  0  0  0
 22 23  1  1  0  0  0
 24 25  1  6  0  0  0
 24 33  1  0  0  0  0
 26 27  1  1  0  0  0
 26 35  1  0  0  0  0
 28  2  1  1  0  0  0
 28 18  1  0  0  0  0
 29 30  1  0  0  0  0
 29 39  1  6  0  0  0
 31 22  1  0  0  0  0
 31 32  1  1  0  0  0
 31 41  1  0  0  0  0
 33 34  1  1  0  0  0
 33 43  1  0  0  0  0
 35 36  1  0  0  0  0
 35 45  1  6  0  0  0
 37 28  1  0  0  0  0
 37 38  1  6  0  0  0
 39 40  1  0  0  0  0
 41 42  1  0  0  0  0
 41 49  1  6  0  0  0
 43 44  1  0  0  0  0
 43 51  1  6  0  0  0
 45 46  1  0  0  0  0
 47 37  1  0  0  0  0
 47 48  1  1  0  0  0
 49 50  1  0  0  0  0
 51 52  1  0  0  0  0
M  END
>  <CHROM.1>
165.48530796,-166.35017748,-161.76332210,-121.96469923,163.63644400,-176.22413534
63.57867993,83.34291641,81.61988537,-60.27885576,-146.57305338,-173.66532257
10.71044501,-25.20509283,4.70474414,-1.96313486,0.70034168,-1.84925070

>  <Name>
2fd0_lig

>  <RI>
0

>  <Rbt.Current_Directory>
/home/itssahil/PROJECTS/Mol_Feturizer/New_Systems/rnas/2fd0

>  <Rbt.Executable>
rbdock ($Id: //depot/dev/client3/rdock/2013.1/src/exe/rbdock.cxx#4 $)

>  <Rbt.Library>
libRbt.so (2013.1, Build901 2013/11/27)

>  <Rbt.Parameter_File>
/export/apps/rDock/src/rDock_2013.1_src/data/scripts/dock_solv.prm

>  <Rbt.Receptor>
prm/blind_docking_40.prm

>  <SCORE>
22.8736

>  <SCORE.INTER>
-0.573013

>  <SCORE.INTER.CONST>
1

>  <SCORE.INTER.POLAR>
0

>  <SCORE.INTER.ROT>
12

>  <SCORE.INTER.SOLV>
22.6453

>  <SCORE.INTER.VDW>
-19.5304

>  <SCORE.INTER.norm>
-0.0110195

>  <SCORE.INTRA>
0.811583

>  <SCORE.INTRA.DIHEDRAL>
-4.56085

>  <SCORE.INTRA.DIHEDRAL.0>
23.9727

>  <SCORE.INTRA.POLAR>
0

>  <SCORE.INTRA.POLAR.0>
0

>  <SCORE.INTRA.REPUL>
0.00863327

>  <SCORE.INTRA.REPUL.0>
0

>  <SCORE.INTRA.SOLV>
1.65929

>  <SCORE.INTRA.SOLV.lig_0>
-115.028

>  <SCORE.INTRA.VDW>
2.21919

>  <SCORE.INTRA.VDW.0>
-6.82393

>  <SCORE.INTRA.norm>
0.0156074

>  <SCORE.RESTR>
22.6351

>  <SCORE.RESTR.CAVITY>
22.6351

>  <SCORE.RESTR.norm>
0.43529

>  <SCORE.SYSTEM>
0

>  <SCORE.SYSTEM.CONST>
0

>  <SCORE.SYSTEM.DIHEDRAL>
0

>  <SCORE.SYSTEM.SOLV>
0

>  <SCORE.SYSTEM.norm>
0

>  <SCORE.heavy>
52

>  <SCORE.norm>
0.439878

>  <RMSD>
27.046

$$$$
2fd0_lig
 OpenBabel11021811433D
libRbt.so/2013.1/901 2013/11/27
 52 56  0  0  0  0  0  0  0  0999 V2000
   11.7112  -26.8259    8.2242 C   0  0  2  0  0  0  0  0  0  0  0  0
   11.4413  -26.3997    9.5667 O   0  0  0  0  0  0  0  0  0  0  0  0
   11.2200  -22.9185   12.1600 C   0  0  2  0  0  0  0  0  0  0  0  0
   11.3683  -21.5466   12.6726 N   0  0  0  0  0  0  0  0  0  0  0  0
    9.8480  -23.6495    7.9250 C   0  0  1  0  0  0  0  0  0  0  0  0
    8.8425  -23.0165    3.5387 C   0  0  1  0  0  0  0  0  0  0  0  0
   10.2498  -26.3013    0.6688 C   0  0  1  0  0  0  0  0  0  0  0  0
   13.0952  -27.5714    8.2050 C   0  0  2  0  0  0  0  0  0  0  0  0
   13.1184  -28.6962    9.1297 N   0  0  0  0  0  0  0  0  0  0  0  0
   12.6453  -23.5348   11.8113 C   0  0  0  0  0  0  0  0  0  0  0  0
    9.0967  -24.2273    6.7395 C   0  0  2  0  0  0  0  0  0  0  0  0
    9.8615  -25.2558    6.0501 O   0  0  0  0  0  0  0  0  0  0  0  0
    7.8707  -24.2827    3.6468 C   0  0  2  0  0  0  0  0  0  0  0  0
    8.6330  -25.4915    4.0628 N   0  0  0  0  0  0  0  0  0  0  0  0
    9.9685  -27.8129    0.8230 C   0  0  1  0  0  0  0  0  0  0  0  0
    9.0192  -28.2225   -0.1924 O   0  0  0  0  0  0  0  0  0  0  0  0
   14.2654  -26.5617    8.5010 C   0  0  0  0  0  0  0  0  0  0  0  0
   12.4822  -25.0325   11.2638 C   0  0  2  0  0  0  0  0  0  0  0  0
   13.7862  -25.6248   10.9313 N   0  0  0  0  0  0  0  0  0  0  0  0
    8.7495  -22.9937    5.9233 C   0  0  2  0  0  0  0  0  0  0  0  0
    9.5220  -22.9167    4.7561 O   0  0  0  0  0  0  0  0  0  0  0  0
    7.0826  -24.4064    2.2416 C   0  0  1  0  0  0  0  0  0  0  0  0
    6.3972  -23.1632    2.0060 O   0  0  0  0  0  0  0  0  0  0  0  0
   11.1845  -28.7765    0.7629 C   0  0  1  0  0  0  0  0  0  0  0  0
   11.3319  -29.2173   -0.5929 O   0  0  0  0  0  0  0  0  0  0  0  0
   14.1839  -25.3905    7.4684 C   0  0  2  0  0  0  0  0  0  0  0  0
   15.2401  -24.4616    7.6915 O   0  0  0  0  0  0  0  0  0  0  0  0
   11.5654  -25.0190   10.0088 C   0  0  2  0  0  0  0  0  0  0  0  0
    9.1234  -21.7357    6.7431 C   0  0  2  0  0  0  0  0  0  0  0  0
    9.4762  -22.2845    8.0048 O   0  0  0  0  0  0  0  0  0  0  0  0
    8.0959  -24.6149    0.9990 C   0  0  2  0  0  0  0  0  0  0  0  0
    8.7433  -25.8727    1.2682 O   0  0  0  0  0  0  0  0  0  0  0  0
   12.5343  -28.1990    1.2480 C   0  0  2  0  0  0  0  0  0  0  0  0
   13.1600  -29.2537    2.0111 O   0  0  0  0  0  0  0  0  0  0  0  0
   12.8100  -24.6740    7.6060 C   0  0  2  0  0  0  0  0  0  0  0  0
   11.7436  -25.6676    7.3510 O   0  0  0  0  0  0  0  0  0  0  0  0
   10.1743  -24.3709   10.2843 C   0  0  2  0  0  0  0  0  0  0  0  0
    9.4365  -24.3772    9.0386 O   0  0  0  0  0  0  0  0  0  0  0  0
    7.9882  -20.7401    6.9541 C   0  0  0  0  0  0  0  0  0  0  0  0
    6.9399  -21.4374    7.6441 O   0  0  0  0  0  0  0  0  0  0  0  0
    9.1247  -23.5066    1.1197 C   0  0  1  0  0  0  0  0  0  0  0  0
    9.8019  -23.1450    2.3414 O   0  0  0  0  0  0  0  0  0  0  0  0
   12.3263  -26.9120    2.0417 C   0  0  2  0  0  0  0  0  0  0  0  0
   11.5043  -25.9127    1.3774 O   0  0  0  0  0  0  0  0  0  0  0  0
   12.6542  -23.5622    6.6178 C   0  0  0  0  0  0  0  0  0  0  0  0
   12.0436  -22.4828    7.2719 O   0  0  0  0  0  0  0  0  0  0  0  0
   10.3586  -22.9091   10.8336 C   0  0  1  0  0  0  0  0  0  0  0  0
    9.0321  -22.3505   11.1299 O   0  0  0  0  0  0  0  0  0  0  0  0
   10.2356  -23.5699    0.0122 C   0  0  0  0  0  0  0  0  0  0  0  0
   10.9622  -22.2907   -0.1750 N   0  0  0  0  0  0  0  0  0  0  0  0
   13.4964  -26.1265    2.6296 C   0  0  0  0  0  0  0  0  0  0  0  0
   13.0087  -25.0940    3.5410 O   0  0  0  0  0  0  0  0  0  0  0  0
  1  2  1  1  0  0  0
  1  8  1  0  0  0  0
  1 36  1  0  0  0  0
  3  4  1  6  0  0  0
  3 10  1  0  0  0  0
  3 47  1  0  0  0  0
  5 11  1  0  0  0  0
  5 30  1  0  0  0  0
  5 38  1  1  0  0  0
  6 21  1  1  0  0  0
  6 42  1  0  0  0  0
  7 15  1  0  0  0  0
  7 44  1  0  0  0  0
  7 32  1  1  0  0  0
  8  9  1  1  0  0  0
  8 17  1  0  0  0  0
 11 12  1  6  0  0  0
 11 20  1  0  0  0  0
 13  6  1  0  0  0  0
 13 14  1  6  0  0  0
 15 16  1  6  0  0  0
 15 24  1  0  0  0  0
 17 26  1  0  0  0  0
 18 10  1  0  0  0  0
 18 19  1  6  0  0  0
 20 21  1  6  0  0  0
 20 29  1  0  0  0  0
 22 13  1  0  0  0  0
 22 23  1  6  0  0  0
 24 25  1  6  0  0  0
 24 33  1  0  0  0  0
 26 27  1  1  0  0  0
 26 35  1  0  0  0  0
 28  2  1  1  0  0  0
 28 18  1  0  0  0  0
 29 30  1  0  0  0  0
 29 39  1  1  0  0  0
 31 22  1  0  0  0  0
 31 32  1  1  0  0  0
 31 41  1  0  0  0  0
 33 34  1  1  0  0  0
 33 43  1  0  0  0  0
 35 36  1  0  0  0  0
 35 45  1  6  0  0  0
 37 28  1  0  0  0  0
 37 38  1  6  0  0  0
 39 40  1  0  0  0  0
 41 42  1  0  0  0  0
 41 49  1  6  0  0  0
 43 44  1  0  0  0  0
 43 51  1  6  0  0  0
 45 46  1  0  0  0  0
 47 37  1  0  0  0  0
 47 48  1  1  0  0  0
 49 50  1  0  0  0  0
 51 52  1  0  0  0  0
M  END
>  <CHROM.1>
104.90262303,163.18224689,-48.26193010,-157.23138594,115.34550546,-127.25400713
59.38319706,-155.58339198,-138.91140817,-64.35116555,160.64797208,-169.33486270
10.73358850,-24.81177347,5.62029196,-1.38798768,0.75494376,-1.93148187

>  <Name>
2fd0_lig

>  <RI>
0

>  <Rbt.Current_Directory>
/home/itssahil/PROJECTS/Mol_Feturizer/New_Systems/rnas/2fd0

>  <Rbt.Executable>
rbdock ($Id: //depot/dev/client3/rdock/2013.1/src/exe/rbdock.cxx#4 $)

>  <Rbt.Library>
libRbt.so (2013.1, Build901 2013/11/27)

>  <Rbt.Parameter_File>
/export/apps/rDock/src/rDock_2013.1_src/data/scripts/dock_solv.prm

>  <Rbt.Receptor>
prm/blind_docking_40.prm

>  <SCORE>
43.1817

>  <SCORE.INTER>
1.53113

>  <SCORE.INTER.CONST>
1

>  <SCORE.INTER.POLAR>
-0.987071

>  <SCORE.INTER.ROT>
12

>  <SCORE.INTER.SOLV>
25.7726

>  <SCORE.INTER.VDW>
-15.8799

>  <SCORE.INTER.norm>
0.0294448

>  <SCORE.INTRA>
17.0329

>  <SCORE.INTRA.DIHEDRAL>
9.88515

>  <SCORE.INTRA.DIHEDRAL.0>
23.9727

>  <SCORE.INTRA.POLAR>
0

>  <SCORE.INTRA.POLAR.0>
0

>  <SCORE.INTRA.REPUL>
0.112907

>  <SCORE.INTRA.REPUL.0>
0

>  <SCORE.INTRA.SOLV>
6.62095

>  <SCORE.INTRA.SOLV.lig_0>
-115.028

>  <SCORE.INTRA.VDW>
8.21529

>  <SCORE.INTRA.VDW.0>
-6.82393

>  <SCORE.INTRA.norm>
0.327555

>  <SCORE.RESTR>
24.6177

>  <SCORE.RESTR.CAVITY>
24.6177

>  <SCORE.RESTR.norm>
0.473418

>  <SCORE.SYSTEM>
0

>  <SCORE.SYSTEM.CONST>
0

>  <SCORE.SYSTEM.DIHEDRAL>
0

>  <SCORE.SYSTEM.SOLV>
0

>  <SCORE.SYSTEM.norm>
0

>  <SCORE.heavy>
52

>  <SCORE.norm>
0.830418

>  <RMSD>
27.046

$$$$
2fd0_lig
 OpenBabel11021811433D
libRbt.so/2013.1/901 2013/11/27
 52 56  0  0  0  0  0  0  0  0999 V2000
   10.0324  -24.8075    9.4668 C   0  0  2  0  0  0  0  0  0  0  0  0
    9.8968  -23.3983    9.2372 O   0  0  0  0  0  0  0  0  0  0  0  0
    7.5484  -21.0917    6.3986 C   0  0  2  0  0  0  0  0  0  0  0  0
    7.0963  -20.4550    5.1507 N   0  0  0  0  0  0  0  0  0  0  0  0
    8.9153  -25.3756    6.3722 C   0  0  1  0  0  0  0  0  0  0  0  0
   11.1521  -26.4893    3.8179 C   0  0  1  0  0  0  0  0  0  0  0  0
   13.2473  -28.1047   -0.7407 C   0  0  1  0  0  0  0  0  0  0  0  0
   10.0460  -25.0622   11.0181 C   0  0  2  0  0  0  0  0  0  0  0  0
    8.8523  -24.5353   11.6649 N   0  0  0  0  0  0  0  0  0  0  0  0
    9.0164  -20.6007    6.7686 C   0  0  0  0  0  0  0  0  0  0  0  0
   10.2061  -24.5810    6.2955 C   0  0  2  0  0  0  0  0  0  0  0  0
   10.1401  -23.5161    5.3057 O   0  0  0  0  0  0  0  0  0  0  0  0
   12.0836  -27.7884    3.7539 C   0  0  2  0  0  0  0  0  0  0  0  0
   13.4948  -27.4054    3.4759 N   0  0  0  0  0  0  0  0  0  0  0  0
   14.7235  -28.1073   -0.2841 C   0  0  1  0  0  0  0  0  0  0  0  0
   15.0096  -29.3623    0.3815 O   0  0  0  0  0  0  0  0  0  0  0  0
   11.3547  -24.4685   11.6593 C   0  0  0  0  0  0  0  0  0  0  0  0
    9.5022  -21.2867    8.1335 C   0  0  2  0  0  0  0  0  0  0  0  0
   10.8587  -20.8513    8.4970 N   0  0  0  0  0  0  0  0  0  0  0  0
   11.2525  -25.6553    6.0516 C   0  0  2  0  0  0  0  0  0  0  0  0
   11.7354  -25.6119    4.7364 O   0  0  0  0  0  0  0  0  0  0  0  0
   11.4169  -28.8074    2.6918 C   0  0  1  0  0  0  0  0  0  0  0  0
   10.0694  -29.0760    3.1198 O   0  0  0  0  0  0  0  0  0  0  0  0
   15.8088  -27.8797   -1.3709 C   0  0  1  0  0  0  0  0  0  0  0  0
   16.2348  -29.1634   -1.8451 O   0  0  0  0  0  0  0  0  0  0  0  0
   12.5906  -25.0831   10.9247 C   0  0  2  0  0  0  0  0  0  0  0  0
   13.7989  -24.5836   11.4892 O   0  0  0  0  0  0  0  0  0  0  0  0
    9.4627  -22.8317    7.9693 C   0  0  2  0  0  0  0  0  0  0  0  0
   10.5811  -27.0422    6.1935 C   0  0  2  0  0  0  0  0  0  0  0  0
    9.2864  -26.7095    6.6737 O   0  0  0  0  0  0  0  0  0  0  0  0
   11.3086  -28.1542    1.2167 C   0  0  2  0  0  0  0  0  0  0  0  0
   12.6742  -27.9198    0.8245 O   0  0  0  0  0  0  0  0  0  0  0  0
   15.3872  -27.0165   -2.5824 C   0  0  2  0  0  0  0  0  0  0  0  0
   16.5176  -26.1638   -2.8681 O   0  0  0  0  0  0  0  0  0  0  0  0
   12.5245  -24.7251    9.4124 C   0  0  2  0  0  0  0  0  0  0  0  0
   11.2657  -25.2750    8.8622 O   0  0  0  0  0  0  0  0  0  0  0  0
    8.0564  -23.3584    7.5496 C   0  0  2  0  0  0  0  0  0  0  0  0
    8.1595  -24.7933    7.3866 O   0  0  0  0  0  0  0  0  0  0  0  0
   11.2392  -27.9795    7.1999 C   0  0  0  0  0  0  0  0  0  0  0  0
   10.2649  -28.9751    7.5472 O   0  0  0  0  0  0  0  0  0  0  0  0
   10.6252  -26.8139    1.4119 C   0  0  1  0  0  0  0  0  0  0  0  0
   10.9805  -25.8518    2.4269 O   0  0  0  0  0  0  0  0  0  0  0  0
   14.1020  -26.2479   -2.2872 C   0  0  2  0  0  0  0  0  0  0  0  0
   13.0080  -27.0620   -1.7811 O   0  0  0  0  0  0  0  0  0  0  0  0
   13.6637  -25.3159    8.6442 C   0  0  0  0  0  0  0  0  0  0  0  0
   14.8563  -24.8024    9.1731 O   0  0  0  0  0  0  0  0  0  0  0  0
    7.5940  -22.6622    6.2177 C   0  0  1  0  0  0  0  0  0  0  0  0
    6.2466  -23.1433    5.8822 O   0  0  0  0  0  0  0  0  0  0  0  0
   10.4693  -25.9987    0.0794 C   0  0  0  0  0  0  0  0  0  0  0  0
   11.7528  -25.4843   -0.4568 N   0  0  0  0  0  0  0  0  0  0  0  0
   13.4567  -25.3249   -3.3185 C   0  0  0  0  0  0  0  0  0  0  0  0
   14.3929  -24.2772   -3.7190 O   0  0  0  0  0  0  0  0  0  0  0  0
  1  2  1  1  0  0  0
  1  8  1  0  0  0  0
  1 36  1  0  0  0  0
  3  4  1  6  0  0  0
  3 10  1  0  0  0  0
  3 47  1  0  0  0  0
  5 11  1  0  0  0  0
  5 30  1  0  0  0  0
  5 38  1  1  0  0  0
  6 21  1  1  0  0  0
  6 42  1  0  0  0  0
  7 15  1  0  0  0  0
  7 44  1  0  0  0  0
  7 32  1  1  0  0  0
  8  9  1  1  0  0  0
  8 17  1  0  0  0  0
 11 12  1  6  0  0  0
 11 20  1  0  0  0  0
 13  6  1  0  0  0  0
 13 14  1  6  0  0  0
 15 16  1  6  0  0  0
 15 24  1  0  0  0  0
 17 26  1  0  0  0  0
 18 10  1  0  0  0  0
 18 19  1  6  0  0  0
 20 21  1  6  0  0  0
 20 29  1  0  0  0  0
 22 13  1  0  0  0  0
 22 23  1  1  0  0  0
 24 25  1  6  0  0  0
 24 33  1  0  0  0  0
 26 27  1  1  0  0  0
 26 35  1  0  0  0  0
 28  2  1  1  0  0  0
 28 18  1  0  0  0  0
 29 30  1  0  0  0  0
 29 39  1  1  0  0  0
 31 22  1  0  0  0  0
 31 32  1  1  0  0  0
 31 41  1  0  0  0  0
 33 34  1  1  0  0  0
 33 43  1  0  0  0  0
 35 36  1  0  0  0  0
 35 45  1  6  0  0  0
 37 28  1  0  0  0  0
 37 38  1  6  0  0  0
 39 40  1  0  0  0  0
 41 42  1  0  0  0  0
 41 49  1  6  0  0  0
 43 44  1  0  0  0  0
 43 51  1  6  0  0  0
 45 46  1  0  0  0  0
 47 37  1  0  0  0  0
 47 48  1  1  0  0  0
 49 50  1  0  0  0  0
 51 52  1  0  0  0  0
M  END
>  <CHROM.1>
-161.46196873,42.06337127,-95.39422324,-164.39679637,-96.64530522,-178.02648395
160.05869608,143.38129846,-60.41912853,-67.12400950,-69.99273808,-58.48298803
11.45239180,-25.54566313,4.58273221,-2.06806507,0.75791900,-1.52670818

>  <Name>
2fd0_lig

>  <RI>
0

>  <Rbt.Current_Directory>
/home/itssahil/PROJECTS/Mol_Feturizer/New_Systems/rnas/2fd0

>  <Rbt.Executable>
rbdock ($Id: //depot/dev/client3/rdock/2013.1/src/exe/rbdock.cxx#4 $)

>  <Rbt.Library>
libRbt.so (2013.1, Build901 2013/11/27)

>  <Rbt.Parameter_File>
/export/apps/rDock/src/rDock_2013.1_src/data/scripts/dock_solv.prm

>  <Rbt.Receptor>
prm/blind_docking_40.prm

>  <SCORE>
45.0284

>  <SCORE.INTER>
8.33486

>  <SCORE.INTER.CONST>
1

>  <SCORE.INTER.POLAR>
0

>  <SCORE.INTER.ROT>
12

>  <SCORE.INTER.SOLV>
24.7028

>  <SCORE.INTER.VDW>
-14.2777

>  <SCORE.INTER.norm>
0.160286

>  <SCORE.INTRA>
14.3852

>  <SCORE.INTRA.DIHEDRAL>
-2.28359

>  <SCORE.INTRA.DIHEDRAL.0>
23.9727

>  <SCORE.INTRA.POLAR>
0

>  <SCORE.INTRA.POLAR.0>
0

>  <SCORE.INTRA.REPUL>
0

>  <SCORE.INTRA.REPUL.0>
0

>  <SCORE.INTRA.SOLV>
3.89312

>  <SCORE.INTRA.SOLV.lig_0>
-115.028

>  <SCORE.INTRA.VDW>
13.5804

>  <SCORE.INTRA.VDW.0>
-6.82393

>  <SCORE.INTRA.norm>
0.276638

>  <SCORE.RESTR>
22.3083

>  <SCORE.RESTR.CAVITY>
22.3083

>  <SCORE.RESTR.norm>
0.429007

>  <SCORE.SYSTEM>
0

>  <SCORE.SYSTEM.CONST>
0

>  <SCORE.SYSTEM.DIHEDRAL>
0

>  <SCORE.SYSTEM.SOLV>
0

>  <SCORE.SYSTEM.norm>
0

>  <SCORE.heavy>
52

>  <SCORE.norm>
0.86593

>  <RMSD>
27.053

$$$$
2fd0_lig
 OpenBabel11021811433D
libRbt.so/2013.1/901 2013/11/27
 52 56  0  0  0  0  0  0  0  0999 V2000
   10.9357  -24.3999    9.5157 C   0  0  2  0  0  0  0  0  0  0  0  0
   11.0270  -23.7477    8.2416 O   0  0  0  0  0  0  0  0  0  0  0  0
    7.5369  -21.1572    8.2112 C   0  0  2  0  0  0  0  0  0  0  0  0
    6.5308  -20.1736    7.7783 N   0  0  0  0  0  0  0  0  0  0  0  0
    9.1802  -24.4118    5.4489 C   0  0  1  0  0  0  0  0  0  0  0  0
   10.0860  -26.9547    2.2560 C   0  0  1  0  0  0  0  0  0  0  0  0
   13.7391  -28.1524   -0.9505 C   0  0  1  0  0  0  0  0  0  0  0  0
   12.3500  -24.9798    9.8830 C   0  0  2  0  0  0  0  0  0  0  0  0
   13.3747  -23.9452    9.8928 N   0  0  0  0  0  0  0  0  0  0  0  0
    8.9874  -20.5021    8.2060 C   0  0  0  0  0  0  0  0  0  0  0  0
    9.0642  -25.7754    4.7926 C   0  0  2  0  0  0  0  0  0  0  0  0
   10.2891  -26.5519    4.9142 O   0  0  0  0  0  0  0  0  0  0  0  0
   11.5306  -27.0934    2.9291 C   0  0  2  0  0  0  0  0  0  0  0  0
   12.4470  -26.0368    2.4201 N   0  0  0  0  0  0  0  0  0  0  0  0
   15.1086  -28.7010   -0.4910 C   0  0  1  0  0  0  0  0  0  0  0  0
   14.9517  -30.0835   -0.0860 O   0  0  0  0  0  0  0  0  0  0  0  0
   12.7306  -26.1544    8.9073 C   0  0  0  0  0  0  0  0  0  0  0  0
   10.0797  -21.5715    8.6883 C   0  0  2  0  0  0  0  0  0  0  0  0
   11.4308  -20.9915    8.6899 N   0  0  0  0  0  0  0  0  0  0  0  0
    8.6270  -25.4354    3.3777 C   0  0  2  0  0  0  0  0  0  0  0  0
    9.6650  -25.6372    2.4575 O   0  0  0  0  0  0  0  0  0  0  0  0
   12.0256  -28.6142    2.6983 C   0  0  1  0  0  0  0  0  0  0  0  0
   11.0339  -29.4937    3.2586 O   0  0  0  0  0  0  0  0  0  0  0  0
   16.2850  -28.6252   -1.5016 C   0  0  1  0  0  0  0  0  0  0  0  0
   16.3321  -29.8656   -2.2181 O   0  0  0  0  0  0  0  0  0  0  0  0
   11.5948  -27.2278    8.9554 C   0  0  2  0  0  0  0  0  0  0  0  0
   11.9108  -28.3195    8.0972 O   0  0  0  0  0  0  0  0  0  0  0  0
   10.0303  -22.8090    7.7492 C   0  0  2  0  0  0  0  0  0  0  0  0
    8.3086  -23.9228    3.3075 C   0  0  2  0  0  0  0  0  0  0  0  0
    8.3955  -23.5267    4.6688 O   0  0  0  0  0  0  0  0  0  0  0  0
   12.1305  -28.9817    1.1273 C   0  0  2  0  0  0  0  0  0  0  0  0
   13.1414  -28.0930    0.6154 O   0  0  0  0  0  0  0  0  0  0  0  0
   16.2322  -27.4636   -2.5206 C   0  0  2  0  0  0  0  0  0  0  0  0
   17.5857  -26.9691   -2.6213 O   0  0  0  0  0  0  0  0  0  0  0  0
   10.2510  -26.5794    8.5153 C   0  0  2  0  0  0  0  0  0  0  0  0
    9.9520  -25.4637    9.4401 O   0  0  0  0  0  0  0  0  0  0  0  0
    8.6128  -23.4540    7.6746 C   0  0  2  0  0  0  0  0  0  0  0  0
    8.6856  -24.5593    6.7423 O   0  0  0  0  0  0  0  0  0  0  0  0
    6.9142  -23.5783    2.7963 C   0  0  0  0  0  0  0  0  0  0  0  0
    6.8864  -22.1604    2.5728 O   0  0  0  0  0  0  0  0  0  0  0  0
   10.7940  -28.5906    0.5255 C   0  0  1  0  0  0  0  0  0  0  0  0
   10.1218  -27.3363    0.7648 O   0  0  0  0  0  0  0  0  0  0  0  0
   15.2246  -26.4014   -2.0892 C   0  0  2  0  0  0  0  0  0  0  0  0
   13.9022  -26.9124   -1.7646 O   0  0  0  0  0  0  0  0  0  0  0  0
    9.1132  -27.5484    8.5741 C   0  0  0  0  0  0  0  0  0  0  0  0
    9.4487  -28.6598    7.7879 O   0  0  0  0  0  0  0  0  0  0  0  0
    7.5560  -22.3846    7.2140 C   0  0  1  0  0  0  0  0  0  0  0  0
    6.2279  -23.0134    7.2056 O   0  0  0  0  0  0  0  0  0  0  0  0
   10.7179  -28.8330   -1.0236 C   0  0  0  0  0  0  0  0  0  0  0  0
   11.1855  -27.6794   -1.8298 N   0  0  0  0  0  0  0  0  0  0  0  0
   14.9650  -25.1477   -2.9216 C   0  0  0  0  0  0  0  0  0  0  0  0
   16.2259  -24.4916   -3.2593 O   0  0  0  0  0  0  0  0  0  0  0  0
  1  2  1  6  0  0  0
  1  8  1  0  0  0  0
  1 36  1  0  0  0  0
  3  4  1  6  0  0  0
  3 10  1  0  0  0  0
  3 47  1  0  0  0  0
  5 11  1  0  0  0  0
  5 30  1  0  0  0  0
  5 38  1  1  0  0  0
  6 21  1  6  0  0  0
  6 42  1  0  0  0  0
  7 15  1  0  0  0  0
  7 44  1  0  0  0  0
  7 32  1  1  0  0  0
  8  9  1  6  0  0  0
  8 17  1  0  0  0  0
 11 12  1  6  0  0  0
 11 20  1  0  0  0  0
 13  6  1  0  0  0  0
 13 14  1  6  0  0  0
 15 16  1  6  0  0  0
 15 24  1  0  0  0  0
 17 26  1  0  0  0  0
 18 10  1  0  0  0  0
 18 19  1  6  0  0  0
 20 21  1  6  0  0  0
 20 29  1  0  0  0  0
 22 13  1  0  0  0  0
 22 23  1  1  0  0  0
 24 25  1  6  0  0  0
 24 33  1  0  0  0  0
 26 27  1  6  0  0  0
 26 35  1  0  0  0  0
 28  2  1  1  0  0  0
 28 18  1  0  0  0  0
 29 30  1  0  0  0  0
 29 39  1  1  0  0  0
 31 22  1  0  0  0  0
 31 32  1  6  0  0  0
 31 41  1  0  0  0  0
 33 34  1  1  0  0  0
 33 43  1  0  0  0  0
 35 36  1  0  0  0  0
 35 45  1  1  0  0  0
 37 28  1  0  0  0  0
 37 38  1  6  0  0  0
 39 40  1  0  0  0  0
 41 42  1  0  0  0  0
 41 49  1  6  0  0  0
 43 44  1  0  0  0  0
 43 51  1  6  0  0  0
 45 46  1  0  0  0  0
 47 37  1  0  0  0  0
 47 48  1  1  0  0  0
 49 50  1  0  0  0  0
 51 52  1  0  0  0  0
M  END
>  <CHROM.1>
-163.32840354,-178.90958941,-108.62182232,-108.97283788,66.61533557,65.55998634
-169.82262428,174.31309945,-55.83615166,-53.13774310,-88.65423052,-50.41522535
11.19386794,-25.78166405,3.87214221,-2.25927476,0.77829583,-1.46691850

>  <Name>
2fd0_lig

>  <RI>
0

>  <Rbt.Current_Directory>
/home/itssahil/PROJECTS/Mol_Feturizer/New_Systems/rnas/2fd0

>  <Rbt.Executable>
rbdock ($Id: //depot/dev/client3/rdock/2013.1/src/exe/rbdock.cxx#4 $)

>  <Rbt.Library>
libRbt.so (2013.1, Build901 2013/11/27)

>  <Rbt.Parameter_File>
/export/apps/rDock/src/rDock_2013.1_src/data/scripts/dock_solv.prm

>  <Rbt.Receptor>
prm/blind_docking_40.prm

>  <SCORE>
24.7089

>  <SCORE.INTER>
-4.97262

>  <SCORE.INTER.CONST>
1

>  <SCORE.INTER.POLAR>
0

>  <SCORE.INTER.ROT>
12

>  <SCORE.INTER.SOLV>
11.8444

>  <SCORE.INTER.VDW>
-18.8632

>  <SCORE.INTER.norm>
-0.0956273

>  <SCORE.INTRA>
4.54918

>  <SCORE.INTRA.DIHEDRAL>
-4.68

>  <SCORE.INTRA.DIHEDRAL.0>
23.9727

>  <SCORE.INTRA.POLAR>
0

>  <SCORE.INTRA.POLAR.0>
0

>  <SCORE.INTRA.REPUL>
0.00151009

>  <SCORE.INTRA.REPUL.0>
0

>  <SCORE.INTRA.SOLV>
2.0803

>  <SCORE.INTRA.SOLV.lig_0>
-115.028

>  <SCORE.INTRA.VDW>
5.84148

>  <SCORE.INTRA.VDW.0>
-6.82393

>  <SCORE.INTRA.norm>
0.0874842

>  <SCORE.RESTR>
25.1324

>  <SCORE.RESTR.CAVITY>
25.1324

>  <SCORE.RESTR.norm>
0.483315

>  <SCORE.SYSTEM>
0

>  <SCORE.SYSTEM.CONST>
0

>  <SCORE.SYSTEM.DIHEDRAL>
0

>  <SCORE.SYSTEM.SOLV>
0

>  <SCORE.SYSTEM.norm>
0

>  <SCORE.heavy>
52

>  <SCORE.norm>
0.475172

>  <RMSD>
27.053

$$$$
2fd0_lig
 OpenBabel11021811433D
libRbt.so/2013.1/901 2013/11/27
 52 56  0  0  0  0  0  0  0  0999 V2000
   10.3615  -24.4758    9.1653 C   0  0  2  0  0  0  0  0  0  0  0  0
   10.4462  -23.0660    8.9153 O   0  0  0  0  0  0  0  0  0  0  0  0
    7.0240  -20.8061    7.4754 C   0  0  2  0  0  0  0  0  0  0  0  0
    6.1236  -20.0432    6.5955 N   0  0  0  0  0  0  0  0  0  0  0  0
    9.4647  -24.6204    6.3261 C   0  0  1  0  0  0  0  0  0  0  0  0
   10.7518  -27.3599    2.8840 C   0  0  1  0  0  0  0  0  0  0  0  0
   14.0398  -26.9134   -0.3970 C   0  0  1  0  0  0  0  0  0  0  0  0
   10.1042  -24.6968   10.7003 C   0  0  2  0  0  0  0  0  0  0  0  0
    8.9040  -24.0080   11.1540 N   0  0  0  0  0  0  0  0  0  0  0  0
    8.4410  -20.0879    7.5719 C   0  0  0  0  0  0  0  0  0  0  0  0
    9.2505  -26.0293    5.8038 C   0  0  2  0  0  0  0  0  0  0  0  0
   10.0514  -27.0108    6.5203 O   0  0  0  0  0  0  0  0  0  0  0  0
   12.2786  -27.6783    2.5279 C   0  0  2  0  0  0  0  0  0  0  0  0
   13.0443  -26.4161    2.3385 N   0  0  0  0  0  0  0  0  0  0  0  0
   14.0814  -27.0602   -1.9347 C   0  0  1  0  0  0  0  0  0  0  0  0
   13.6946  -25.8015   -2.5397 O   0  0  0  0  0  0  0  0  0  0  0  0
   11.3651  -24.2615   11.5353 C   0  0  0  0  0  0  0  0  0  0  0  0
    9.4159  -20.9143    8.5393 C   0  0  2  0  0  0  0  0  0  0  0  0
   10.7347  -20.2725    8.6438 N   0  0  0  0  0  0  0  0  0  0  0  0
    9.5385  -25.8886    4.3186 C   0  0  2  0  0  0  0  0  0  0  0  0
   10.7593  -26.4849    3.9740 O   0  0  0  0  0  0  0  0  0  0  0  0
   12.2786  -28.6882    1.2665 C   0  0  1  0  0  0  0  0  0  0  0  0
   11.5092  -29.8495    1.6275 O   0  0  0  0  0  0  0  0  0  0  0  0
   15.4227  -27.5105   -2.5743 C   0  0  1  0  0  0  0  0  0  0  0  0
   16.1558  -26.3336   -2.9372 O   0  0  0  0  0  0  0  0  0  0  0  0
   12.6087  -25.0446   11.0015 C   0  0  2  0  0  0  0  0  0  0  0  0
   13.7707  -24.6915   11.7453 O   0  0  0  0  0  0  0  0  0  0  0  0
    9.5676  -22.3618    7.9939 C   0  0  2  0  0  0  0  0  0  0  0  0
    9.7107  -24.3869    3.9874 C   0  0  2  0  0  0  0  0  0  0  0  0
    9.3444  -23.7588    5.2076 O   0  0  0  0  0  0  0  0  0  0  0  0
   11.5528  -28.0394   -0.0245 C   0  0  2  0  0  0  0  0  0  0  0  0
   12.3633  -26.8969   -0.3582 O   0  0  0  0  0  0  0  0  0  0  0  0
   16.3258  -28.4090   -1.6981 C   0  0  2  0  0  0  0  0  0  0  0  0
   16.8544  -29.4180   -2.5865 O   0  0  0  0  0  0  0  0  0  0  0  0
   12.8219  -24.7135    9.4966 C   0  0  2  0  0  0  0  0  0  0  0  0
   11.6018  -25.1098    8.7593 O   0  0  0  0  0  0  0  0  0  0  0  0
    8.1992  -23.0901    7.8261 C   0  0  2  0  0  0  0  0  0  0  0  0
    8.4684  -24.4012    7.2740 O   0  0  0  0  0  0  0  0  0  0  0  0
    8.8000  -23.8591    2.8845 C   0  0  0  0  0  0  0  0  0  0  0  0
    9.3416  -24.3173    1.6364 O   0  0  0  0  0  0  0  0  0  0  0  0
   10.2047  -27.5480    0.4680 C   0  0  1  0  0  0  0  0  0  0  0  0
   10.0014  -26.7787    1.6717 O   0  0  0  0  0  0  0  0  0  0  0  0
   15.5478  -28.9826   -0.5169 C   0  0  2  0  0  0  0  0  0  0  0  0
   14.8191  -27.9986    0.2680 O   0  0  0  0  0  0  0  0  0  0  0  0
   13.9791  -25.4614    8.9147 C   0  0  0  0  0  0  0  0  0  0  0  0
   13.9854  -26.7497    9.4677 O   0  0  0  0  0  0  0  0  0  0  0  0
    7.2545  -22.2555    6.8861 C   0  0  1  0  0  0  0  0  0  0  0  0
    5.9600  -22.9446    6.7934 O   0  0  0  0  0  0  0  0  0  0  0  0
    9.3600  -26.8364   -0.6476 C   0  0  0  0  0  0  0  0  0  0  0  0
    9.8996  -25.5150   -1.0501 N   0  0  0  0  0  0  0  0  0  0  0  0
   16.2031  -29.8974    0.5153 C   0  0  0  0  0  0  0  0  0  0  0  0
   15.1962  -30.4446    1.4215 O   0  0  0  0  0  0  0  0  0  0  0  0
  1  2  1  1  0  0  0
  1  8  1  0  0  0  0
  1 36  1  0  0  0  0
  3  4  1  6  0  0  0
  3 10  1  0  0  0  0
  3 47  1  0  0  0  0
  5 11  1  0  0  0  0
  5 30  1  0  0  0  0
  5 38  1  1  0  0  0
  6 21  1  1  0  0  0
  6 42  1  0  0  0  0
  7 15  1  0  0  0  0
  7 44  1  0  0  0  0
  7 32  1  1  0  0  0
  8  9  1  1  0  0  0
  8 17  1  0  0  0  0
 11 12  1  1  0  0  0
 11 20  1  0  0  0  0
 13  6  1  0  0  0  0
 13 14  1  6  0  0  0
 15 16  1  6  0  0  0
 15 24  1  0  0  0  0
 17 26  1  0  0  0  0
 18 10  1  0  0  0  0
 18 19  1  6  0  0  0
 20 21  1  1  0  0  0
 20 29  1  0  0  0  0
 22 13  1  0  0  0  0
 22 23  1  1  0  0  0
 24 25  1  1  0  0  0
 24 33  1  0  0  0  0
 26 27  1  1  0  0  0
 26 35  1  0  0  0  0
 28  2  1  1  0  0  0
 28 18  1  0  0  0  0
 29 30  1  0  0  0  0
 29 39  1  6  0  0  0
 31 22  1  0  0  0  0
 31 32  1  1  0  0  0
 31 41  1  0  0  0  0
 33 34  1  6  0  0  0
 33 43  1  0  0  0  0
 35 36  1  0  0  0  0
 35 45  1  6  0  0  0
 37 28  1  0  0  0  0
 37 38  1  6  0  0  0
 39 40  1  0  0  0  0
 41 42  1  0  0  0  0
 41 49  1  6  0  0  0
 43 44  1  0  0  0  0
 43 51  1  1  0  0  0
 45 46  1  0  0  0  0
 47 37  1  0  0  0  0
 47 48  1  1  0  0  0
 49 50  1  0  0  0  0
 51 52  1  0  0  0  0
M  END
>  <CHROM.1>
-121.41499388,-168.94111624,169.43832461,99.87642604,130.37704148,149.68075953
-76.23244212,44.21975213,38.15214448,-37.14999762,-70.50472341,-172.16323083
11.35827807,-25.53726920,4.29435334,-2.04379540,0.59596604,-1.74793668

>  <Name>
2fd0_lig

>  <RI>
0

>  <Rbt.Current_Directory>
/home/itssahil/PROJECTS/Mol_Feturizer/New_Systems/rnas/2fd0

>  <Rbt.Executable>
rbdock ($Id: //depot/dev/client3/rdock/2013.1/src/exe/rbdock.cxx#4 $)

>  <Rbt.Library>
libRbt.so (2013.1, Build901 2013/11/27)

>  <Rbt.Parameter_File>
/export/apps/rDock/src/rDock_2013.1_src/data/scripts/dock_solv.prm

>  <Rbt.Receptor>
prm/blind_docking_40.prm

>  <SCORE>
29.0704

>  <SCORE.INTER>
-2.95675

>  <SCORE.INTER.CONST>
1

>  <SCORE.INTER.POLAR>
-0.232025

>  <SCORE.INTER.ROT>
12

>  <SCORE.INTER.SOLV>
18.8021

>  <SCORE.INTER.VDW>
-19.0651

>  <SCORE.INTER.norm>
-0.0568605

>  <SCORE.INTRA>
7.20975

>  <SCORE.INTRA.DIHEDRAL>
8.00708

>  <SCORE.INTRA.DIHEDRAL.0>
23.9727

>  <SCORE.INTRA.POLAR>
0

>  <SCORE.INTRA.POLAR.0>
0

>  <SCORE.INTRA.REPUL>
0

>  <SCORE.INTRA.REPUL.0>
0

>  <SCORE.INTRA.SOLV>
1.82076

>  <SCORE.INTRA.SOLV.lig_0>
-115.028

>  <SCORE.INTRA.VDW>
2.29583

>  <SCORE.INTRA.VDW.0>
-6.82393

>  <SCORE.INTRA.norm>
0.138649

>  <SCORE.RESTR>
24.8174

>  <SCORE.RESTR.CAVITY>
24.8174

>  <SCORE.RESTR.norm>
0.477258

>  <SCORE.SYSTEM>
0

>  <SCORE.SYSTEM.CONST>
0

>  <SCORE.SYSTEM.DIHEDRAL>
0

>  <SCORE.SYSTEM.SOLV>
0

>  <SCORE.SYSTEM.norm>
0

>  <SCORE.heavy>
52

>  <SCORE.norm>
0.559047

>  <RMSD>
27.118

$$$$
2fd0_lig
 OpenBabel11021811433D
libRbt.so/2013.1/901 2013/11/27
 52 56  0  0  0  0  0  0  0  0999 V2000
   10.0298  -24.8929    8.5553 C   0  0  2  0  0  0  0  0  0  0  0  0
   10.9164  -23.8959    8.0290 O   0  0  0  0  0  0  0  0  0  0  0  0
    9.6042  -19.7863    8.5591 C   0  0  2  0  0  0  0  0  0  0  0  0
    9.2167  -18.3954    8.2722 N   0  0  0  0  0  0  0  0  0  0  0  0
    8.3064  -23.4195    6.0328 C   0  0  1  0  0  0  0  0  0  0  0  0
    8.6953  -24.6440    2.9154 C   0  0  1  0  0  0  0  0  0  0  0  0
   12.1443  -27.6538    0.5478 C   0  0  1  0  0  0  0  0  0  0  0  0
   10.1735  -24.9134   10.1207 C   0  0  2  0  0  0  0  0  0  0  0  0
    9.9058  -23.6076   10.7072 N   0  0  0  0  0  0  0  0  0  0  0  0
   11.0822  -20.0661    8.0393 C   0  0  0  0  0  0  0  0  0  0  0  0
    7.4929  -24.6622    5.7204 C   0  0  2  0  0  0  0  0  0  0  0  0
    8.3020  -25.8717    5.7458 O   0  0  0  0  0  0  0  0  0  0  0  0
    8.9030  -25.2227    1.4384 C   0  0  2  0  0  0  0  0  0  0  0  0
    8.6433  -26.6880    1.4109 N   0  0  0  0  0  0  0  0  0  0  0  0
   12.7221  -28.7053    1.5217 C   0  0  1  0  0  0  0  0  0  0  0  0
   11.6412  -29.5323    2.0192 O   0  0  0  0  0  0  0  0  0  0  0  0
   11.5954  -25.4465   10.5334 C   0  0  0  0  0  0  0  0  0  0  0  0
   11.5060  -21.5778    8.3627 C   0  0  2  0  0  0  0  0  0  0  0  0
   12.8685  -21.8635    7.8897 N   0  0  0  0  0  0  0  0  0  0  0  0
    6.8463  -24.3193    4.3889 C   0  0  2  0  0  0  0  0  0  0  0  0
    7.4237  -25.0434    3.3367 O   0  0  0  0  0  0  0  0  0  0  0  0
   10.3725  -24.7669    0.9447 C   0  0  1  0  0  0  0  0  0  0  0  0
   10.4423  -23.3317    1.0243 O   0  0  0  0  0  0  0  0  0  0  0  0
   13.8375  -29.6419    0.9836 C   0  0  1  0  0  0  0  0  0  0  0  0
   13.2132  -30.8351    0.4927 O   0  0  0  0  0  0  0  0  0  0  0  0
   11.8089  -26.8501    9.8782 C   0  0  2  0  0  0  0  0  0  0  0  0
   13.0808  -27.3767   10.2433 O   0  0  0  0  0  0  0  0  0  0  0  0
   10.4927  -22.5458    7.6905 C   0  0  2  0  0  0  0  0  0  0  0  0
    7.1335  -22.8333    4.0668 C   0  0  2  0  0  0  0  0  0  0  0  0
    7.7428  -22.3713    5.2638 O   0  0  0  0  0  0  0  0  0  0  0  0
   11.5365  -25.3377    1.9109 C   0  0  2  0  0  0  0  0  0  0  0  0
   11.4397  -26.7690    1.7860 O   0  0  0  0  0  0  0  0  0  0  0  0
   14.7380  -29.0575   -0.1291 C   0  0  2  0  0  0  0  0  0  0  0  0
   16.0800  -29.4890    0.1860 O   0  0  0  0  0  0  0  0  0  0  0  0
   11.7138  -26.7188    8.3312 C   0  0  2  0  0  0  0  0  0  0  0  0
   10.3753  -26.1857    7.9943 O   0  0  0  0  0  0  0  0  0  0  0  0
    9.0198  -22.2742    8.1238 C   0  0  2  0  0  0  0  0  0  0  0  0
    8.1751  -23.2025    7.4020 O   0  0  0  0  0  0  0  0  0  0  0  0
    5.8994  -21.9798    3.7968 C   0  0  0  0  0  0  0  0  0  0  0  0
    6.3636  -20.7101    3.3133 O   0  0  0  0  0  0  0  0  0  0  0  0
   11.1278  -24.9469    3.3187 C   0  0  1  0  0  0  0  0  0  0  0  0
    9.8054  -25.1239    3.8682 O   0  0  0  0  0  0  0  0  0  0  0  0
   14.5887  -27.5409   -0.2150 C   0  0  2  0  0  0  0  0  0  0  0  0
   13.2164  -27.0683   -0.3093 O   0  0  0  0  0  0  0  0  0  0  0  0
   11.8743  -28.0376    7.6440 C   0  0  0  0  0  0  0  0  0  0  0  0
   13.1245  -28.5629    7.9998 O   0  0  0  0  0  0  0  0  0  0  0  0
    8.6306  -20.7832    7.8110 C   0  0  1  0  0  0  0  0  0  0  0  0
    7.2572  -20.5505    8.2791 O   0  0  0  0  0  0  0  0  0  0  0  0
   12.1246  -25.4600    4.4175 C   0  0  0  0  0  0  0  0  0  0  0  0
   11.7284  -25.0919    5.7984 N   0  0  0  0  0  0  0  0  0  0  0  0
   15.3590  -26.7092   -1.2382 C   0  0  0  0  0  0  0  0  0  0  0  0
   14.4360  -26.0772   -2.1779 O   0  0  0  0  0  0  0  0  0  0  0  0
  1  2  1  6  0  0  0
  1  8  1  0  0  0  0
  1 36  1  0  0  0  0
  3  4  1  6  0  0  0
  3 10  1  0  0  0  0
  3 47  1  0  0  0  0
  5 11  1  0  0  0  0
  5 30  1  0  0  0  0
  5 38  1  1  0  0  0
  6 21  1  1  0  0  0
  6 42  1  0  0  0  0
  7 15  1  0  0  0  0
  7 44  1  0  0  0  0
  7 32  1  1  0  0  0
  8  9  1  6  0  0  0
  8 17  1  0  0  0  0
 11 12  1  6  0  0  0
 11 20  1  0  0  0  0
 13  6  1  0  0  0  0
 13 14  1  1  0  0  0
 15 16  1  6  0  0  0
 15 24  1  0  0  0  0
 17 26  1  0  0  0  0
 18 10  1  0  0  0  0
 18 19  1  6  0  0  0
 20 21  1  6  0  0  0
 20 29  1  0  0  0  0
 22 13  1  0  0  0  0
 22 23  1  1  0  0  0
 24 25  1  6  0  0  0
 24 33  1  0  0  0  0
 26 27  1  6  0  0  0
 26 35  1  0  0  0  0
 28  2  1  1  0  0  0
 28 18  1  0  0  0  0
 29 30  1  0  0  0  0
 29 39  1  1  0  0  0
 31 22  1  0  0  0  0
 31 32  1  1  0  0  0
 31 41  1  0  0  0  0
 33 34  1  1  0  0  0
 33 43  1  0  0  0  0
 35 36  1  0  0  0  0
 35 45  1  6  0  0  0
 37 28  1  0  0  0  0
 37 38  1  6  0  0  0
 39 40  1  0  0  0  0
 41 42  1  0  0  0  0
 41 49  1  1  0  0  0
 43 44  1  0  0  0  0
 43 51  1  6  0  0  0
 45 46  1  0  0  0  0
 47 37  1  0  0  0  0
 47 48  1  1  0  0  0
 49 50  1  0  0  0  0
 51 52  1  0  0  0  0
M  END
>  <CHROM.1>
-96.91592727,167.12108567,-159.94000559,133.36904059,-74.30070249,130.46589379
-170.96514794,83.34529491,-58.91670050,-46.89225709,-179.55948907,115.59718525
10.67647404,-25.00519662,4.82501823,-2.19002185,0.83614587,-1.71062393

>  <Name>
2fd0_lig

>  <RI>
0

>  <Rbt.Current_Directory>
/home/itssahil/PROJECTS/Mol_Feturizer/New_Systems/rnas/2fd0

>  <Rbt.Executable>
rbdock ($Id: //depot/dev/client3/rdock/2013.1/src/exe/rbdock.cxx#4 $)

>  <Rbt.Library>
libRbt.so (2013.1, Build901 2013/11/27)

>  <Rbt.Parameter_File>
/export/apps/rDock/src/rDock_2013.1_src/data/scripts/dock_solv.prm

>  <Rbt.Receptor>
prm/blind_docking_40.prm

>  <SCORE>
29.1621

>  <SCORE.INTER>
-4.31346

>  <SCORE.INTER.CONST>
1

>  <SCORE.INTER.POLAR>
-1.01593

>  <SCORE.INTER.ROT>
12

>  <SCORE.INTER.SOLV>
14.2186

>  <SCORE.INTER.VDW>
-15.8287

>  <SCORE.INTER.norm>
-0.0829511

>  <SCORE.INTRA>
10.7377

>  <SCORE.INTRA.DIHEDRAL>
6.86871

>  <SCORE.INTRA.DIHEDRAL.0>
23.9727

>  <SCORE.INTRA.POLAR>
0

>  <SCORE.INTRA.POLAR.0>
0

>  <SCORE.INTRA.REPUL>
0.0579625

>  <SCORE.INTRA.REPUL.0>
0

>  <SCORE.INTRA.SOLV>
5.65807

>  <SCORE.INTRA.SOLV.lig_0>
-115.028

>  <SCORE.INTRA.VDW>
4.18454

>  <SCORE.INTRA.VDW.0>
-6.82393

>  <SCORE.INTRA.norm>
0.206495

>  <SCORE.RESTR>
22.7378

>  <SCORE.RESTR.CAVITY>
22.7378

>  <SCORE.RESTR.norm>
0.437265

>  <SCORE.SYSTEM>
0

>  <SCORE.SYSTEM.CONST>
0

>  <SCORE.SYSTEM.DIHEDRAL>
0

>  <SCORE.SYSTEM.SOLV>
0

>  <SCORE.SYSTEM.norm>
0

>  <SCORE.heavy>
52

>  <SCORE.norm>
0.560809

>  <RMSD>
27.160

$$$$
2fd0_lig
 OpenBabel11021811433D
libRbt.so/2013.1/901 2013/11/27
 52 56  0  0  0  0  0  0  0  0999 V2000
    8.5226  -23.7138    8.1019 C   0  0  2  0  0  0  0  0  0  0  0  0
    9.5674  -24.3884    7.3876 O   0  0  0  0  0  0  0  0  0  0  0  0
   12.6571  -24.8874   10.4038 C   0  0  2  0  0  0  0  0  0  0  0  0
   13.8757  -25.3412   11.0936 N   0  0  0  0  0  0  0  0  0  0  0  0
   12.1534  -23.6826    5.8742 C   0  0  1  0  0  0  0  0  0  0  0  0
   12.4496  -27.4503    3.4744 C   0  0  1  0  0  0  0  0  0  0  0  0
   10.0733  -26.1468    0.0467 C   0  0  1  0  0  0  0  0  0  0  0  0
    7.2718  -23.5884    7.1578 C   0  0  2  0  0  0  0  0  0  0  0  0
    6.8254  -24.8871    6.6733 N   0  0  0  0  0  0  0  0  0  0  0  0
   11.7462  -26.1333   10.0150 C   0  0  0  0  0  0  0  0  0  0  0  0
   12.9398  -24.9466    6.1697 C   0  0  2  0  0  0  0  0  0  0  0  0
   14.3593  -24.7915    5.8885 O   0  0  0  0  0  0  0  0  0  0  0  0
   13.3478  -27.5494    2.1543 C   0  0  2  0  0  0  0  0  0  0  0  0
   13.4156  -26.2298    1.4691 N   0  0  0  0  0  0  0  0  0  0  0  0
   10.9234  -25.1765   -0.8040 C   0  0  1  0  0  0  0  0  0  0  0  0
   10.9631  -25.6574   -2.1704 O   0  0  0  0  0  0  0  0  0  0  0  0
    7.5808  -22.6075    5.9666 C   0  0  0  0  0  0  0  0  0  0  0  0
   10.4147  -25.6360    9.2739 C   0  0  2  0  0  0  0  0  0  0  0  0
    9.5557  -26.7696    8.9011 N   0  0  0  0  0  0  0  0  0  0  0  0
   12.2089  -26.0000    5.3543 C   0  0  2  0  0  0  0  0  0  0  0  0
   12.9581  -26.3953    4.2375 O   0  0  0  0  0  0  0  0  0  0  0  0
   12.7646  -28.7661    1.2651 C   0  0  1  0  0  0  0  0  0  0  0  0
   12.7832  -29.9560    2.0743 O   0  0  0  0  0  0  0  0  0  0  0  0
   10.4942  -23.6845   -0.8303 C   0  0  1  0  0  0  0  0  0  0  0  0
    9.6335  -23.4925   -1.9601 O   0  0  0  0  0  0  0  0  0  0  0  0
    8.0433  -21.2365    6.5594 C   0  0  2  0  0  0  0  0  0  0  0  0
    8.3160  -20.3123    5.5108 O   0  0  0  0  0  0  0  0  0  0  0  0
   10.8090  -24.8250    8.0081 C   0  0  2  0  0  0  0  0  0  0  0  0
   10.9177  -25.3721    4.7773 C   0  0  2  0  0  0  0  0  0  0  0  0
   10.8805  -24.1038    5.4159 O   0  0  0  0  0  0  0  0  0  0  0  0
   11.2227  -28.5202    0.8453 C   0  0  2  0  0  0  0  0  0  0  0  0
   11.2559  -27.3358    0.0270 O   0  0  0  0  0  0  0  0  0  0  0  0
    9.7777  -23.1606    0.4358 C   0  0  2  0  0  0  0  0  0  0  0  0
   10.3158  -21.8412    0.6727 O   0  0  0  0  0  0  0  0  0  0  0  0
    9.3195  -21.4502    7.4228 C   0  0  2  0  0  0  0  0  0  0  0  0
    8.9895  -22.4012    8.5073 O   0  0  0  0  0  0  0  0  0  0  0  0
   11.7504  -23.6243    8.3292 C   0  0  2  0  0  0  0  0  0  0  0  0
   12.0793  -22.9809    7.0747 O   0  0  0  0  0  0  0  0  0  0  0  0
    9.6302  -26.1160    5.1141 C   0  0  0  0  0  0  0  0  0  0  0  0
    9.8397  -26.7702    6.3748 O   0  0  0  0  0  0  0  0  0  0  0  0
   10.4941  -28.1956    2.1357 C   0  0  1  0  0  0  0  0  0  0  0  0
   10.9615  -27.2588    3.1286 O   0  0  0  0  0  0  0  0  0  0  0  0
    9.9688  -24.1177    1.6093 C   0  0  2  0  0  0  0  0  0  0  0  0
    9.6412  -25.5055    1.3231 O   0  0  0  0  0  0  0  0  0  0  0  0
    9.7938  -20.1778    8.0498 C   0  0  0  0  0  0  0  0  0  0  0  0
    8.7334  -19.6379    8.7912 O   0  0  0  0  0  0  0  0  0  0  0  0
   13.0419  -24.1330    9.0681 C   0  0  1  0  0  0  0  0  0  0  0  0
   13.8785  -22.9714    9.4000 O   0  0  0  0  0  0  0  0  0  0  0  0
    8.9717  -27.8768    1.9236 C   0  0  0  0  0  0  0  0  0  0  0  0
    8.2803  -28.8415    1.0343 N   0  0  0  0  0  0  0  0  0  0  0  0
    9.3559  -23.8471    2.9816 C   0  0  0  0  0  0  0  0  0  0  0  0
    7.8980  -23.8189    2.8904 O   0  0  0  0  0  0  0  0  0  0  0  0
  1  2  1  6  0  0  0
  1  8  1  0  0  0  0
  1 36  1  0  0  0  0
  3  4  1  6  0  0  0
  3 10  1  0  0  0  0
  3 47  1  0  0  0  0
  5 11  1  0  0  0  0
  5 30  1  0  0  0  0
  5 38  1  1  0  0  0
  6 21  1  1  0  0  0
  6 42  1  0  0  0  0
  7 15  1  0  0  0  0
  7 44  1  0  0  0  0
  7 32  1  1  0  0  0
  8  9  1  6  0  0  0
  8 17  1  0  0  0  0
 11 12  1  6  0  0  0
 11 20  1  0  0  0  0
 13  6  1  0  0  0  0
 13 14  1  6  0  0  0
 15 16  1  6  0  0  0
 15 24  1  0  0  0  0
 17 26  1  0  0  0  0
 18 10  1  0  0  0  0
 18 19  1  6  0  0  0
 20 21  1  6  0  0  0
 20 29  1  0  0  0  0
 22 13  1  0  0  0  0
 22 23  1  1  0  0  0
 24 25  1  6  0  0  0
 24 33  1  0  0  0  0
 26 27  1  6  0  0  0
 26 35  1  0  0  0  0
 28  2  1  1  0  0  0
 28 18  1  0  0  0  0
 29 30  1  0  0  0  0
 29 39  1  1  0  0  0
 31 22  1  0  0  0  0
 31 32  1  6  0  0  0
 31 41  1  0  0  0  0
 33 34  1  1  0  0  0
 33 43  1  0  0  0  0
 35 36  1  0  0  0  0
 35 45  1  1  0  0  0
 37 28  1  0  0  0  0
 37 38  1  6  0  0  0
 39 40  1  0  0  0  0
 41 42  1  0  0  0  0
 41 49  1  6  0  0  0
 43 44  1  0  0  0  0
 43 51  1  1  0  0  0
 45 46  1  0  0  0  0
 47 37  1  0  0  0  0
 47 48  1  1  0  0  0
 49 50  1  0  0  0  0
 51 52  1  0  0  0  0
M  END
>  <CHROM.1>
-172.01336206,-45.27973274,171.20628769,169.54603776,174.21904706,51.00987753
28.83467462,-142.56796728,55.71868473,-30.44594458,46.12328736,62.33809002
10.64183800,-24.86340654,4.67922445,1.60017851,-0.91957917,1.24283865

>  <Name>
2fd0_lig

>  <RI>
0

>  <Rbt.Current_Directory>
/home/itssahil/PROJECTS/Mol_Feturizer/New_Systems/rnas/2fd0

>  <Rbt.Executable>
rbdock ($Id: //depot/dev/client3/rdock/2013.1/src/exe/rbdock.cxx#4 $)

>  <Rbt.Library>
libRbt.so (2013.1, Build901 2013/11/27)

>  <Rbt.Parameter_File>
/export/apps/rDock/src/rDock_2013.1_src/data/scripts/dock_solv.prm

>  <Rbt.Receptor>
prm/blind_docking_40.prm

>  <SCORE>
42.3614

>  <SCORE.INTER>
8.16012

>  <SCORE.INTER.CONST>
1

>  <SCORE.INTER.POLAR>
-0.37806

>  <SCORE.INTER.ROT>
12

>  <SCORE.INTER.SOLV>
28.4217

>  <SCORE.INTER.VDW>
-14.3736

>  <SCORE.INTER.norm>
0.156925

>  <SCORE.INTRA>
12.94

>  <SCORE.INTRA.DIHEDRAL>
-7.92045

>  <SCORE.INTRA.DIHEDRAL.0>
23.9727

>  <SCORE.INTRA.POLAR>
0

>  <SCORE.INTRA.POLAR.0>
0

>  <SCORE.INTRA.REPUL>
0

>  <SCORE.INTRA.REPUL.0>
0

>  <SCORE.INTRA.SOLV>
6.95994

>  <SCORE.INTRA.SOLV.lig_0>
-115.028

>  <SCORE.INTRA.VDW>
13.4202

>  <SCORE.INTRA.VDW.0>
-6.82393

>  <SCORE.INTRA.norm>
0.248845

>  <SCORE.RESTR>
21.2614

>  <SCORE.RESTR.CAVITY>
21.2614

>  <SCORE.RESTR.norm>
0.408873

>  <SCORE.SYSTEM>
0

>  <SCORE.SYSTEM.CONST>
0

>  <SCORE.SYSTEM.DIHEDRAL>
0

>  <SCORE.SYSTEM.SOLV>
0

>  <SCORE.SYSTEM.norm>
0

>  <SCORE.heavy>
52

>  <SCORE.norm>
0.814643

>  <RMSD>
27.160

$$$$
2fd0_lig
 OpenBabel11021811433D
libRbt.so/2013.1/901 2013/11/27
 52 56  0  0  0  0  0  0  0  0999 V2000
   10.8937  -25.7810    9.3017 C   0  0  2  0  0  0  0  0  0  0  0  0
   11.6355  -24.5946    8.9868 O   0  0  0  0  0  0  0  0  0  0  0  0
    9.8168  -21.5739   11.5284 C   0  0  2  0  0  0  0  0  0  0  0  0
    9.5971  -20.3250   12.2762 N   0  0  0  0  0  0  0  0  0  0  0  0
    9.7060  -23.0790    6.7698 C   0  0  1  0  0  0  0  0  0  0  0  0
    7.8299  -23.6437    2.7605 C   0  0  1  0  0  0  0  0  0  0  0  0
   10.9930  -27.2082    0.5779 C   0  0  1  0  0  0  0  0  0  0  0  0
   11.7706  -27.0320    8.9310 C   0  0  2  0  0  0  0  0  0  0  0  0
   13.0554  -27.0163    9.6163 N   0  0  0  0  0  0  0  0  0  0  0  0
   11.1705  -22.2673   11.9972 C   0  0  0  0  0  0  0  0  0  0  0  0
    8.8118  -22.1227    6.0020 C   0  0  2  0  0  0  0  0  0  0  0  0
    7.4500  -22.1086    6.5152 O   0  0  0  0  0  0  0  0  0  0  0  0
    7.8449  -25.2435    2.7569 C   0  0  2  0  0  0  0  0  0  0  0  0
    8.9672  -25.7567    3.5890 N   0  0  0  0  0  0  0  0  0  0  0  0
   11.5389  -27.5201    1.9894 C   0  0  1  0  0  0  0  0  0  0  0  0
   10.4403  -27.9309    2.8404 O   0  0  0  0  0  0  0  0  0  0  0  0
   11.9542  -27.1294    7.3711 C   0  0  0  0  0  0  0  0  0  0  0  0
   11.4019  -23.6324   11.1896 C   0  0  2  0  0  0  0  0  0  0  0  0
   12.6491  -24.2925   11.6025 N   0  0  0  0  0  0  0  0  0  0  0  0
    8.9783  -22.5827    4.5635 C   0  0  2  0  0  0  0  0  0  0  0  0
    7.8296  -23.2372    4.0979 O   0  0  0  0  0  0  0  0  0  0  0  0
    7.8476  -25.7217    1.2134 C   0  0  1  0  0  0  0  0  0  0  0  0
    6.6963  -25.1474    0.5686 O   0  0  0  0  0  0  0  0  0  0  0  0
   12.6614  -28.5870    2.1025 C   0  0  1  0  0  0  0  0  0  0  0  0
   12.0420  -29.8543    2.3566 O   0  0  0  0  0  0  0  0  0  0  0  0
   10.5398  -27.1511    6.7049 C   0  0  2  0  0  0  0  0  0  0  0  0
   10.6622  -27.2573    5.2900 O   0  0  0  0  0  0  0  0  0  0  0  0
   11.4394  -23.3233    9.6669 C   0  0  2  0  0  0  0  0  0  0  0  0
   10.1024  -23.6449    4.5099 C   0  0  2  0  0  0  0  0  0  0  0  0
   10.6263  -23.6050    5.8295 O   0  0  0  0  0  0  0  0  0  0  0  0
    9.1424  -25.1733    0.4152 C   0  0  2  0  0  0  0  0  0  0  0  0
   10.2630  -25.7848    1.0815 O   0  0  0  0  0  0  0  0  0  0  0  0
   13.5937  -28.7255    0.8769 C   0  0  2  0  0  0  0  0  0  0  0  0
   14.9244  -28.8915    1.4138 O   0  0  0  0  0  0  0  0  0  0  0  0
    9.7738  -25.8485    7.0743 C   0  0  2  0  0  0  0  0  0  0  0  0
    9.6540  -25.7853    8.5478 O   0  0  0  0  0  0  0  0  0  0  0  0
   10.1569  -22.5903    9.1679 C   0  0  2  0  0  0  0  0  0  0  0  0
   10.3309  -22.3203    7.7562 O   0  0  0  0  0  0  0  0  0  0  0  0
   11.2345  -23.3400    3.5354 C   0  0  0  0  0  0  0  0  0  0  0  0
   12.1509  -24.4435    3.5964 O   0  0  0  0  0  0  0  0  0  0  0  0
    9.1816  -23.6794    0.6764 C   0  0  1  0  0  0  0  0  0  0  0  0
    9.0222  -23.0688    1.9741 O   0  0  0  0  0  0  0  0  0  0  0  0
   13.4567  -27.5243   -0.0547 C   0  0  2  0  0  0  0  0  0  0  0  0
   12.0904  -27.1999   -0.4334 O   0  0  0  0  0  0  0  0  0  0  0  0
    8.3950  -25.8235    6.4952 C   0  0  0  0  0  0  0  0  0  0  0  0
    7.7252  -24.7082    7.0178 O   0  0  0  0  0  0  0  0  0  0  0  0
    9.9417  -21.2628    9.9828 C   0  0  1  0  0  0  0  0  0  0  0  0
    8.6993  -20.6276    9.5218 O   0  0  0  0  0  0  0  0  0  0  0  0
   10.4124  -22.9669    0.0118 C   0  0  0  0  0  0  0  0  0  0  0  0
   10.1598  -21.5485   -0.3401 N   0  0  0  0  0  0  0  0  0  0  0  0
   14.2581  -27.4095   -1.3494 C   0  0  0  0  0  0  0  0  0  0  0  0
   14.6529  -26.0221   -1.5815 O   0  0  0  0  0  0  0  0  0  0  0  0
  1  2  1  6  0  0  0
  1  8  1  0  0  0  0
  1 36  1  0  0  0  0
  3  4  1  1  0  0  0
  3 10  1  0  0  0  0
  3 47  1  0  0  0  0
  5 11  1  0  0  0  0
  5 30  1  0  0  0  0
  5 38  1  1  0  0  0
  6 21  1  1  0  0  0
  6 42  1  0  0  0  0
  7 15  1  0  0  0  0
  7 44  1  0  0  0  0
  7 32  1  1  0  0  0
  8  9  1  1  0  0  0
  8 17  1  0  0  0  0
 11 12  1  1  0  0  0
 11 20  1  0  0  0  0
 13  6  1  0  0  0  0
 13 14  1  6  0  0  0
 15 16  1  1  0  0  0
 15 24  1  0  0  0  0
 17 26  1  0  0  0  0
 18 10  1  0  0  0  0
 18 19  1  1  0  0  0
 20 21  1  1  0  0  0
 20 29  1  0  0  0  0
 22 13  1  0  0  0  0
 22 23  1  6  0  0  0
 24 25  1  6  0  0  0
 24 33  1  0  0  0  0
 26 27  1  6  0  0  0
 26 35  1  0  0  0  0
 28  2  1  6  0  0  0
 28 18  1  0  0  0  0
 29 30  1  0  0  0  0
 29 39  1  6  0  0  0
 31 22  1  0  0  0  0
 31 32  1  1  0  0  0
 31 41  1  0  0  0  0
 33 34  1  1  0  0  0
 33 43  1  0  0  0  0
 35 36  1  0  0  0  0
 35 45  1  6  0  0  0
 37 28  1  0  0  0  0
 37 38  1  6  0  0  0
 39 40  1  0  0  0  0
 41 42  1  0  0  0  0
 41 49  1  1  0  0  0
 43 44  1  0  0  0  0
 43 51  1  6  0  0  0
 45 46  1  0  0  0  0
 47 37  1  0  0  0  0
 47 48  1  6  0  0  0
 49 50  1  0  0  0  0
 51 52  1  0  0  0  0
M  END
>  <CHROM.1>
-153.05895330,118.77677367,112.57675044,-155.84893777,176.54381540,46.51368361
-178.35417534,94.90084561,172.45892685,102.80936791,151.29736761,-143.08283908
10.50314324,-24.88000744,4.93478625,-1.77123529,0.84851879,-1.77981665

>  <Name>
2fd0_lig

>  <RI>
0

>  <Rbt.Current_Directory>
/home/itssahil/PROJECTS/Mol_Feturizer/New_Systems/rnas/2fd0

>  <Rbt.Executable>
rbdock ($Id: //depot/dev/client3/rdock/2013.1/src/exe/rbdock.cxx#4 $)

>  <Rbt.Library>
libRbt.so (2013.1, Build901 2013/11/27)

>  <Rbt.Parameter_File>
/export/apps/rDock/src/rDock_2013.1_src/data/scripts/dock_solv.prm

>  <Rbt.Receptor>
prm/blind_docking_40.prm

>  <SCORE>
38.7575

>  <SCORE.INTER>
0.807117

>  <SCORE.INTER.CONST>
1

>  <SCORE.INTER.POLAR>
-1.00124

>  <SCORE.INTER.ROT>
12

>  <SCORE.INTER.SOLV>
22.6192

>  <SCORE.INTER.VDW>
-15.2642

>  <SCORE.INTER.norm>
0.0155215

>  <SCORE.INTRA>
13.5734

>  <SCORE.INTRA.DIHEDRAL>
13.339

>  <SCORE.INTRA.DIHEDRAL.0>
23.9727

>  <SCORE.INTRA.POLAR>
0

>  <SCORE.INTRA.POLAR.0>
0

>  <SCORE.INTRA.REPUL>
0.0127906

>  <SCORE.INTRA.REPUL.0>
0

>  <SCORE.INTRA.SOLV>
7.64071

>  <SCORE.INTRA.SOLV.lig_0>
-115.028

>  <SCORE.INTRA.VDW>
3.01961

>  <SCORE.INTRA.VDW.0>
-6.82393

>  <SCORE.INTRA.norm>
0.261028

>  <SCORE.RESTR>
24.3769

>  <SCORE.RESTR.CAVITY>
24.3769

>  <SCORE.RESTR.norm>
0.468786

>  <SCORE.SYSTEM>
0

>  <SCORE.SYSTEM.CONST>
0

>  <SCORE.SYSTEM.DIHEDRAL>
0

>  <SCORE.SYSTEM.SOLV>
0

>  <SCORE.SYSTEM.norm>
0

>  <SCORE.heavy>
52

>  <SCORE.norm>
0.745336

>  <RMSD>
27.200

$$$$
2fd0_lig
 OpenBabel11021811433D
libRbt.so/2013.1/901 2013/11/27
 52 56  0  0  0  0  0  0  0  0999 V2000
   12.7355  -27.3226   -1.6436 C   0  0  2  0  0  0  0  0  0  0  0  0
   13.1846  -27.0616   -0.3068 O   0  0  0  0  0  0  0  0  0  0  0  0
   15.1643  -30.7568    0.8415 C   0  0  2  0  0  0  0  0  0  0  0  0
   16.0241  -31.7196    1.5491 N   0  0  0  0  0  0  0  0  0  0  0  0
   11.8870  -27.1638    1.9351 C   0  0  1  0  0  0  0  0  0  0  0  0
    8.9421  -24.0493    3.5325 C   0  0  1  0  0  0  0  0  0  0  0  0
    9.3178  -24.2410    8.3092 C   0  0  1  0  0  0  0  0  0  0  0  0
   11.3922  -26.5412   -1.8814 C   0  0  2  0  0  0  0  0  0  0  0  0
   11.5471  -25.1123   -1.6470 N   0  0  0  0  0  0  0  0  0  0  0  0
   16.0371  -29.5583    0.2629 C   0  0  0  0  0  0  0  0  0  0  0  0
   10.5155  -27.0319    2.5716 C   0  0  2  0  0  0  0  0  0  0  0  0
    9.4431  -27.1019    1.5902 O   0  0  0  0  0  0  0  0  0  0  0  0
    9.6491  -22.7390    4.1179 C   0  0  2  0  0  0  0  0  0  0  0  0
   10.9259  -23.0937    4.7956 N   0  0  0  0  0  0  0  0  0  0  0  0
   10.4250  -23.4478    9.0391 C   0  0  1  0  0  0  0  0  0  0  0  0
    9.8455  -22.2529    9.6191 O   0  0  0  0  0  0  0  0  0  0  0  0
   10.2421  -27.1464   -0.9940 C   0  0  0  0  0  0  0  0  0  0  0  0
   15.1003  -28.5171   -0.5166 C   0  0  2  0  0  0  0  0  0  0  0  0
   15.8830  -27.3971   -1.0596 N   0  0  0  0  0  0  0  0  0  0  0  0
   10.6253  -25.7311    3.3489 C   0  0  2  0  0  0  0  0  0  0  0  0
    9.8881  -24.7059    2.7403 O   0  0  0  0  0  0  0  0  0  0  0  0
    8.5620  -21.9749    5.0373 C   0  0  1  0  0  0  0  0  0  0  0  0
    7.4068  -21.7008    4.2239 O   0  0  0  0  0  0  0  0  0  0  0  0
   11.2199  -24.1862   10.1500 C   0  0  1  0  0  0  0  0  0  0  0  0
   10.5781  -23.9197   11.4035 O   0  0  0  0  0  0  0  0  0  0  0  0
   10.1273  -28.6745   -1.3042 C   0  0  2  0  0  0  0  0  0  0  0  0
    9.0821  -29.2576   -0.5323 O   0  0  0  0  0  0  0  0  0  0  0  0
   14.0102  -27.9859    0.4555 C   0  0  2  0  0  0  0  0  0  0  0  0
   12.0966  -25.2533    3.3101 C   0  0  2  0  0  0  0  0  0  0  0  0
   12.7603  -26.3506    2.6993 O   0  0  0  0  0  0  0  0  0  0  0  0
    8.0525  -22.8996    6.2619 C   0  0  2  0  0  0  0  0  0  0  0  0
    9.2325  -23.1325    7.0536 O   0  0  0  0  0  0  0  0  0  0  0  0
   11.3642  -25.7162    9.9801 C   0  0  2  0  0  0  0  0  0  0  0  0
   12.7228  -26.0261   10.3606 O   0  0  0  0  0  0  0  0  0  0  0  0
   11.4791  -29.3717   -0.9782 C   0  0  2  0  0  0  0  0  0  0  0  0
   12.5322  -28.7495   -1.8109 O   0  0  0  0  0  0  0  0  0  0  0  0
   13.1633  -29.1281    1.0951 C   0  0  2  0  0  0  0  0  0  0  0  0
   12.2211  -28.5137    2.0066 O   0  0  0  0  0  0  0  0  0  0  0  0
   12.7329  -25.0070    4.6735 C   0  0  0  0  0  0  0  0  0  0  0  0
   12.1430  -25.9430    5.5884 O   0  0  0  0  0  0  0  0  0  0  0  0
    7.6258  -24.2126    5.6331 C   0  0  1  0  0  0  0  0  0  0  0  0
    8.3988  -24.9460    4.6600 O   0  0  0  0  0  0  0  0  0  0  0  0
   11.0158  -26.1451    8.5574 C   0  0  2  0  0  0  0  0  0  0  0  0
    9.7374  -25.6528    8.0686 O   0  0  0  0  0  0  0  0  0  0  0  0
   11.4466  -30.8346   -1.2881 C   0  0  0  0  0  0  0  0  0  0  0  0
   11.1918  -30.9821   -2.6589 O   0  0  0  0  0  0  0  0  0  0  0  0
   14.1028  -30.1445    1.8413 C   0  0  1  0  0  0  0  0  0  0  0  0
   13.2770  -31.2315    2.3854 O   0  0  0  0  0  0  0  0  0  0  0  0
    7.1363  -25.2718    6.6833 C   0  0  0  0  0  0  0  0  0  0  0  0
    5.6604  -25.3937    6.7615 N   0  0  0  0  0  0  0  0  0  0  0  0
   11.0646  -27.6069    8.1186 C   0  0  0  0  0  0  0  0  0  0  0  0
    9.8934  -28.3258    8.6147 O   0  0  0  0  0  0  0  0  0  0  0  0
  1  2  1  1  0  0  0
  1  8  1  0  0  0  0
  1 36  1  0  0  0  0
  3  4  1  1  0  0  0
  3 10  1  0  0  0  0
  3 47  1  0  0  0  0
  5 11  1  0  0  0  0
  5 30  1  0  0  0  0
  5 38  1  1  0  0  0
  6 21  1  1  0  0  0
  6 42  1  0  0  0  0
  7 15  1  0  0  0  0
  7 44  1  0  0  0  0
  7 32  1  6  0  0  0
  8  9  1  1  0  0  0
  8 17  1  0  0  0  0
 11 12  1  6  0  0  0
 11 20  1  0  0  0  0
 13  6  1  0  0  0  0
 13 14  1  1  0  0  0
 15 16  1  1  0  0  0
 15 24  1  0  0  0  0
 17 26  1  0  0  0  0
 18 10  1  0  0  0  0
 18 19  1  1  0  0  0
 20 21  1  6  0  0  0
 20 29  1  0  0  0  0
 22 13  1  0  0  0  0
 22 23  1  6  0  0  0
 24 25  1  1  0  0  0
 24 33  1  0  0  0  0
 26 27  1  1  0  0  0
 26 35  1  0  0  0  0
 28  2  1  6  0  0  0
 28 18  1  0  0  0  0
 29 30  1  0  0  0  0
 29 39  1  1  0  0  0
 31 22  1  0  0  0  0
 31 32  1  1  0  0  0
 31 41  1  0  0  0  0
 33 34  1  6  0  0  0
 33 43  1  0  0  0  0
 35 36  1  0  0  0  0
 35 45  1  6  0  0  0
 37 28  1  0  0  0  0
 37 38  1  1  0  0  0
 39 40  1  0  0  0  0
 41 42  1  0  0  0  0
 41 49  1  1  0  0  0
 43 44  1  0  0  0  0
 43 51  1  1  0  0  0
 45 46  1  0  0  0  0
 47 37  1  0  0  0  0
 47 48  1  6  0  0  0
 49 50  1  0  0  0  0
 51 52  1  0  0  0  0
M  END
>  <CHROM.1>
152.92009889,155.73550717,95.03985335,-152.73883400,125.13381791,43.10687014
32.23590479,-169.54696053,60.64090962,18.93653995,101.72490911,76.95699373
11.14709364,-26.49088816,3.55881881,1.13056945,0.73855198,-1.76931867

>  <Name>
2fd0_lig

>  <RI>
0

>  <Rbt.Current_Directory>
/home/itssahil/PROJECTS/Mol_Feturizer/New_Systems/rnas/2fd0

>  <Rbt.Executable>
rbdock ($Id: //depot/dev/client3/rdock/2013.1/src/exe/rbdock.cxx#4 $)

>  <Rbt.Library>
libRbt.so (2013.1, Build901 2013/11/27)

>  <Rbt.Parameter_File>
/export/apps/rDock/src/rDock_2013.1_src/data/scripts/dock_solv.prm

>  <Rbt.Receptor>
prm/blind_docking_40.prm

>  <SCORE>
50.1559

>  <SCORE.INTER>
9.14502

>  <SCORE.INTER.CONST>
1

>  <SCORE.INTER.POLAR>
-0.900569

>  <SCORE.INTER.ROT>
12

>  <SCORE.INTER.SOLV>
22.9675

>  <SCORE.INTER.VDW>
-10.1572

>  <SCORE.INTER.norm>
0.175866

>  <SCORE.INTRA>
14.0462

>  <SCORE.INTRA.DIHEDRAL>
11.1144

>  <SCORE.INTRA.DIHEDRAL.0>
23.9727

>  <SCORE.INTRA.POLAR>
0

>  <SCORE.INTRA.POLAR.0>
0

>  <SCORE.INTRA.REPUL>
0

>  <SCORE.INTRA.REPUL.0>
0

>  <SCORE.INTRA.SOLV>
1.78597

>  <SCORE.INTRA.SOLV.lig_0>
-115.028

>  <SCORE.INTRA.VDW>
7.59602

>  <SCORE.INTRA.VDW.0>
-6.82393

>  <SCORE.INTRA.norm>
0.270119

>  <SCORE.RESTR>
26.9647

>  <SCORE.RESTR.CAVITY>
26.9647

>  <SCORE.RESTR.norm>
0.518552

>  <SCORE.SYSTEM>
0

>  <SCORE.SYSTEM.CONST>
0

>  <SCORE.SYSTEM.DIHEDRAL>
0

>  <SCORE.SYSTEM.SOLV>
0

>  <SCORE.SYSTEM.norm>
0

>  <SCORE.heavy>
52

>  <SCORE.norm>
0.964537

>  <RMSD>
27.218

$$$$
2fd0_lig
 OpenBabel11021811433D
libRbt.so/2013.1/901 2013/11/27
 52 56  0  0  0  0  0  0  0  0999 V2000
   10.4465  -24.9091    8.9347 C   0  0  2  0  0  0  0  0  0  0  0  0
   10.6367  -23.5578    8.4934 O   0  0  0  0  0  0  0  0  0  0  0  0
    7.4601  -20.7372    7.5736 C   0  0  2  0  0  0  0  0  0  0  0  0
    6.4795  -19.9321    6.8271 N   0  0  0  0  0  0  0  0  0  0  0  0
    7.9926  -25.1270    6.6726 C   0  0  1  0  0  0  0  0  0  0  0  0
    7.4027  -24.8250    2.2050 C   0  0  1  0  0  0  0  0  0  0  0  0
   11.4181  -26.7431    0.2734 C   0  0  1  0  0  0  0  0  0  0  0  0
   10.1789  -24.8962   10.4838 C   0  0  2  0  0  0  0  0  0  0  0  0
    9.0359  -24.0629   10.8300 N   0  0  0  0  0  0  0  0  0  0  0  0
    8.9322  -20.4452    7.0437 C   0  0  0  0  0  0  0  0  0  0  0  0
    6.9829  -24.3464    5.8513 C   0  0  2  0  0  0  0  0  0  0  0  0
    5.6699  -24.9741    5.8498 O   0  0  0  0  0  0  0  0  0  0  0  0
    7.9989  -26.1980    1.6404 C   0  0  2  0  0  0  0  0  0  0  0  0
    9.0956  -26.6905    2.5178 N   0  0  0  0  0  0  0  0  0  0  0  0
   12.5596  -26.4967    1.2853 C   0  0  1  0  0  0  0  0  0  0  0  0
   12.0418  -26.6567    2.6293 O   0  0  0  0  0  0  0  0  0  0  0  0
   11.4722  -24.4462   11.2593 C   0  0  0  0  0  0  0  0  0  0  0  0
    9.9991  -21.3146    7.8654 C   0  0  2  0  0  0  0  0  0  0  0  0
   11.3689  -21.0651    7.3930 N   0  0  0  0  0  0  0  0  0  0  0  0
    7.6660  -24.2243    4.4996 C   0  0  2  0  0  0  0  0  0  0  0  0
    7.0580  -25.0470    3.5413 O   0  0  0  0  0  0  0  0  0  0  0  0
    8.4021  -25.9489    0.0956 C   0  0  1  0  0  0  0  0  0  0  0  0
    7.2290  -25.4917   -0.6014 O   0  0  0  0  0  0  0  0  0  0  0  0
   13.8347  -27.3727    1.1525 C   0  0  1  0  0  0  0  0  0  0  0  0
   13.6815  -28.5088    2.0128 O   0  0  0  0  0  0  0  0  0  0  0  0
   12.6510  -25.3870   10.8471 C   0  0  2  0  0  0  0  0  0  0  0  0
   13.8391  -25.0233   11.5430 O   0  0  0  0  0  0  0  0  0  0  0  0
    9.6492  -22.8218    7.7186 C   0  0  2  0  0  0  0  0  0  0  0  0
    9.1155  -24.7505    4.6277 C   0  0  2  0  0  0  0  0  0  0  0  0
    9.2430  -24.9635    6.0262 O   0  0  0  0  0  0  0  0  0  0  0  0
    9.5109  -24.7820   -0.0569 C   0  0  2  0  0  0  0  0  0  0  0  0
   10.6662  -25.2889    0.6374 O   0  0  0  0  0  0  0  0  0  0  0  0
   14.1730  -27.8693   -0.2722 C   0  0  2  0  0  0  0  0  0  0  0  0
   15.6059  -27.7405   -0.4019 O   0  0  0  0  0  0  0  0  0  0  0  0
   12.8831  -25.2838    9.3124 C   0  0  2  0  0  0  0  0  0  0  0  0
   11.6337  -25.6849    8.6284 O   0  0  0  0  0  0  0  0  0  0  0  0
    8.1940  -23.1507    8.1715 C   0  0  2  0  0  0  0  0  0  0  0  0
    7.9766  -24.5642    7.9462 O   0  0  0  0  0  0  0  0  0  0  0  0
   10.2000  -23.7717    4.1913 C   0  0  0  0  0  0  0  0  0  0  0  0
   10.3494  -22.8110    5.2477 O   0  0  0  0  0  0  0  0  0  0  0  0
    8.9652  -23.5957    0.7153 C   0  0  1  0  0  0  0  0  0  0  0  0
    8.4058  -23.6682    2.0435 O   0  0  0  0  0  0  0  0  0  0  0  0
   13.3919  -27.0877   -1.3251 C   0  0  2  0  0  0  0  0  0  0  0  0
   11.9583  -27.0153   -1.0908 O   0  0  0  0  0  0  0  0  0  0  0  0
   13.9783  -26.1899    8.8470 C   0  0  0  0  0  0  0  0  0  0  0  0
   13.5341  -27.5127    8.9830 O   0  0  0  0  0  0  0  0  0  0  0  0
    7.1661  -22.2769    7.3636 C   0  0  1  0  0  0  0  0  0  0  0  0
    5.8129  -22.5756    7.8526 O   0  0  0  0  0  0  0  0  0  0  0  0
    9.9358  -22.3619    0.7219 C   0  0  0  0  0  0  0  0  0  0  0  0
   11.0059  -22.4525    1.7448 N   0  0  0  0  0  0  0  0  0  0  0  0
   13.5291  -27.3816   -2.8173 C   0  0  0  0  0  0  0  0  0  0  0  0
   14.9379  -27.5096   -3.1827 O   0  0  0  0  0  0  0  0  0  0  0  0
  1  2  1  1  0  0  0
  1  8  1  0  0  0  0
  1 36  1  0  0  0  0
  3  4  1  6  0  0  0
  3 10  1  0  0  0  0
  3 47  1  0  0  0  0
  5 11  1  0  0  0  0
  5 30  1  0  0  0  0
  5 38  1  1  0  0  0
  6 21  1  1  0  0  0
  6 42  1  0  0  0  0
  7 15  1  0  0  0  0
  7 44  1  0  0  0  0
  7 32  1  6  0  0  0
  8  9  1  6  0  0  0
  8 17  1  0  0  0  0
 11 12  1  6  0  0  0
 11 20  1  0  0  0  0
 13  6  1  0  0  0  0
 13 14  1  1  0  0  0
 15 16  1  1  0  0  0
 15 24  1  0  0  0  0
 17 26  1  0  0  0  0
 18 10  1  0  0  0  0
 18 19  1  6  0  0  0
 20 21  1  6  0  0  0
 20 29  1  0  0  0  0
 22 13  1  0  0  0  0
 22 23  1  6  0  0  0
 24 25  1  1  0  0  0
 24 33  1  0  0  0  0
 26 27  1  1  0  0  0
 26 35  1  0  0  0  0
 28  2  1  1  0  0  0
 28 18  1  0  0  0  0
 29 30  1  0  0  0  0
 29 39  1  1  0  0  0
 31 22  1  0  0  0  0
 31 32  1  1  0  0  0
 31 41  1  0  0  0  0
 33 34  1  6  0  0  0
 33 43  1  0  0  0  0
 35 36  1  0  0  0  0
 35 45  1  6  0  0  0
 37 28  1  0  0  0  0
 37 38  1  6  0  0  0
 39 40  1  0  0  0  0
 41 42  1  0  0  0  0
 41 49  1  1  0  0  0
 43 44  1  0  0  0  0
 43 51  1  6  0  0  0
 45 46  1  0  0  0  0
 47 37  1  0  0  0  0
 47 48  1  1  0  0  0
 49 50  1  0  0  0  0
 51 52  1  0  0  0  0
M  END
>  <CHROM.1>
-106.89368345,-54.79853629,121.91572506,174.78036028,166.98959779,161.04001274
77.08889222,56.86392875,68.57047425,-64.06903638,-82.19375101,-46.24144302
10.28269261,-24.79404417,4.60416717,-1.84836815,0.51246797,-1.74261090

>  <Name>
2fd0_lig

>  <RI>
0

>  <Rbt.Current_Directory>
/home/itssahil/PROJECTS/Mol_Feturizer/New_Systems/rnas/2fd0

>  <Rbt.Executable>
rbdock ($Id: //depot/dev/client3/rdock/2013.1/src/exe/rbdock.cxx#4 $)

>  <Rbt.Library>
libRbt.so (2013.1, Build901 2013/11/27)

>  <Rbt.Parameter_File>
/export/apps/rDock/src/rDock_2013.1_src/data/scripts/dock_solv.prm

>  <Rbt.Receptor>
prm/blind_docking_40.prm

>  <SCORE>
47.3297

>  <SCORE.INTER>
17.0947

>  <SCORE.INTER.CONST>
1

>  <SCORE.INTER.POLAR>
0

>  <SCORE.INTER.ROT>
12

>  <SCORE.INTER.SOLV>
24.8531

>  <SCORE.INTER.VDW>
-8.48789

>  <SCORE.INTER.norm>
0.328745

>  <SCORE.INTRA>
10.3766

>  <SCORE.INTRA.DIHEDRAL>
-2.98158

>  <SCORE.INTRA.DIHEDRAL.0>
23.9727

>  <SCORE.INTRA.POLAR>
0

>  <SCORE.INTRA.POLAR.0>
0

>  <SCORE.INTRA.REPUL>
0

>  <SCORE.INTRA.REPUL.0>
0

>  <SCORE.INTRA.SOLV>
8.35832

>  <SCORE.INTRA.SOLV.lig_0>
-115.028

>  <SCORE.INTRA.VDW>
7.68824

>  <SCORE.INTRA.VDW.0>
-6.82393

>  <SCORE.INTRA.norm>
0.19955

>  <SCORE.RESTR>
19.8584

>  <SCORE.RESTR.CAVITY>
19.8584

>  <SCORE.RESTR.norm>
0.381891

>  <SCORE.SYSTEM>
0

>  <SCORE.SYSTEM.CONST>
0

>  <SCORE.SYSTEM.DIHEDRAL>
0

>  <SCORE.SYSTEM.SOLV>
0

>  <SCORE.SYSTEM.norm>
0

>  <SCORE.heavy>
52

>  <SCORE.norm>
0.910186

>  <RMSD>
27.260

$$$$
2fd0_lig
 OpenBabel11021811433D
libRbt.so/2013.1/901 2013/11/27
 52 56  0  0  0  0  0  0  0  0999 V2000
   10.5133  -24.6710    9.0501 C   0  0  2  0  0  0  0  0  0  0  0  0
   10.7490  -24.0532    7.7774 O   0  0  0  0  0  0  0  0  0  0  0  0
    8.2226  -20.5196    7.9279 C   0  0  2  0  0  0  0  0  0  0  0  0
    7.5787  -19.2461    7.5665 N   0  0  0  0  0  0  0  0  0  0  0  0
    8.4356  -23.7266    4.8482 C   0  0  1  0  0  0  0  0  0  0  0  0
    8.7282  -23.9865    1.5600 C   0  0  1  0  0  0  0  0  0  0  0  0
   11.9821  -27.7662    0.0236 C   0  0  1  0  0  0  0  0  0  0  0  0
   11.8744  -24.7357    9.8341 C   0  0  2  0  0  0  0  0  0  0  0  0
   12.4734  -23.4176    9.9909 N   0  0  0  0  0  0  0  0  0  0  0  0
    9.8035  -20.3438    7.9798 C   0  0  0  0  0  0  0  0  0  0  0  0
    7.4394  -24.6313    4.1464 C   0  0  2  0  0  0  0  0  0  0  0  0
    8.0432  -25.8804    3.7069 O   0  0  0  0  0  0  0  0  0  0  0  0
    9.0397  -24.6886    0.1566 C   0  0  2  0  0  0  0  0  0  0  0  0
    8.5120  -26.0802    0.1409 N   0  0  0  0  0  0  0  0  0  0  0  0
   12.4498  -28.5689    1.2583 C   0  0  1  0  0  0  0  0  0  0  0  0
   11.3193  -29.2890    1.8091 O   0  0  0  0  0  0  0  0  0  0  0  0
   12.8651  -25.7355    9.1301 C   0  0  0  0  0  0  0  0  0  0  0  0
   10.5017  -21.7288    8.3843 C   0  0  2  0  0  0  0  0  0  0  0  0
   11.9649  -21.5941    8.4369 N   0  0  0  0  0  0  0  0  0  0  0  0
    6.8818  -23.7377    3.0513 C   0  0  2  0  0  0  0  0  0  0  0  0
    7.3554  -24.1180    1.7880 O   0  0  0  0  0  0  0  0  0  0  0  0
   10.6261  -24.5427   -0.1134 C   0  0  1  0  0  0  0  0  0  0  0  0
   10.9561  -23.1425   -0.0754 O   0  0  0  0  0  0  0  0  0  0  0  0
   13.6125  -29.5781    1.0570 C   0  0  1  0  0  0  0  0  0  0  0  0
   13.0395  -30.8615    0.7763 O   0  0  0  0  0  0  0  0  0  0  0  0
   12.1614  -27.1261    9.0046 C   0  0  2  0  0  0  0  0  0  0  0  0
   13.0342  -28.0669    8.3871 O   0  0  0  0  0  0  0  0  0  0  0  0
   10.1020  -22.8209    7.3533 C   0  0  2  0  0  0  0  0  0  0  0  0
    7.4098  -22.2995    3.2685 C   0  0  2  0  0  0  0  0  0  0  0  0
    8.0623  -22.3981    4.5263 O   0  0  0  0  0  0  0  0  0  0  0  0
   11.5021  -25.2527    1.0454 C   0  0  2  0  0  0  0  0  0  0  0  0
   11.1535  -26.6472    0.9583 O   0  0  0  0  0  0  0  0  0  0  0  0
   14.6279  -29.2322   -0.0565 C   0  0  2  0  0  0  0  0  0  0  0  0
   15.9274  -29.5583    0.4833 O   0  0  0  0  0  0  0  0  0  0  0  0
   10.8631  -26.9748    8.1612 C   0  0  2  0  0  0  0  0  0  0  0  0
    9.9793  -26.0042    8.8441 O   0  0  0  0  0  0  0  0  0  0  0  0
    8.5578  -22.9917    7.2227 C   0  0  2  0  0  0  0  0  0  0  0  0
    8.3148  -23.9964    6.2090 O   0  0  0  0  0  0  0  0  0  0  0  0
    6.3341  -21.2239    3.3697 C   0  0  0  0  0  0  0  0  0  0  0  0
    5.4179  -21.6402    4.3937 O   0  0  0  0  0  0  0  0  0  0  0  0
   10.9701  -24.7027    2.3553 C   0  0  1  0  0  0  0  0  0  0  0  0
    9.5713  -24.5983    2.6938 O   0  0  0  0  0  0  0  0  0  0  0  0
   14.4940  -27.7739   -0.4867 C   0  0  2  0  0  0  0  0  0  0  0  0
   13.1411  -27.3601   -0.8243 O   0  0  0  0  0  0  0  0  0  0  0  0
   10.1216  -28.2675    8.0335 C   0  0  0  0  0  0  0  0  0  0  0  0
    8.7532  -27.9757    7.9442 O   0  0  0  0  0  0  0  0  0  0  0  0
    7.8928  -21.6191    6.8400 C   0  0  1  0  0  0  0  0  0  0  0  0
    6.4367  -21.8067    6.7770 O   0  0  0  0  0  0  0  0  0  0  0  0
   11.6752  -25.3167    3.6164 C   0  0  0  0  0  0  0  0  0  0  0  0
   12.1983  -24.2990    4.5598 N   0  0  0  0  0  0  0  0  0  0  0  0
   15.3713  -27.1697   -1.5809 C   0  0  0  0  0  0  0  0  0  0  0  0
   15.1778  -25.7231   -1.6466 O   0  0  0  0  0  0  0  0  0  0  0  0
  1  2  1  6  0  0  0
  1  8  1  0  0  0  0
  1 36  1  0  0  0  0
  3  4  1  6  0  0  0
  3 10  1  0  0  0  0
  3 47  1  0  0  0  0
  5 11  1  0  0  0  0
  5 30  1  0  0  0  0
  5 38  1  1  0  0  0
  6 21  1  1  0  0  0
  6 42  1  0  0  0  0
  7 15  1  0  0  0  0
  7 44  1  0  0  0  0
  7 32  1  1  0  0  0
  8  9  1  6  0  0  0
  8 17  1  0  0  0  0
 11 12  1  6  0  0  0
 11 20  1  0  0  0  0
 13  6  1  0  0  0  0
 13 14  1  1  0  0  0
 15 16  1  6  0  0  0
 15 24  1  0  0  0  0
 17 26  1  0  0  0  0
 18 10  1  0  0  0  0
 18 19  1  6  0  0  0
 20 21  1  6  0  0  0
 20 29  1  0  0  0  0
 22 13  1  0  0  0  0
 22 23  1  1  0  0  0
 24 25  1  6  0  0  0
 24 33  1  0  0  0  0
 26 27  1  6  0  0  0
 26 35  1  0  0  0  0
 28  2  1  1  0  0  0
 28 18  1  0  0  0  0
 29 30  1  0  0  0  0
 29 39  1  1  0  0  0
 31 22  1  0  0  0  0
 31 32  1  1  0  0  0
 31 41  1  0  0  0  0
 33 34  1  1  0  0  0
 33 43  1  0  0  0  0
 35 36  1  0  0  0  0
 35 45  1  1  0  0  0
 37 28  1  0  0  0  0
 37 38  1  6  0  0  0
 39 40  1  0  0  0  0
 41 42  1  0  0  0  0
 41 49  1  1  0  0  0
 43 44  1  0  0  0  0
 43 51  1  6  0  0  0
 45 46  1  0  0  0  0
 47 37  1  0  0  0  0
 47 48  1  1  0  0  0
 49 50  1  0  0  0  0
 51 52  1  0  0  0  0
M  END
>  <CHROM.1>
-119.53400365,-149.38978287,171.37863080,115.26165507,-64.77560068,59.82171254
53.78349211,91.48476212,148.71413011,-76.62253328,127.82738720,-171.29082521
10.46301241,-25.02732420,4.23298238,-2.21226051,0.79386067,-1.67407830

>  <Name>
2fd0_lig

>  <RI>
0

>  <Rbt.Current_Directory>
/home/itssahil/PROJECTS/Mol_Feturizer/New_Systems/rnas/2fd0

>  <Rbt.Executable>
rbdock ($Id: //depot/dev/client3/rdock/2013.1/src/exe/rbdock.cxx#4 $)

>  <Rbt.Library>
libRbt.so (2013.1, Build901 2013/11/27)

>  <Rbt.Parameter_File>
/export/apps/rDock/src/rDock_2013.1_src/data/scripts/dock_solv.prm

>  <Rbt.Receptor>
prm/blind_docking_40.prm

>  <SCORE>
42.1982

>  <SCORE.INTER>
4.10645

>  <SCORE.INTER.CONST>
1

>  <SCORE.INTER.POLAR>
0

>  <SCORE.INTER.ROT>
12

>  <SCORE.INTER.SOLV>
13.787

>  <SCORE.INTER.VDW>
-13.458

>  <SCORE.INTER.norm>
0.0789702

>  <SCORE.INTRA>
17.4623

>  <SCORE.INTRA.DIHEDRAL>
7.66652

>  <SCORE.INTRA.DIHEDRAL.0>
23.9727

>  <SCORE.INTRA.POLAR>
0

>  <SCORE.INTRA.POLAR.0>
0

>  <SCORE.INTRA.REPUL>
0.0783937

>  <SCORE.INTRA.REPUL.0>
0

>  <SCORE.INTRA.SOLV>
3.62554

>  <SCORE.INTRA.SOLV.lig_0>
-115.028

>  <SCORE.INTRA.VDW>
11.4243

>  <SCORE.INTRA.VDW.0>
-6.82393

>  <SCORE.INTRA.norm>
0.335813

>  <SCORE.RESTR>
20.6295

>  <SCORE.RESTR.CAVITY>
20.6295

>  <SCORE.RESTR.norm>
0.39672

>  <SCORE.SYSTEM>
0

>  <SCORE.SYSTEM.CONST>
0

>  <SCORE.SYSTEM.DIHEDRAL>
0

>  <SCORE.SYSTEM.SOLV>
0

>  <SCORE.SYSTEM.norm>
0

>  <SCORE.heavy>
52

>  <SCORE.norm>
0.811503

>  <RMSD>
27.262

$$$$
2fd0_lig
 OpenBabel11021811433D
libRbt.so/2013.1/901 2013/11/27
 52 56  0  0  0  0  0  0  0  0999 V2000
   12.3471  -25.2466    9.1587 C   0  0  2  0  0  0  0  0  0  0  0  0
   11.7753  -24.9086    7.8875 O   0  0  0  0  0  0  0  0  0  0  0  0
   11.5383  -20.5685    7.9042 C   0  0  2  0  0  0  0  0  0  0  0  0
   11.5004  -19.1697    7.4474 N   0  0  0  0  0  0  0  0  0  0  0  0
    9.0350  -23.6212    5.7977 C   0  0  1  0  0  0  0  0  0  0  0  0
    8.4787  -24.3648    2.5762 C   0  0  1  0  0  0  0  0  0  0  0  0
   11.5203  -27.8172   -0.1036 C   0  0  1  0  0  0  0  0  0  0  0  0
   11.5573  -26.4692    9.7530 C   0  0  2  0  0  0  0  0  0  0  0  0
   11.5669  -27.6118    8.8502 N   0  0  0  0  0  0  0  0  0  0  0  0
   12.8862  -21.2685    7.4287 C   0  0  0  0  0  0  0  0  0  0  0  0
    7.9784  -24.6806    5.5433 C   0  0  2  0  0  0  0  0  0  0  0  0
    8.5607  -25.9657    5.1861 O   0  0  0  0  0  0  0  0  0  0  0  0
    8.2763  -24.7796    1.0444 C   0  0  2  0  0  0  0  0  0  0  0  0
    7.7750  -26.1775    0.9444 N   0  0  0  0  0  0  0  0  0  0  0  0
   12.1141  -28.3389    1.2242 C   0  0  1  0  0  0  0  0  0  0  0  0
   11.1120  -29.1281    1.9118 O   0  0  0  0  0  0  0  0  0  0  0  0
   10.0883  -26.0441   10.1241 C   0  0  0  0  0  0  0  0  0  0  0  0
   12.9302  -22.7881    7.9368 C   0  0  2  0  0  0  0  0  0  0  0  0
   14.1661  -23.4593    7.5079 N   0  0  0  0  0  0  0  0  0  0  0  0
    7.0940  -24.0329    4.4913 C   0  0  2  0  0  0  0  0  0  0  0  0
    7.2735  -24.6262    3.2341 O   0  0  0  0  0  0  0  0  0  0  0  0
    9.6668  -24.4823    0.2770 C   0  0  1  0  0  0  0  0  0  0  0  0
    9.9909  -23.0932    0.4675 O   0  0  0  0  0  0  0  0  0  0  0  0
   13.4176  -29.1788    1.1437 C   0  0  1  0  0  0  0  0  0  0  0  0
   13.0480  -30.5621    1.0787 O   0  0  0  0  0  0  0  0  0  0  0  0
   10.1556  -24.8235   11.0989 C   0  0  2  0  0  0  0  0  0  0  0  0
    8.8429  -24.4187   11.4742 O   0  0  0  0  0  0  0  0  0  0  0  0
   11.6908  -23.5460    7.3843 C   0  0  2  0  0  0  0  0  0  0  0  0
    7.5336  -22.5599    4.3132 C   0  0  2  0  0  0  0  0  0  0  0  0
    8.4812  -22.3932    5.3580 O   0  0  0  0  0  0  0  0  0  0  0  0
   10.8933  -25.3300    0.9027 C   0  0  2  0  0  0  0  0  0  0  0  0
   10.5346  -26.7059    0.6747 O   0  0  0  0  0  0  0  0  0  0  0  0
   14.3603  -28.8594   -0.0394 C   0  0  2  0  0  0  0  0  0  0  0  0
   15.6980  -28.8971    0.5044 O   0  0  0  0  0  0  0  0  0  0  0  0
   10.8948  -23.6453   10.4025 C   0  0  2  0  0  0  0  0  0  0  0  0
   12.2563  -24.1012   10.0447 O   0  0  0  0  0  0  0  0  0  0  0  0
   10.3435  -22.8657    7.7751 C   0  0  2  0  0  0  0  0  0  0  0  0
    9.2760  -23.6334    7.1691 O   0  0  0  0  0  0  0  0  0  0  0  0
    6.4274  -21.5276    4.5004 C   0  0  0  0  0  0  0  0  0  0  0  0
    6.0894  -21.5214    5.8957 O   0  0  0  0  0  0  0  0  0  0  0  0
   10.8563  -25.0622    2.3954 C   0  0  1  0  0  0  0  0  0  0  0  0
    9.6658  -25.1138    3.2091 O   0  0  0  0  0  0  0  0  0  0  0  0
   14.0000  -27.5227   -0.6820 C   0  0  2  0  0  0  0  0  0  0  0  0
   12.5973  -27.3763   -1.0378 O   0  0  0  0  0  0  0  0  0  0  0  0
   11.0247  -22.4547   11.2984 C   0  0  0  0  0  0  0  0  0  0  0  0
    9.7535  -21.8821   11.4461 O   0  0  0  0  0  0  0  0  0  0  0  0
   10.3282  -21.3732    7.2801 C   0  0  1  0  0  0  0  0  0  0  0  0
    9.0685  -20.7509    7.7106 O   0  0  0  0  0  0  0  0  0  0  0  0
   11.9588  -25.8455    3.1924 C   0  0  0  0  0  0  0  0  0  0  0  0
   12.0874  -25.4177    4.6066 N   0  0  0  0  0  0  0  0  0  0  0  0
   14.7665  -26.9692   -1.8812 C   0  0  0  0  0  0  0  0  0  0  0  0
   16.1048  -26.5447   -1.4771 O   0  0  0  0  0  0  0  0  0  0  0  0
  1  2  1  6  0  0  0
  1  8  1  0  0  0  0
  1 36  1  0  0  0  0
  3  4  1  6  0  0  0
  3 10  1  0  0  0  0
  3 47  1  0  0  0  0
  5 11  1  0  0  0  0
  5 30  1  0  0  0  0
  5 38  1  1  0  0  0
  6 21  1  1  0  0  0
  6 42  1  0  0  0  0
  7 15  1  0  0  0  0
  7 44  1  0  0  0  0
  7 32  1  1  0  0  0
  8  9  1  6  0  0  0
  8 17  1  0  0  0  0
 11 12  1  6  0  0  0
 11 20  1  0  0  0  0
 13  6  1  0  0  0  0
 13 14  1  1  0  0  0
 15 16  1  6  0  0  0
 15 24  1  0  0  0  0
 17 26  1  0  0  0  0
 18 10  1  0  0  0  0
 18 19  1  6  0  0  0
 20 21  1  6  0  0  0
 20 29  1  0  0  0  0
 22 13  1  0  0  0  0
 22 23  1  1  0  0  0
 24 25  1  6  0  0  0
 24 33  1  0  0  0  0
 26 27  1  6  0  0  0
 26 35  1  0  0  0  0
 28  2  1  1  0  0  0
 28 18  1  0  0  0  0
 29 30  1  0  0  0  0
 29 39  1  1  0  0  0
 31 22  1  0  0  0  0
 31 32  1  1  0  0  0
 31 41  1  0  0  0  0
 33 34  1  1  0  0  0
 33 43  1  0  0  0  0
 35 36  1  0  0  0  0
 35 45  1  1  0  0  0
 37 28  1  0  0  0  0
 37 38  1  6  0  0  0
 39 40  1  0  0  0  0
 41 42  1  0  0  0  0
 41 49  1  1  0  0  0
 43 44  1  0  0  0  0
 43 51  1  6  0  0  0
 45 46  1  0  0  0  0
 47 37  1  0  0  0  0
 47 48  1  1  0  0  0
 49 50  1  0  0  0  0
 51 52  1  0  0  0  0
M  END
>  <CHROM.1>
145.81830442,172.44208194,-164.06642010,94.31851740,-71.57151657,32.25633572
69.79925861,126.17078232,-71.12352961,-71.58191578,169.96528605,-70.72516290
10.78640526,-24.81040766,4.84034868,-1.86266065,0.62048215,-1.86534624

>  <Name>
2fd0_lig

>  <RI>
0

>  <Rbt.Current_Directory>
/home/itssahil/PROJECTS/Mol_Feturizer/New_Systems/rnas/2fd0

>  <Rbt.Executable>
rbdock ($Id: //depot/dev/client3/rdock/2013.1/src/exe/rbdock.cxx#4 $)

>  <Rbt.Library>
libRbt.so (2013.1, Build901 2013/11/27)

>  <Rbt.Parameter_File>
/export/apps/rDock/src/rDock_2013.1_src/data/scripts/dock_solv.prm

>  <Rbt.Receptor>
prm/blind_docking_40.prm

>  <SCORE>
34.9765

>  <SCORE.INTER>
2.68752

>  <SCORE.INTER.CONST>
1

>  <SCORE.INTER.POLAR>
-0.230053

>  <SCORE.INTER.ROT>
12

>  <SCORE.INTER.SOLV>
17.4139

>  <SCORE.INTER.VDW>
-14.8461

>  <SCORE.INTER.norm>
0.051683

>  <SCORE.INTRA>
8.32163

>  <SCORE.INTRA.DIHEDRAL>
0.361118

>  <SCORE.INTRA.DIHEDRAL.0>
23.9727

>  <SCORE.INTRA.POLAR>
0

>  <SCORE.INTRA.POLAR.0>
0

>  <SCORE.INTRA.REPUL>
0.307293

>  <SCORE.INTRA.REPUL.0>
0

>  <SCORE.INTRA.SOLV>
1.80515

>  <SCORE.INTRA.SOLV.lig_0>
-115.028

>  <SCORE.INTRA.VDW>
5.70204

>  <SCORE.INTRA.VDW.0>
-6.82393

>  <SCORE.INTRA.norm>
0.160031

>  <SCORE.RESTR>
23.9673

>  <SCORE.RESTR.CAVITY>
23.9673

>  <SCORE.RESTR.norm>
0.46091

>  <SCORE.SYSTEM>
0

>  <SCORE.SYSTEM.CONST>
0

>  <SCORE.SYSTEM.DIHEDRAL>
0

>  <SCORE.SYSTEM.SOLV>
0

>  <SCORE.SYSTEM.norm>
0

>  <SCORE.heavy>
52

>  <SCORE.norm>
0.672624

>  <RMSD>
27.276

$$$$
2fd0_lig
 OpenBabel11021811433D
libRbt.so/2013.1/901 2013/11/27
 52 56  0  0  0  0  0  0  0  0999 V2000
   12.9772  -27.8825    1.5141 C   0  0  2  0  0  0  0  0  0  0  0  0
   11.9427  -27.1736    0.8183 O   0  0  0  0  0  0  0  0  0  0  0  0
    7.7438  -28.2747    1.0411 C   0  0  2  0  0  0  0  0  0  0  0  0
    6.3372  -28.3389    1.4704 N   0  0  0  0  0  0  0  0  0  0  0  0
   10.0845  -24.3503    0.6528 C   0  0  1  0  0  0  0  0  0  0  0  0
    8.3222  -22.5240    4.4752 C   0  0  1  0  0  0  0  0  0  0  0  0
    9.8379  -24.9744    8.7310 C   0  0  1  0  0  0  0  0  0  0  0  0
   14.3342  -27.1159    1.3081 C   0  0  2  0  0  0  0  0  0  0  0  0
   14.2496  -25.7331    1.7567 N   0  0  0  0  0  0  0  0  0  0  0  0
    8.7079  -28.6502    2.2505 C   0  0  0  0  0  0  0  0  0  0  0  0
    8.7597  -24.2804    1.3901 C   0  0  2  0  0  0  0  0  0  0  0  0
    7.8524  -23.3058    0.8027 O   0  0  0  0  0  0  0  0  0  0  0  0
    9.4112  -21.7845    5.3845 C   0  0  2  0  0  0  0  0  0  0  0  0
   10.7019  -22.5253    5.3591 N   0  0  0  0  0  0  0  0  0  0  0  0
   11.2984  -24.5713    9.0344 C   0  0  1  0  0  0  0  0  0  0  0  0
   11.2975  -23.3940    9.8791 O   0  0  0  0  0  0  0  0  0  0  0  0
   14.7903  -27.2039   -0.1955 C   0  0  0  0  0  0  0  0  0  0  0  0
   10.2384  -28.5904    1.7778 C   0  0  2  0  0  0  0  0  0  0  0  0
   11.1513  -28.9310    2.8788 N   0  0  0  0  0  0  0  0  0  0  0  0
    9.1831  -24.0181    2.8255 C   0  0  2  0  0  0  0  0  0  0  0  0
    8.8954  -22.7020    3.2129 O   0  0  0  0  0  0  0  0  0  0  0  0
    8.7566  -21.5768    6.8472 C   0  0  1  0  0  0  0  0  0  0  0  0
    7.5327  -20.8374    6.6849 O   0  0  0  0  0  0  0  0  0  0  0  0
   12.2123  -25.6384    9.6955 C   0  0  1  0  0  0  0  0  0  0  0  0
   12.1509  -25.4535   11.1155 O   0  0  0  0  0  0  0  0  0  0  0  0
   14.8679  -28.7113   -0.6035 C   0  0  2  0  0  0  0  0  0  0  0  0
   15.2961  -28.8350   -1.9561 O   0  0  0  0  0  0  0  0  0  0  0  0
   10.5517  -27.1643    1.2452 C   0  0  2  0  0  0  0  0  0  0  0  0
   10.7227  -24.1429    2.9186 C   0  0  2  0  0  0  0  0  0  0  0  0
   11.0700  -24.6320    1.6312 O   0  0  0  0  0  0  0  0  0  0  0  0
    8.3551  -22.9849    7.5329 C   0  0  2  0  0  0  0  0  0  0  0  0
    9.6066  -23.6796    7.6905 O   0  0  0  0  0  0  0  0  0  0  0  0
   11.8803  -27.1132    9.3709 C   0  0  2  0  0  0  0  0  0  0  0  0
   13.1532  -27.7672    9.1748 O   0  0  0  0  0  0  0  0  0  0  0  0
   13.4684  -29.3675   -0.4286 C   0  0  2  0  0  0  0  0  0  0  0  0
   13.0691  -29.2323    0.9898 O   0  0  0  0  0  0  0  0  0  0  0  0
    9.5948  -26.7256    0.0950 C   0  0  2  0  0  0  0  0  0  0  0  0
    9.9564  -25.3752   -0.2812 O   0  0  0  0  0  0  0  0  0  0  0  0
   11.2294  -25.1340    3.9605 C   0  0  0  0  0  0  0  0  0  0  0  0
   10.3300  -25.0670    5.0775 O   0  0  0  0  0  0  0  0  0  0  0  0
    7.5215  -23.7199    6.5002 C   0  0  1  0  0  0  0  0  0  0  0  0
    7.8723  -23.8540    5.1070 O   0  0  0  0  0  0  0  0  0  0  0  0
   10.9503  -27.2131    8.1648 C   0  0  2  0  0  0  0  0  0  0  0  0
    9.7588  -26.3828    8.2439 O   0  0  0  0  0  0  0  0  0  0  0  0
   13.4835  -30.8237   -0.7696 C   0  0  0  0  0  0  0  0  0  0  0  0
   12.2119  -31.3467   -0.4952 O   0  0  0  0  0  0  0  0  0  0  0  0
    8.0998  -26.8057    0.5757 C   0  0  1  0  0  0  0  0  0  0  0  0
    7.2273  -26.4362   -0.5475 O   0  0  0  0  0  0  0  0  0  0  0  0
    7.0697  -25.1475    6.9715 C   0  0  0  0  0  0  0  0  0  0  0  0
    5.7166  -25.5291    6.4996 N   0  0  0  0  0  0  0  0  0  0  0  0
   10.4551  -28.5568    7.6346 C   0  0  0  0  0  0  0  0  0  0  0  0
   10.6015  -29.5913    8.6558 O   0  0  0  0  0  0  0  0  0  0  0  0
  1  2  1  6  0  0  0
  1  8  1  0  0  0  0
  1 36  1  0  0  0  0
  3  4  1  1  0  0  0
  3 10  1  0  0  0  0
  3 47  1  0  0  0  0
  5 11  1  0  0  0  0
  5 30  1  0  0  0  0
  5 38  1  6  0  0  0
  6 21  1  6  0  0  0
  6 42  1  0  0  0  0
  7 15  1  0  0  0  0
  7 44  1  0  0  0  0
  7 32  1  6  0  0  0
  8  9  1  6  0  0  0
  8 17  1  0  0  0  0
 11 12  1  6  0  0  0
 11 20  1  0  0  0  0
 13  6  1  0  0  0  0
 13 14  1  1  0  0  0
 15 16  1  1  0  0  0
 15 24  1  0  0  0  0
 17 26  1  0  0  0  0
 18 10  1  0  0  0  0
 18 19  1  1  0  0  0
 20 21  1  6  0  0  0
 20 29  1  0  0  0  0
 22 13  1  0  0  0  0
 22 23  1  6  0  0  0
 24 25  1  1  0  0  0
 24 33  1  0  0  0  0
 26 27  1  6  0  0  0
 26 35  1  0  0  0  0
 28  2  1  6  0  0  0
 28 18  1  0  0  0  0
 29 30  1  0  0  0  0
 29 39  1  1  0  0  0
 31 22  1  0  0  0  0
 31 32  1  6  0  0  0
 31 41  1  0  0  0  0
 33 34  1  6  0  0  0
 33 43  1  0  0  0  0
 35 36  1  0  0  0  0
 35 45  1  1  0  0  0
 37 28  1  0  0  0  0
 37 38  1  1  0  0  0
 39 40  1  0  0  0  0
 41 42  1  0  0  0  0
 41 49  1  1  0  0  0
 43 44  1  0  0  0  0
 43 51  1  1  0  0  0
 45 46  1  0  0  0  0
 47 37  1  0  0  0  0
 47 48  1  6  0  0  0
 49 50  1  0  0  0  0
 51 52  1  0  0  0  0
M  END
>  <CHROM.1>
-149.99414798,-56.23644868,111.94424698,-146.35579017,135.83196196,-37.71679985
-35.52465206,161.58021873,175.97705898,-51.15852265,144.39785045,19.14149401
10.44664566,-25.98797024,3.93091290,-1.20623824,-0.77143253,1.39240739

>  <Name>
2fd0_lig

>  <RI>
0

>  <Rbt.Current_Directory>
/home/itssahil/PROJECTS/Mol_Feturizer/New_Systems/rnas/2fd0

>  <Rbt.Executable>
rbdock ($Id: //depot/dev/client3/rdock/2013.1/src/exe/rbdock.cxx#4 $)

>  <Rbt.Library>
libRbt.so (2013.1, Build901 2013/11/27)

>  <Rbt.Parameter_File>
/export/apps/rDock/src/rDock_2013.1_src/data/scripts/dock_solv.prm

>  <Rbt.Receptor>
prm/blind_docking_40.prm

>  <SCORE>
67.1807

>  <SCORE.INTER>
34.5856

>  <SCORE.INTER.CONST>
1

>  <SCORE.INTER.POLAR>
-0.726184

>  <SCORE.INTER.ROT>
12

>  <SCORE.INTER.SOLV>
29.7361

>  <SCORE.INTER.VDW>
3.96566

>  <SCORE.INTER.norm>
0.665108

>  <SCORE.INTRA>
12.9472

>  <SCORE.INTRA.DIHEDRAL>
10.1322

>  <SCORE.INTRA.DIHEDRAL.0>
23.9727

>  <SCORE.INTRA.POLAR>
0

>  <SCORE.INTRA.POLAR.0>
0

>  <SCORE.INTRA.REPUL>
0

>  <SCORE.INTRA.REPUL.0>
0

>  <SCORE.INTRA.SOLV>
4.54292

>  <SCORE.INTRA.SOLV.lig_0>
-115.028

>  <SCORE.INTRA.VDW>
5.60967

>  <SCORE.INTRA.VDW.0>
-6.82393

>  <SCORE.INTRA.norm>
0.248985

>  <SCORE.RESTR>
19.6479

>  <SCORE.RESTR.CAVITY>
19.6479

>  <SCORE.RESTR.norm>
0.377844

>  <SCORE.SYSTEM>
0

>  <SCORE.SYSTEM.CONST>
0

>  <SCORE.SYSTEM.DIHEDRAL>
0

>  <SCORE.SYSTEM.SOLV>
0

>  <SCORE.SYSTEM.norm>
0

>  <SCORE.heavy>
52

>  <SCORE.norm>
1.29194

>  <RMSD>
27.319

$$$$
2fd0_lig
 OpenBabel11021811433D
libRbt.so/2013.1/901 2013/11/27
 52 56  0  0  0  0  0  0  0  0999 V2000
   10.4159  -26.6390    4.3024 C   0  0  2  0  0  0  0  0  0  0  0  0
   10.4007  -27.8976    3.6148 O   0  0  0  0  0  0  0  0  0  0  0  0
   12.3807  -27.2142   -0.1937 C   0  0  2  0  0  0  0  0  0  0  0  0
   12.7898  -27.3551   -1.6008 N   0  0  0  0  0  0  0  0  0  0  0  0
    8.3678  -25.3051    1.5381 C   0  0  1  0  0  0  0  0  0  0  0  0
    7.4566  -22.5033    4.5185 C   0  0  1  0  0  0  0  0  0  0  0  0
   10.0407  -24.8722    8.5231 C   0  0  1  0  0  0  0  0  0  0  0  0
   11.8889  -26.0896    4.3070 C   0  0  2  0  0  0  0  0  0  0  0  0
   12.4238  -25.9600    2.9588 N   0  0  0  0  0  0  0  0  0  0  0  0
   12.6833  -28.5564    0.6064 C   0  0  0  0  0  0  0  0  0  0  0  0
    8.5333  -24.8165    2.9655 C   0  0  2  0  0  0  0  0  0  0  0  0
    7.3705  -25.1141    3.7886 O   0  0  0  0  0  0  0  0  0  0  0  0
    8.7061  -21.8767    5.2967 C   0  0  2  0  0  0  0  0  0  0  0  0
    9.9560  -22.6068    4.9503 N   0  0  0  0  0  0  0  0  0  0  0  0
    9.9672  -23.6695    9.4905 C   0  0  1  0  0  0  0  0  0  0  0  0
    8.5970  -23.5009    9.9310 O   0  0  0  0  0  0  0  0  0  0  0  0
   12.8094  -26.9976    5.2041 C   0  0  0  0  0  0  0  0  0  0  0  0
   12.2474  -28.3967    2.1406 C   0  0  2  0  0  0  0  0  0  0  0  0
   12.5142  -29.6256    2.9024 N   0  0  0  0  0  0  0  0  0  0  0  0
    8.8643  -23.3447    2.7848 C   0  0  2  0  0  0  0  0  0  0  0  0
    7.7896  -22.5272    3.1612 O   0  0  0  0  0  0  0  0  0  0  0  0
    8.3297  -21.8475    6.8679 C   0  0  1  0  0  0  0  0  0  0  0  0
    7.1117  -21.0961    7.0188 O   0  0  0  0  0  0  0  0  0  0  0  0
   10.8769  -23.7067   10.7483 C   0  0  1  0  0  0  0  0  0  0  0  0
   10.1189  -24.2731   11.8247 O   0  0  0  0  0  0  0  0  0  0  0  0
   12.1810  -27.0834    6.6333 C   0  0  2  0  0  0  0  0  0  0  0  0
   12.9962  -27.8839    7.4835 O   0  0  0  0  0  0  0  0  0  0  0  0
   10.7349  -28.0447    2.2064 C   0  0  2  0  0  0  0  0  0  0  0  0
    9.0794  -23.0667    1.2779 C   0  0  2  0  0  0  0  0  0  0  0  0
    9.0467  -24.3711    0.7167 O   0  0  0  0  0  0  0  0  0  0  0  0
    8.0300  -23.3286    7.4430 C   0  0  2  0  0  0  0  0  0  0  0  0
    9.2753  -24.0350    7.2879 O   0  0  0  0  0  0  0  0  0  0  0  0
   12.2019  -24.4907   10.6062 C   0  0  2  0  0  0  0  0  0  0  0  0
   13.2010  -23.6974   11.2836 O   0  0  0  0  0  0  0  0  0  0  0  0
   10.7548  -27.6968    6.5355 C   0  0  2  0  0  0  0  0  0  0  0  0
    9.9378  -26.8284    5.6592 O   0  0  0  0  0  0  0  0  0  0  0  0
   10.3764  -26.7667    1.3885 C   0  0  2  0  0  0  0  0  0  0  0  0
    8.9455  -26.5712    1.4907 O   0  0  0  0  0  0  0  0  0  0  0  0
   10.4164  -22.4257    0.9228 C   0  0  0  0  0  0  0  0  0  0  0  0
   11.1960  -22.3837    2.1276 O   0  0  0  0  0  0  0  0  0  0  0  0
    7.0096  -23.9355    6.4986 C   0  0  1  0  0  0  0  0  0  0  0  0
    7.1012  -23.9005    5.0590 O   0  0  0  0  0  0  0  0  0  0  0  0
   12.5262  -24.7577    9.1388 C   0  0  2  0  0  0  0  0  0  0  0  0
   11.4438  -25.3585    8.3753 O   0  0  0  0  0  0  0  0  0  0  0  0
   10.0829  -27.7733    7.8696 C   0  0  0  0  0  0  0  0  0  0  0  0
    9.1764  -28.8424    7.8380 O   0  0  0  0  0  0  0  0  0  0  0  0
   10.8256  -26.9395   -0.1085 C   0  0  1  0  0  0  0  0  0  0  0  0
   10.5195  -25.6990   -0.8344 O   0  0  0  0  0  0  0  0  0  0  0  0
    6.6215  -25.4103    6.8712 C   0  0  0  0  0  0  0  0  0  0  0  0
    5.2259  -25.7656    6.5170 N   0  0  0  0  0  0  0  0  0  0  0  0
   13.7762  -25.5248    8.7135 C   0  0  0  0  0  0  0  0  0  0  0  0
   14.0638  -26.5955    9.6650 O   0  0  0  0  0  0  0  0  0  0  0  0
  1  2  1  6  0  0  0
  1  8  1  0  0  0  0
  1 36  1  0  0  0  0
  3  4  1  6  0  0  0
  3 10  1  0  0  0  0
  3 47  1  0  0  0  0
  5 11  1  0  0  0  0
  5 30  1  0  0  0  0
  5 38  1  1  0  0  0
  6 21  1  6  0  0  0
  6 42  1  0  0  0  0
  7 15  1  0  0  0  0
  7 44  1  0  0  0  0
  7 32  1  6  0  0  0
  8  9  1  6  0  0  0
  8 17  1  0  0  0  0
 11 12  1  1  0  0  0
 11 20  1  0  0  0  0
 13  6  1  0  0  0  0
 13 14  1  1  0  0  0
 15 16  1  1  0  0  0
 15 24  1  0  0  0  0
 17 26  1  0  0  0  0
 18 10  1  0  0  0  0
 18 19  1  1  0  0  0
 20 21  1  6  0  0  0
 20 29  1  0  0  0  0
 22 13  1  0  0  0  0
 22 23  1  6  0  0  0
 24 25  1  1  0  0  0
 24 33  1  0  0  0  0
 26 27  1  1  0  0  0
 26 35  1  0  0  0  0
 28  2  1  1  0  0  0
 28 18  1  0  0  0  0
 29 30  1  0  0  0  0
 29 39  1  1  0  0  0
 31 22  1  0  0  0  0
 31 32  1  6  0  0  0
 31 41  1  0  0  0  0
 33 34  1  6  0  0  0
 33 43  1  0  0  0  0
 35 36  1  0  0  0  0
 35 45  1  1  0  0  0
 37 28  1  0  0  0  0
 37 38  1  6  0  0  0
 39 40  1  0  0  0  0
 41 42  1  0  0  0  0
 41 49  1  1  0  0  0
 43 44  1  0  0  0  0
 43 51  1  1  0  0  0
 45 46  1  0  0  0  0
 47 37  1  0  0  0  0
 47 48  1  6  0  0  0
 49 50  1  0  0  0  0
 51 52  1  0  0  0  0
M  END
>  <CHROM.1>
-63.58868360,-79.52738720,64.07456669,-51.16366743,67.55162120,93.62094743
6.12729852,128.05265330,-152.07367803,145.24186892,148.70490542,36.37802460
10.17047250,-25.28258424,5.16103883,-1.54845448,-0.76056007,1.39263507

>  <Name>
2fd0_lig

>  <RI>
0

>  <Rbt.Current_Directory>
/home/itssahil/PROJECTS/Mol_Feturizer/New_Systems/rnas/2fd0

>  <Rbt.Executable>
rbdock ($Id: //depot/dev/client3/rdock/2013.1/src/exe/rbdock.cxx#4 $)

>  <Rbt.Library>
libRbt.so (2013.1, Build901 2013/11/27)

>  <Rbt.Parameter_File>
/export/apps/rDock/src/rDock_2013.1_src/data/scripts/dock_solv.prm

>  <Rbt.Receptor>
prm/blind_docking_40.prm

>  <SCORE>
55.7697

>  <SCORE.INTER>
7.37262

>  <SCORE.INTER.CONST>
1

>  <SCORE.INTER.POLAR>
-0.533409

>  <SCORE.INTER.ROT>
12

>  <SCORE.INTER.SOLV>
17.6268

>  <SCORE.INTER.VDW>
-10.7825

>  <SCORE.INTER.norm>
0.141781

>  <SCORE.INTRA>
33.254

>  <SCORE.INTRA.DIHEDRAL>
6.2305

>  <SCORE.INTRA.DIHEDRAL.0>
23.9727

>  <SCORE.INTRA.POLAR>
0

>  <SCORE.INTRA.POLAR.0>
0

>  <SCORE.INTRA.REPUL>
0.00322259

>  <SCORE.INTRA.REPUL.0>
0

>  <SCORE.INTRA.SOLV>
11.2743

>  <SCORE.INTRA.SOLV.lig_0>
-115.028

>  <SCORE.INTRA.VDW>
24.4855

>  <SCORE.INTRA.VDW.0>
-6.82393

>  <SCORE.INTRA.norm>
0.639501

>  <SCORE.RESTR>
15.1431

>  <SCORE.RESTR.CAVITY>
15.1431

>  <SCORE.RESTR.norm>
0.291213

>  <SCORE.SYSTEM>
0

>  <SCORE.SYSTEM.CONST>
0

>  <SCORE.SYSTEM.DIHEDRAL>
0

>  <SCORE.SYSTEM.SOLV>
0

>  <SCORE.SYSTEM.norm>
0

>  <SCORE.heavy>
52

>  <SCORE.norm>
1.0725

>  <RMSD>
27.339

$$$$
2fd0_lig
 OpenBabel11021811433D
libRbt.so/2013.1/901 2013/11/27
 52 56  0  0  0  0  0  0  0  0999 V2000
   11.0981  -25.0685    6.4282 C   0  0  2  0  0  0  0  0  0  0  0  0
   10.1103  -24.3279    7.1580 O   0  0  0  0  0  0  0  0  0  0  0  0
    9.1495  -20.2062    8.1488 C   0  0  2  0  0  0  0  0  0  0  0  0
    8.9606  -18.7505    8.0387 N   0  0  0  0  0  0  0  0  0  0  0  0
    7.7001  -22.9357    4.8740 C   0  0  1  0  0  0  0  0  0  0  0  0
    7.9075  -22.9898    1.5030 C   0  0  1  0  0  0  0  0  0  0  0  0
   11.7981  -26.2321    1.2877 C   0  0  1  0  0  0  0  0  0  0  0  0
   10.4574  -26.4234    5.9535 C   0  0  2  0  0  0  0  0  0  0  0  0
    9.2620  -26.2062    5.1506 N   0  0  0  0  0  0  0  0  0  0  0  0
   10.6591  -20.5931    7.8257 C   0  0  0  0  0  0  0  0  0  0  0  0
    6.7304  -23.8778    4.1843 C   0  0  2  0  0  0  0  0  0  0  0  0
    7.3752  -25.1048    3.7404 O   0  0  0  0  0  0  0  0  0  0  0  0
    8.2243  -23.5832    0.0514 C   0  0  2  0  0  0  0  0  0  0  0  0
    7.9519  -25.0460    0.0150 N   0  0  0  0  0  0  0  0  0  0  0  0
   11.9855  -26.9991   -0.0405 C   0  0  1  0  0  0  0  0  0  0  0  0
   12.7666  -26.1849   -0.9497 O   0  0  0  0  0  0  0  0  0  0  0  0
   10.1574  -27.3502    7.1894 C   0  0  0  0  0  0  0  0  0  0  0  0
   10.8650  -22.1773    7.9570 C   0  0  2  0  0  0  0  0  0  0  0  0
   12.2528  -22.5621    7.6605 N   0  0  0  0  0  0  0  0  0  0  0  0
    6.1287  -23.0076    3.0938 C   0  0  2  0  0  0  0  0  0  0  0  0
    6.6026  -23.3727    1.8261 O   0  0  0  0  0  0  0  0  0  0  0  0
    9.7328  -23.1465   -0.3288 C   0  0  1  0  0  0  0  0  0  0  0  0
    9.8115  -21.7114   -0.2551 O   0  0  0  0  0  0  0  0  0  0  0  0
   12.6407  -28.4050    0.0317 C   0  0  1  0  0  0  0  0  0  0  0  0
   14.0502  -28.2463   -0.1741 O   0  0  0  0  0  0  0  0  0  0  0  0
   11.4822  -27.5463    7.9963 C   0  0  2  0  0  0  0  0  0  0  0  0
   11.2566  -28.3966    9.1163 O   0  0  0  0  0  0  0  0  0  0  0  0
    9.8907  -22.8999    6.9853 C   0  0  2  0  0  0  0  0  0  0  0  0
    6.6056  -21.5505    3.3030 C   0  0  2  0  0  0  0  0  0  0  0  0
    7.2747  -21.6225    4.5539 O   0  0  0  0  0  0  0  0  0  0  0  0
   10.8112  -23.7206    0.7304 C   0  0  2  0  0  0  0  0  0  0  0  0
   10.7092  -25.1519    0.6094 O   0  0  0  0  0  0  0  0  0  0  0  0
   12.4148  -29.1939    1.3421 C   0  0  2  0  0  0  0  0  0  0  0  0
   12.1712  -30.5597    0.9400 O   0  0  0  0  0  0  0  0  0  0  0  0
   12.0043  -26.1625    8.4782 C   0  0  2  0  0  0  0  0  0  0  0  0
   12.2411  -25.3178    7.2866 O   0  0  0  0  0  0  0  0  0  0  0  0
    8.4002  -22.5092    7.2237 C   0  0  2  0  0  0  0  0  0  0  0  0
    7.6037  -23.2071    6.2364 O   0  0  0  0  0  0  0  0  0  0  0  0
    5.4921  -20.5151    3.4141 C   0  0  0  0  0  0  0  0  0  0  0  0
    4.6025  -20.9631    4.4480 O   0  0  0  0  0  0  0  0  0  0  0  0
   10.2975  -23.3137    2.0986 C   0  0  1  0  0  0  0  0  0  0  0  0
    8.9342  -23.4726    2.5438 O   0  0  0  0  0  0  0  0  0  0  0  0
   11.2778  -28.5859    2.1589 C   0  0  2  0  0  0  0  0  0  0  0  0
   11.3905  -27.1540    2.3882 O   0  0  0  0  0  0  0  0  0  0  0  0
   13.2929  -26.2778    9.2286 C   0  0  0  0  0  0  0  0  0  0  0  0
   13.6587  -24.9956    9.6622 O   0  0  0  0  0  0  0  0  0  0  0  0
    8.2243  -20.9512    7.1046 C   0  0  1  0  0  0  0  0  0  0  0  0
    6.8213  -20.6164    7.3859 O   0  0  0  0  0  0  0  0  0  0  0  0
   11.1994  -23.8273    3.2763 C   0  0  0  0  0  0  0  0  0  0  0  0
   11.1520  -22.9645    4.4816 N   0  0  0  0  0  0  0  0  0  0  0  0
   10.8508  -29.1643    3.5061 C   0  0  0  0  0  0  0  0  0  0  0  0
    9.5318  -29.7832    3.3984 O   0  0  0  0  0  0  0  0  0  0  0  0
  1  2  1  1  0  0  0
  1  8  1  0  0  0  0
  1 36  1  0  0  0  0
  3  4  1  6  0  0  0
  3 10  1  0  0  0  0
  3 47  1  0  0  0  0
  5 11  1  0  0  0  0
  5 30  1  0  0  0  0
  5 38  1  1  0  0  0
  6 21  1  1  0  0  0
  6 42  1  0  0  0  0
  7 15  1  0  0  0  0
  7 44  1  0  0  0  0
  7 32  1  6  0  0  0
  8  9  1  1  0  0  0
  8 17  1  0  0  0  0
 11 12  1  6  0  0  0
 11 20  1  0  0  0  0
 13  6  1  0  0  0  0
 13 14  1  1  0  0  0
 15 16  1  6  0  0  0
 15 24  1  0  0  0  0
 17 26  1  0  0  0  0
 18 10  1  0  0  0  0
 18 19  1  6  0  0  0
 20 21  1  6  0  0  0
 20 29  1  0  0  0  0
 22 13  1  0  0  0  0
 22 23  1  1  0  0  0
 24 25  1  1  0  0  0
 24 33  1  0  0  0  0
 26 27  1  1  0  0  0
 26 35  1  0  0  0  0
 28  2  1  1  0  0  0
 28 18  1  0  0  0  0
 29 30  1  0  0  0  0
 29 39  1  1  0  0  0
 31 22  1  0  0  0  0
 31 32  1  1  0  0  0
 31 41  1  0  0  0  0
 33 34  1  6  0  0  0
 33 43  1  0  0  0  0
 35 36  1  0  0  0  0
 35 45  1  6  0  0  0
 37 28  1  0  0  0  0
 37 38  1  6  0  0  0
 39 40  1  0  0  0  0
 41 42  1  0  0  0  0
 41 49  1  1  0  0  0
 43 44  1  0  0  0  0
 43 51  1  1  0  0  0
 45 46  1  0  0  0  0
 47 37  1  0  0  0  0
 47 48  1  1  0  0  0
 49 50  1  0  0  0  0
 51 52  1  0  0  0  0
M  END
>  <CHROM.1>
-136.41587611,179.23420704,177.27524885,-129.70947900,-75.13112666,-87.72215984
53.75998062,168.66656413,-177.90387500,-65.97744735,151.77293952,-110.62193757
9.88340874,-24.54499061,4.22826318,-2.20306886,0.90178202,-1.86890669

>  <Name>
2fd0_lig

>  <RI>
0

>  <Rbt.Current_Directory>
/home/itssahil/PROJECTS/Mol_Feturizer/New_Systems/rnas/2fd0

>  <Rbt.Executable>
rbdock ($Id: //depot/dev/client3/rdock/2013.1/src/exe/rbdock.cxx#4 $)

>  <Rbt.Library>
libRbt.so (2013.1, Build901 2013/11/27)

>  <Rbt.Parameter_File>
/export/apps/rDock/src/rDock_2013.1_src/data/scripts/dock_solv.prm

>  <Rbt.Receptor>
prm/blind_docking_40.prm

>  <SCORE>
33.8371

>  <SCORE.INTER>
1.26308

>  <SCORE.INTER.CONST>
1

>  <SCORE.INTER.POLAR>
-0.710824

>  <SCORE.INTER.ROT>
12

>  <SCORE.INTER.SOLV>
16.9861

>  <SCORE.INTER.VDW>
-14.0506

>  <SCORE.INTER.norm>
0.02429

>  <SCORE.INTRA>
9.27674

>  <SCORE.INTRA.DIHEDRAL>
1.46117

>  <SCORE.INTRA.DIHEDRAL.0>
23.9727

>  <SCORE.INTRA.POLAR>
0

>  <SCORE.INTRA.POLAR.0>
0

>  <SCORE.INTRA.REPUL>
0.12932

>  <SCORE.INTRA.REPUL.0>
0

>  <SCORE.INTRA.SOLV>
11.9325

>  <SCORE.INTRA.SOLV.lig_0>
-115.028

>  <SCORE.INTRA.VDW>
1.9333

>  <SCORE.INTRA.VDW.0>
-6.82393

>  <SCORE.INTRA.norm>
0.178399

>  <SCORE.RESTR>
23.2973

>  <SCORE.RESTR.CAVITY>
23.2973

>  <SCORE.RESTR.norm>
0.448025

>  <SCORE.SYSTEM>
0

>  <SCORE.SYSTEM.CONST>
0

>  <SCORE.SYSTEM.DIHEDRAL>
0

>  <SCORE.SYSTEM.SOLV>
0

>  <SCORE.SYSTEM.norm>
0

>  <SCORE.heavy>
52

>  <SCORE.norm>
0.650714

>  <RMSD>
27.372

$$$$
2fd0_lig
 OpenBabel11021811433D
libRbt.so/2013.1/901 2013/11/27
 52 56  0  0  0  0  0  0  0  0999 V2000
   12.9527  -29.5455    2.2244 C   0  0  2  0  0  0  0  0  0  0  0  0
   11.5334  -29.3544    2.1452 O   0  0  0  0  0  0  0  0  0  0  0  0
   10.9549  -26.4414   -1.0284 C   0  0  2  0  0  0  0  0  0  0  0  0
   10.3606  -25.6992   -2.1523 N   0  0  0  0  0  0  0  0  0  0  0  0
    9.4538  -25.9381    3.2874 C   0  0  1  0  0  0  0  0  0  0  0  0
    9.4124  -23.1728    5.2034 C   0  0  1  0  0  0  0  0  0  0  0  0
   11.2533  -25.1143    9.4528 C   0  0  1  0  0  0  0  0  0  0  0  0
   13.4127  -29.2689    3.7020 C   0  0  2  0  0  0  0  0  0  0  0  0
   12.7127  -30.1178    4.6560 N   0  0  0  0  0  0  0  0  0  0  0  0
   11.1238  -27.9775   -1.4089 C   0  0  0  0  0  0  0  0  0  0  0  0
   10.6728  -25.0427    3.1615 C   0  0  2  0  0  0  0  0  0  0  0  0
   11.5790  -25.1826    4.2917 O   0  0  0  0  0  0  0  0  0  0  0  0
    9.7396  -22.0934    6.3380 C   0  0  2  0  0  0  0  0  0  0  0  0
   11.2036  -22.0401    6.6008 N   0  0  0  0  0  0  0  0  0  0  0  0
   12.6388  -24.4401    9.3357 C   0  0  1  0  0  0  0  0  0  0  0  0
   12.6827  -23.2944   10.2219 O   0  0  0  0  0  0  0  0  0  0  0  0
   13.2375  -27.7452    4.0541 C   0  0  0  0  0  0  0  0  0  0  0  0
   11.7812  -28.7814   -0.1878 C   0  0  2  0  0  0  0  0  0  0  0  0
   11.9459  -30.2058   -0.5130 N   0  0  0  0  0  0  0  0  0  0  0  0
   10.0635  -23.6653    2.9609 C   0  0  2  0  0  0  0  0  0  0  0  0
   10.2163  -22.8656    4.1019 O   0  0  0  0  0  0  0  0  0  0  0  0
    8.8152  -22.4431    7.6164 C   0  0  1  0  0  0  0  0  0  0  0  0
    7.4421  -22.4392    7.1858 O   0  0  0  0  0  0  0  0  0  0  0  0
   13.8877  -25.3178    9.6201 C   0  0  1  0  0  0  0  0  0  0  0  0
   14.2297  -25.1638   11.0034 O   0  0  0  0  0  0  0  0  0  0  0  0
   14.0200  -26.8983    2.9981 C   0  0  2  0  0  0  0  0  0  0  0  0
   13.9012  -25.5100    3.2929 O   0  0  0  0  0  0  0  0  0  0  0  0
   10.8829  -28.6206    1.0703 C   0  0  2  0  0  0  0  0  0  0  0  0
    8.5353  -23.8219    2.7749 C   0  0  2  0  0  0  0  0  0  0  0  0
    8.3780  -25.2313    2.6949 O   0  0  0  0  0  0  0  0  0  0  0  0
    9.1133  -23.9260    8.1876 C   0  0  2  0  0  0  0  0  0  0  0  0
   10.4860  -23.8771    8.6202 O   0  0  0  0  0  0  0  0  0  0  0  0
   13.7447  -26.8253    9.3076 C   0  0  2  0  0  0  0  0  0  0  0  0
   14.9934  -27.2189    8.6975 O   0  0  0  0  0  0  0  0  0  0  0  0
   13.4534  -27.1891    1.5789 C   0  0  2  0  0  0  0  0  0  0  0  0
   13.6107  -28.6349    1.3062 O   0  0  0  0  0  0  0  0  0  0  0  0
   10.6391  -27.1285    1.4513 C   0  0  2  0  0  0  0  0  0  0  0  0
    9.7598  -27.1106    2.6014 O   0  0  0  0  0  0  0  0  0  0  0  0
    7.9722  -23.2039    1.4999 C   0  0  0  0  0  0  0  0  0  0  0  0
    6.5454  -23.1543    1.6510 O   0  0  0  0  0  0  0  0  0  0  0  0
    9.0169  -24.8527    6.9904 C   0  0  1  0  0  0  0  0  0  0  0  0
    9.6389  -24.6084    5.7115 O   0  0  0  0  0  0  0  0  0  0  0  0
   12.5255  -27.0896    8.4283 C   0  0  2  0  0  0  0  0  0  0  0  0
   11.2854  -26.5060    8.9150 O   0  0  0  0  0  0  0  0  0  0  0  0
   14.1856  -26.4340    0.5155 C   0  0  0  0  0  0  0  0  0  0  0  0
   13.8184  -26.9689   -0.7274 O   0  0  0  0  0  0  0  0  0  0  0  0
   10.0080  -26.3565    0.2355 C   0  0  1  0  0  0  0  0  0  0  0  0
    9.8411  -24.9462    0.6131 O   0  0  0  0  0  0  0  0  0  0  0  0
    9.3244  -26.3515    7.3413 C   0  0  0  0  0  0  0  0  0  0  0  0
   10.2125  -27.0218    6.3607 N   0  0  0  0  0  0  0  0  0  0  0  0
   12.1435  -28.4977    7.9776 C   0  0  0  0  0  0  0  0  0  0  0  0
   13.2202  -29.0875    7.1856 O   0  0  0  0  0  0  0  0  0  0  0  0
  1  2  1  1  0  0  0
  1  8  1  0  0  0  0
  1 36  1  0  0  0  0
  3  4  1  6  0  0  0
  3 10  1  0  0  0  0
  3 47  1  0  0  0  0
  5 11  1  0  0  0  0
  5 30  1  0  0  0  0
  5 38  1  6  0  0  0
  6 21  1  6  0  0  0
  6 42  1  0  0  0  0
  7 15  1  0  0  0  0
  7 44  1  0  0  0  0
  7 32  1  6  0  0  0
  8  9  1  1  0  0  0
  8 17  1  0  0  0  0
 11 12  1  1  0  0  0
 11 20  1  0  0  0  0
 13  6  1  0  0  0  0
 13 14  1  1  0  0  0
 15 16  1  1  0  0  0
 15 24  1  0  0  0  0
 17 26  1  0  0  0  0
 18 10  1  0  0  0  0
 18 19  1  6  0  0  0
 20 21  1  1  0  0  0
 20 29  1  0  0  0  0
 22 13  1  0  0  0  0
 22 23  1  6  0  0  0
 24 25  1  1  0  0  0
 24 33  1  0  0  0  0
 26 27  1  1  0  0  0
 26 35  1  0  0  0  0
 28  2  1  1  0  0  0
 28 18  1  0  0  0  0
 29 30  1  0  0  0  0
 29 39  1  6  0  0  0
 31 22  1  0  0  0  0
 31 32  1  6  0  0  0
 31 41  1  0  0  0  0
 33 34  1  6  0  0  0
 33 43  1  0  0  0  0
 35 36  1  0  0  0  0
 35 45  1  6  0  0  0
 37 28  1  0  0  0  0
 37 38  1  1  0  0  0
 39 40  1  0  0  0  0
 41 42  1  0  0  0  0
 41 49  1  1  0  0  0
 43 44  1  0  0  0  0
 43 51  1  1  0  0  0
 45 46  1  0  0  0  0
 47 37  1  0  0  0  0
 47 48  1  1  0  0  0
 49 50  1  0  0  0  0
 51 52  1  0  0  0  0
M  END
>  <CHROM.1>
135.17299483,-30.90369260,-178.00921964,171.53842426,-73.28962364,29.03266773
-166.26243752,172.97859235,167.17405006,172.96693711,-135.61880498,-60.57584338
11.24587843,-25.95728125,4.42953595,-1.60661040,-0.79023380,1.26626196

>  <Name>
2fd0_lig

>  <RI>
0

>  <Rbt.Current_Directory>
/home/itssahil/PROJECTS/Mol_Feturizer/New_Systems/rnas/2fd0

>  <Rbt.Executable>
rbdock ($Id: //depot/dev/client3/rdock/2013.1/src/exe/rbdock.cxx#4 $)

>  <Rbt.Library>
libRbt.so (2013.1, Build901 2013/11/27)

>  <Rbt.Parameter_File>
/export/apps/rDock/src/rDock_2013.1_src/data/scripts/dock_solv.prm

>  <Rbt.Receptor>
prm/blind_docking_40.prm

>  <SCORE>
42.6343

>  <SCORE.INTER>
0.10034

>  <SCORE.INTER.CONST>
1

>  <SCORE.INTER.POLAR>
-0.461851

>  <SCORE.INTER.ROT>
12

>  <SCORE.INTER.SOLV>
14.9095

>  <SCORE.INTER.VDW>
-14.9634

>  <SCORE.INTER.norm>
0.00192961

>  <SCORE.INTRA>
20.9571

>  <SCORE.INTRA.DIHEDRAL>
-3.31595

>  <SCORE.INTRA.DIHEDRAL.0>
23.9727

>  <SCORE.INTRA.POLAR>
0

>  <SCORE.INTRA.POLAR.0>
0

>  <SCORE.INTRA.REPUL>
0

>  <SCORE.INTRA.REPUL.0>
0

>  <SCORE.INTRA.SOLV>
11.6227

>  <SCORE.INTRA.SOLV.lig_0>
-115.028

>  <SCORE.INTRA.VDW>
16.8037

>  <SCORE.INTRA.VDW.0>
-6.82393

>  <SCORE.INTRA.norm>
0.403022

>  <SCORE.RESTR>
21.5768

>  <SCORE.RESTR.CAVITY>
21.5768

>  <SCORE.RESTR.norm>
0.414939

>  <SCORE.SYSTEM>
0

>  <SCORE.SYSTEM.CONST>
0

>  <SCORE.SYSTEM.DIHEDRAL>
0

>  <SCORE.SYSTEM.SOLV>
0

>  <SCORE.SYSTEM.norm>
0

>  <SCORE.heavy>
52

>  <SCORE.norm>
0.81989

>  <RMSD>
27.400

$$$$
2fd0_lig
 OpenBabel11021811433D
libRbt.so/2013.1/901 2013/11/27
 52 56  0  0  0  0  0  0  0  0999 V2000
    9.9113  -26.8131    0.5849 C   0  0  2  0  0  0  0  0  0  0  0  0
    9.7911  -25.6215    1.3739 O   0  0  0  0  0  0  0  0  0  0  0  0
    7.2094  -22.1384    1.6832 C   0  0  2  0  0  0  0  0  0  0  0  0
    6.0080  -21.2883    1.7155 N   0  0  0  0  0  0  0  0  0  0  0  0
    9.2064  -25.1734    4.9447 C   0  0  1  0  0  0  0  0  0  0  0  0
   12.3434  -23.9324    7.5980 C   0  0  1  0  0  0  0  0  0  0  0  0
   12.3556  -27.0442   10.0439 C   0  0  1  0  0  0  0  0  0  0  0  0
    9.3283  -28.0188    1.4083 C   0  0  2  0  0  0  0  0  0  0  0  0
    7.9466  -27.7869    1.8055 N   0  0  0  0  0  0  0  0  0  0  0  0
    7.2995  -22.9146    0.2967 C   0  0  0  0  0  0  0  0  0  0  0  0
   10.5430  -24.6449    4.4569 C   0  0  2  0  0  0  0  0  0  0  0  0
   11.4405  -25.7131    4.0428 O   0  0  0  0  0  0  0  0  0  0  0  0
   13.8533  -24.3380    7.9375 C   0  0  2  0  0  0  0  0  0  0  0  0
   14.0637  -25.7952    7.7191 N   0  0  0  0  0  0  0  0  0  0  0  0
   13.3407  -27.7341    9.0736 C   0  0  1  0  0  0  0  0  0  0  0  0
   14.3520  -28.4302    9.8434 O   0  0  0  0  0  0  0  0  0  0  0  0
   10.2397  -28.3225    2.6547 C   0  0  0  0  0  0  0  0  0  0  0  0
    8.6142  -23.8310    0.2596 C   0  0  2  0  0  0  0  0  0  0  0  0
    8.7200  -24.5620   -1.0117 N   0  0  0  0  0  0  0  0  0  0  0  0
   11.0153  -23.7895    5.6204 C   0  0  2  0  0  0  0  0  0  0  0  0
   12.0745  -24.3981    6.3078 O   0  0  0  0  0  0  0  0  0  0  0  0
   14.1715  -23.8048    9.4293 C   0  0  1  0  0  0  0  0  0  0  0  0
   13.9283  -22.3866    9.4552 O   0  0  0  0  0  0  0  0  0  0  0  0
   12.7480  -28.7321    8.0423 C   0  0  1  0  0  0  0  0  0  0  0  0
   12.8115  -30.0457    8.6123 O   0  0  0  0  0  0  0  0  0  0  0  0
   11.7001  -28.5695    2.1537 C   0  0  2  0  0  0  0  0  0  0  0  0
   12.5553  -28.8667    3.2530 O   0  0  0  0  0  0  0  0  0  0  0  0
    8.5722  -24.8304    1.4491 C   0  0  2  0  0  0  0  0  0  0  0  0
    9.8682  -23.6810    6.6532 C   0  0  2  0  0  0  0  0  0  0  0  0
    8.7831  -24.2959    5.9736 O   0  0  0  0  0  0  0  0  0  0  0  0
   13.1820  -24.4605   10.5272 C   0  0  2  0  0  0  0  0  0  0  0  0
   13.4718  -25.8702   10.4780 O   0  0  0  0  0  0  0  0  0  0  0  0
   11.2963  -28.4570    7.5867 C   0  0  2  0  0  0  0  0  0  0  0  0
   11.2771  -28.7113    6.1650 O   0  0  0  0  0  0  0  0  0  0  0  0
   12.2132  -27.3031    1.4102 C   0  0  2  0  0  0  0  0  0  0  0  0
   11.3091  -27.0396    0.2688 O   0  0  0  0  0  0  0  0  0  0  0  0
    8.4258  -24.1202    2.8294 C   0  0  2  0  0  0  0  0  0  0  0  0
    8.3538  -25.1506    3.8440 O   0  0  0  0  0  0  0  0  0  0  0  0
    9.4599  -22.2585    7.0194 C   0  0  0  0  0  0  0  0  0  0  0  0
    8.3131  -22.3576    7.8775 O   0  0  0  0  0  0  0  0  0  0  0  0
   11.7780  -24.2372    9.9978 C   0  0  1  0  0  0  0  0  0  0  0  0
   11.3617  -24.4972    8.6409 O   0  0  0  0  0  0  0  0  0  0  0  0
   10.8637  -27.0416    7.9596 C   0  0  2  0  0  0  0  0  0  0  0  0
   11.0829  -26.6847    9.3525 O   0  0  0  0  0  0  0  0  0  0  0  0
   13.5968  -27.4882    0.8730 C   0  0  0  0  0  0  0  0  0  0  0  0
   14.0347  -26.2557    0.3683 O   0  0  0  0  0  0  0  0  0  0  0  0
    7.1391  -23.2164    2.8383 C   0  0  1  0  0  0  0  0  0  0  0  0
    7.0626  -22.5249    4.1326 O   0  0  0  0  0  0  0  0  0  0  0  0
   10.6645  -24.8533   10.9170 C   0  0  0  0  0  0  0  0  0  0  0  0
    9.3609  -24.1524   10.8233 N   0  0  0  0  0  0  0  0  0  0  0  0
    9.4691  -26.5105    7.6356 C   0  0  0  0  0  0  0  0  0  0  0  0
    8.4482  -27.4483    8.0970 O   0  0  0  0  0  0  0  0  0  0  0  0
  1  2  1  1  0  0  0
  1  8  1  0  0  0  0
  1 36  1  0  0  0  0
  3  4  1  6  0  0  0
  3 10  1  0  0  0  0
  3 47  1  0  0  0  0
  5 11  1  0  0  0  0
  5 30  1  0  0  0  0
  5 38  1  6  0  0  0
  6 21  1  6  0  0  0
  6 42  1  0  0  0  0
  7 15  1  0  0  0  0
  7 44  1  0  0  0  0
  7 32  1  6  0  0  0
  8  9  1  1  0  0  0
  8 17  1  0  0  0  0
 11 12  1  1  0  0  0
 11 20  1  0  0  0  0
 13  6  1  0  0  0  0
 13 14  1  1  0  0  0
 15 16  1  1  0  0  0
 15 24  1  0  0  0  0
 17 26  1  0  0  0  0
 18 10  1  0  0  0  0
 18 19  1  6  0  0  0
 20 21  1  1  0  0  0
 20 29  1  0  0  0  0
 22 13  1  0  0  0  0
 22 23  1  6  0  0  0
 24 25  1  1  0  0  0
 24 33  1  0  0  0  0
 26 27  1  1  0  0  0
 26 35  1  0  0  0  0
 28  2  1  1  0  0  0
 28 18  1  0  0  0  0
 29 30  1  0  0  0  0
 29 39  1  6  0  0  0
 31 22  1  0  0  0  0
 31 32  1  6  0  0  0
 31 41  1  0  0  0  0
 33 34  1  6  0  0  0
 33 43  1  0  0  0  0
 35 36  1  0  0  0  0
 35 45  1  6  0  0  0
 37 28  1  0  0  0  0
 37 38  1  1  0  0  0
 39 40  1  0  0  0  0
 41 42  1  0  0  0  0
 41 49  1  1  0  0  0
 43 44  1  0  0  0  0
 43 51  1  1  0  0  0
 45 46  1  0  0  0  0
 47 37  1  0  0  0  0
 47 48  1  1  0  0  0
 49 50  1  0  0  0  0
 51 52  1  0  0  0  0
M  END
>  <CHROM.1>
-83.05191142,-34.75914813,-158.79292796,132.44681338,-161.86613638,-86.61475717
174.57313730,-117.87702352,-172.92489361,126.02173857,152.54477587,50.64969261
10.72679741,-25.56082984,5.47076525,-2.17111859,-0.85183897,1.19274753

>  <Name>
2fd0_lig

>  <RI>
0

>  <Rbt.Current_Directory>
/home/itssahil/PROJECTS/Mol_Feturizer/New_Systems/rnas/2fd0

>  <Rbt.Executable>
rbdock ($Id: //depot/dev/client3/rdock/2013.1/src/exe/rbdock.cxx#4 $)

>  <Rbt.Library>
libRbt.so (2013.1, Build901 2013/11/27)

>  <Rbt.Parameter_File>
/export/apps/rDock/src/rDock_2013.1_src/data/scripts/dock_solv.prm

>  <Rbt.Receptor>
prm/blind_docking_40.prm

>  <SCORE>
38.8859

>  <SCORE.INTER>
-6.6137

>  <SCORE.INTER.CONST>
1

>  <SCORE.INTER.POLAR>
-0.853235

>  <SCORE.INTER.ROT>
12

>  <SCORE.INTER.SOLV>
18.2976

>  <SCORE.INTER.VDW>
-19.2642

>  <SCORE.INTER.norm>
-0.127187

>  <SCORE.INTRA>
22.6179

>  <SCORE.INTRA.DIHEDRAL>
11.517

>  <SCORE.INTRA.DIHEDRAL.0>
23.9727

>  <SCORE.INTRA.POLAR>
0

>  <SCORE.INTRA.POLAR.0>
0

>  <SCORE.INTRA.REPUL>
0

>  <SCORE.INTRA.REPUL.0>
0

>  <SCORE.INTRA.SOLV>
8.18641

>  <SCORE.INTRA.SOLV.lig_0>
-115.028

>  <SCORE.INTRA.VDW>
12.7662

>  <SCORE.INTRA.VDW.0>
-6.82393

>  <SCORE.INTRA.norm>
0.434959

>  <SCORE.RESTR>
22.8817

>  <SCORE.RESTR.CAVITY>
22.8817

>  <SCORE.RESTR.norm>
0.440032

>  <SCORE.SYSTEM>
0

>  <SCORE.SYSTEM.CONST>
0

>  <SCORE.SYSTEM.DIHEDRAL>
0

>  <SCORE.SYSTEM.SOLV>
0

>  <SCORE.SYSTEM.norm>
0

>  <SCORE.heavy>
52

>  <SCORE.norm>
0.747805

>  <RMSD>
27.455

$$$$
2fd0_lig
 OpenBabel11021811433D
libRbt.so/2013.1/901 2013/11/27
 52 56  0  0  0  0  0  0  0  0999 V2000
   10.4614  -28.1619   -0.2212 C   0  0  2  0  0  0  0  0  0  0  0  0
   11.0781  -26.8699   -0.3082 O   0  0  0  0  0  0  0  0  0  0  0  0
   14.4970  -27.5340   -2.9086 C   0  0  2  0  0  0  0  0  0  0  0  0
   15.6127  -27.2934   -3.8383 N   0  0  0  0  0  0  0  0  0  0  0  0
   12.8468  -26.3321    1.7376 C   0  0  1  0  0  0  0  0  0  0  0  0
   10.7484  -25.6480    5.1606 C   0  0  1  0  0  0  0  0  0  0  0  0
   10.1562  -25.2013    9.2601 C   0  0  1  0  0  0  0  0  0  0  0  0
    9.3120  -28.0963    0.8494 C   0  0  2  0  0  0  0  0  0  0  0  0
    8.3335  -27.0655    0.5323 N   0  0  0  0  0  0  0  0  0  0  0  0
   13.1298  -27.0225   -3.5427 C   0  0  0  0  0  0  0  0  0  0  0  0
   13.5906  -25.8028    2.9501 C   0  0  2  0  0  0  0  0  0  0  0  0
   14.2426  -26.8636    3.7036 O   0  0  0  0  0  0  0  0  0  0  0  0
   10.3741  -24.1222    5.4628 C   0  0  2  0  0  0  0  0  0  0  0  0
   11.2825  -23.5574    6.4978 N   0  0  0  0  0  0  0  0  0  0  0  0
   10.1173  -24.0676   10.3094 C   0  0  1  0  0  0  0  0  0  0  0  0
    8.8078  -24.0429   10.9295 O   0  0  0  0  0  0  0  0  0  0  0  0
    9.9150  -27.8910    2.2884 C   0  0  0  0  0  0  0  0  0  0  0  0
   11.9149  -27.2955   -2.5333 C   0  0  2  0  0  0  0  0  0  0  0  0
   10.6386  -26.8291   -3.0949 N   0  0  0  0  0  0  0  0  0  0  0  0
   12.5199  -25.0192    3.6903 C   0  0  2  0  0  0  0  0  0  0  0  0
   12.1121  -25.6826    4.8558 O   0  0  0  0  0  0  0  0  0  0  0  0
    8.7986  -24.0740    5.8184 C   0  0  1  0  0  0  0  0  0  0  0  0
    8.0761  -24.6440    4.7120 O   0  0  0  0  0  0  0  0  0  0  0  0
   11.1843  -24.0998   11.4370 C   0  0  1  0  0  0  0  0  0  0  0  0
   10.6202  -24.7907   12.5589 O   0  0  0  0  0  0  0  0  0  0  0  0
   10.9458  -29.0342    2.5627 C   0  0  2  0  0  0  0  0  0  0  0  0
   11.5024  -28.8945    3.8661 O   0  0  0  0  0  0  0  0  0  0  0  0
   12.2008  -26.5759   -1.1857 C   0  0  2  0  0  0  0  0  0  0  0  0
   11.2561  -24.9449    2.8005 C   0  0  2  0  0  0  0  0  0  0  0  0
   11.7092  -25.5029    1.5754 O   0  0  0  0  0  0  0  0  0  0  0  0
    8.4452  -24.9774    7.1120 C   0  0  2  0  0  0  0  0  0  0  0  0
    9.1728  -24.3622    8.1916 O   0  0  0  0  0  0  0  0  0  0  0  0
   12.5359  -24.7578   11.0755 C   0  0  2  0  0  0  0  0  0  0  0  0
   13.5508  -23.9225   11.6746 O   0  0  0  0  0  0  0  0  0  0  0  0
   12.0758  -28.9791    1.4951 C   0  0  2  0  0  0  0  0  0  0  0  0
   11.4587  -29.1442    0.1605 O   0  0  0  0  0  0  0  0  0  0  0  0
   13.5600  -27.0008   -0.5509 C   0  0  2  0  0  0  0  0  0  0  0  0
   13.7308  -26.2352    0.6660 O   0  0  0  0  0  0  0  0  0  0  0  0
   10.7414  -23.5366    2.5242 C   0  0  0  0  0  0  0  0  0  0  0  0
   11.4797  -22.6447    3.3731 O   0  0  0  0  0  0  0  0  0  0  0  0
    9.0506  -26.3409    6.8366 C   0  0  1  0  0  0  0  0  0  0  0  0
   10.3905  -26.5603    6.3481 O   0  0  0  0  0  0  0  0  0  0  0  0
   12.6846  -24.9102    9.5642 C   0  0  2  0  0  0  0  0  0  0  0  0
   11.5612  -25.5561    8.9037 O   0  0  0  0  0  0  0  0  0  0  0  0
   13.0789  -30.0729    1.6810 C   0  0  0  0  0  0  0  0  0  0  0  0
   13.7273  -29.8633    2.9063 O   0  0  0  0  0  0  0  0  0  0  0  0
   14.7346  -26.7380   -1.5628 C   0  0  1  0  0  0  0  0  0  0  0  0
   15.9895  -27.1974   -0.9516 O   0  0  0  0  0  0  0  0  0  0  0  0
    8.8485  -27.3574    8.0157 C   0  0  0  0  0  0  0  0  0  0  0  0
    9.6676  -28.5871    7.8876 N   0  0  0  0  0  0  0  0  0  0  0  0
   13.9237  -25.5413    8.9331 C   0  0  0  0  0  0  0  0  0  0  0  0
   14.2627  -26.7878    9.6155 O   0  0  0  0  0  0  0  0  0  0  0  0
  1  2  1  1  0  0  0
  1  8  1  0  0  0  0
  1 36  1  0  0  0  0
  3  4  1  6  0  0  0
  3 10  1  0  0  0  0
  3 47  1  0  0  0  0
  5 11  1  0  0  0  0
  5 30  1  0  0  0  0
  5 38  1  6  0  0  0
  6 21  1  1  0  0  0
  6 42  1  0  0  0  0
  7 15  1  0  0  0  0
  7 44  1  0  0  0  0
  7 32  1  6  0  0  0
  8  9  1  6  0  0  0
  8 17  1  0  0  0  0
 11 12  1  1  0  0  0
 11 20  1  0  0  0  0
 13  6  1  0  0  0  0
 13 14  1  1  0  0  0
 15 16  1  1  0  0  0
 15 24  1  0  0  0  0
 17 26  1  0  0  0  0
 18 10  1  0  0  0  0
 18 19  1  6  0  0  0
 20 21  1  1  0  0  0
 20 29  1  0  0  0  0
 22 13  1  0  0  0  0
 22 23  1  6  0  0  0
 24 25  1  1  0  0  0
 24 33  1  0  0  0  0
 26 27  1  1  0  0  0
 26 35  1  0  0  0  0
 28  2  1  1  0  0  0
 28 18  1  0  0  0  0
 29 30  1  0  0  0  0
 29 39  1  6  0  0  0
 31 22  1  0  0  0  0
 31 32  1  1  0  0  0
 31 41  1  0  0  0  0
 33 34  1  6  0  0  0
 33 43  1  0  0  0  0
 35 36  1  0  0  0  0
 35 45  1  1  0  0  0
 37 28  1  0  0  0  0
 37 38  1  1  0  0  0
 39 40  1  0  0  0  0
 41 42  1  0  0  0  0
 41 49  1  1  0  0  0
 43 44  1  0  0  0  0
 43 51  1  1  0  0  0
 45 46  1  0  0  0  0
 47 37  1  0  0  0  0
 47 48  1  1  0  0  0
 49 50  1  0  0  0  0
 51 52  1  0  0  0  0
M  END
>  <CHROM.1>
178.76286647,160.40405448,-65.07880364,-160.82580660,-140.56081017,41.18884858
-9.25181692,-130.48086002,-64.82117034,61.68544280,-167.91250964,47.33964783
11.60599613,-26.22933296,4.09398125,1.39926957,0.13559411,-1.77325543

>  <Name>
2fd0_lig

>  <RI>
0

>  <Rbt.Current_Directory>
/home/itssahil/PROJECTS/Mol_Feturizer/New_Systems/rnas/2fd0

>  <Rbt.Executable>
rbdock ($Id: //depot/dev/client3/rdock/2013.1/src/exe/rbdock.cxx#4 $)

>  <Rbt.Library>
libRbt.so (2013.1, Build901 2013/11/27)

>  <Rbt.Parameter_File>
/export/apps/rDock/src/rDock_2013.1_src/data/scripts/dock_solv.prm

>  <Rbt.Receptor>
prm/blind_docking_40.prm

>  <SCORE>
29.3994

>  <SCORE.INTER>
-2.43367

>  <SCORE.INTER.CONST>
1

>  <SCORE.INTER.POLAR>
-0.323667

>  <SCORE.INTER.ROT>
12

>  <SCORE.INTER.SOLV>
22.0127

>  <SCORE.INTER.VDW>
-19.4811

>  <SCORE.INTER.norm>
-0.0468013

>  <SCORE.INTRA>
13.9862

>  <SCORE.INTRA.DIHEDRAL>
0.0466886

>  <SCORE.INTRA.DIHEDRAL.0>
23.9727

>  <SCORE.INTRA.POLAR>
0

>  <SCORE.INTRA.POLAR.0>
0

>  <SCORE.INTRA.REPUL>
0.333085

>  <SCORE.INTRA.REPUL.0>
0

>  <SCORE.INTRA.SOLV>
4.75036

>  <SCORE.INTRA.SOLV.lig_0>
-115.028

>  <SCORE.INTRA.VDW>
9.92223

>  <SCORE.INTRA.VDW.0>
-6.82393

>  <SCORE.INTRA.norm>
0.268965

>  <SCORE.RESTR>
17.8469

>  <SCORE.RESTR.CAVITY>
17.8469

>  <SCORE.RESTR.norm>
0.343209

>  <SCORE.SYSTEM>
0

>  <SCORE.SYSTEM.CONST>
0

>  <SCORE.SYSTEM.DIHEDRAL>
0

>  <SCORE.SYSTEM.SOLV>
0

>  <SCORE.SYSTEM.norm>
0

>  <SCORE.heavy>
52

>  <SCORE.norm>
0.565372

>  <RMSD>
27.470

$$$$
2fd0_lig
 OpenBabel11021811433D
libRbt.so/2013.1/901 2013/11/27
 52 56  0  0  0  0  0  0  0  0999 V2000
   14.4658  -27.8408    0.6136 C   0  0  2  0  0  0  0  0  0  0  0  0
   13.5962  -27.0016    1.3860 O   0  0  0  0  0  0  0  0  0  0  0  0
   11.0716  -29.7820    3.5741 C   0  0  2  0  0  0  0  0  0  0  0  0
   10.1979  -30.3579    4.6095 N   0  0  0  0  0  0  0  0  0  0  0  0
   10.1377  -25.7024    2.0676 C   0  0  1  0  0  0  0  0  0  0  0  0
    9.4201  -23.5796    4.5126 C   0  0  1  0  0  0  0  0  0  0  0  0
   10.2467  -25.0530    9.1521 C   0  0  1  0  0  0  0  0  0  0  0  0
   14.7793  -27.1183   -0.7469 C   0  0  2  0  0  0  0  0  0  0  0  0
   15.3654  -25.8014   -0.5393 N   0  0  0  0  0  0  0  0  0  0  0  0
   12.4585  -29.3299    4.2108 C   0  0  0  0  0  0  0  0  0  0  0  0
   11.2737  -24.8202    2.5522 C   0  0  2  0  0  0  0  0  0  0  0  0
   11.7809  -25.2380    3.8508 O   0  0  0  0  0  0  0  0  0  0  0  0
    8.8899  -22.5406    5.6074 C   0  0  2  0  0  0  0  0  0  0  0  0
   10.0263  -21.9805    6.3885 N   0  0  0  0  0  0  0  0  0  0  0  0
   10.1993  -24.0126   10.2936 C   0  0  1  0  0  0  0  0  0  0  0  0
    8.8677  -23.9989   10.8650 O   0  0  0  0  0  0  0  0  0  0  0  0
   13.4825  -27.0351   -1.6345 C   0  0  0  0  0  0  0  0  0  0  0  0
   13.4123  -28.7135    3.0796 C   0  0  2  0  0  0  0  0  0  0  0  0
   14.7011  -28.2849    3.6428 N   0  0  0  0  0  0  0  0  0  0  0  0
   10.6729  -23.4262    2.4872 C   0  0  2  0  0  0  0  0  0  0  0  0
   10.4039  -22.9232    3.7676 O   0  0  0  0  0  0  0  0  0  0  0  0
    7.7530  -23.2929    6.4748 C   0  0  1  0  0  0  0  0  0  0  0  0
    6.7356  -23.7548    5.5678 O   0  0  0  0  0  0  0  0  0  0  0  0
   11.2196  -24.1755   11.4527 C   0  0  1  0  0  0  0  0  0  0  0  0
   10.5920  -24.9414   12.4889 O   0  0  0  0  0  0  0  0  0  0  0  0
   12.9157  -28.4801   -1.8224 C   0  0  2  0  0  0  0  0  0  0  0  0
   11.7484  -28.4502   -2.6377 O   0  0  0  0  0  0  0  0  0  0  0  0
   12.6947  -27.5088    2.4092 C   0  0  2  0  0  0  0  0  0  0  0  0
    9.2962  -23.5122    1.7858 C   0  0  2  0  0  0  0  0  0  0  0  0
    9.2629  -24.8597    1.3379 O   0  0  0  0  0  0  0  0  0  0  0  0
    8.3338  -24.6049    7.2202 C   0  0  2  0  0  0  0  0  0  0  0  0
    9.3309  -24.0943    8.1251 O   0  0  0  0  0  0  0  0  0  0  0  0
   12.5648  -24.8434   11.0855 C   0  0  2  0  0  0  0  0  0  0  0  0
   13.5790  -24.0956   11.7917 O   0  0  0  0  0  0  0  0  0  0  0  0
   12.5752  -29.0874   -0.4314 C   0  0  2  0  0  0  0  0  0  0  0  0
   13.8148  -29.1156    0.3762 O   0  0  0  0  0  0  0  0  0  0  0  0
   11.3021  -27.8877    1.8192 C   0  0  2  0  0  0  0  0  0  0  0  0
   10.7200  -26.6823    1.2677 O   0  0  0  0  0  0  0  0  0  0  0  0
    9.1289  -22.6006    0.5752 C   0  0  0  0  0  0  0  0  0  0  0  0
    7.8448  -21.9702    0.6976 O   0  0  0  0  0  0  0  0  0  0  0  0
    9.0293  -25.4140    6.1417 C   0  0  1  0  0  0  0  0  0  0  0  0
    9.9459  -24.8689    5.1696 O   0  0  0  0  0  0  0  0  0  0  0  0
   12.7685  -24.8706    9.5731 C   0  0  2  0  0  0  0  0  0  0  0  0
   11.6538  -25.4211    8.8182 O   0  0  0  0  0  0  0  0  0  0  0  0
   12.0601  -30.4874   -0.5397 C   0  0  0  0  0  0  0  0  0  0  0  0
   12.3290  -31.1434    0.6698 O   0  0  0  0  0  0  0  0  0  0  0  0
   10.3890  -28.5032    2.9418 C   0  0  1  0  0  0  0  0  0  0  0  0
    9.1073  -28.8949    2.3392 O   0  0  0  0  0  0  0  0  0  0  0  0
    9.7054  -26.7213    6.6877 C   0  0  0  0  0  0  0  0  0  0  0  0
    8.9315  -27.3862    7.7639 N   0  0  0  0  0  0  0  0  0  0  0  0
   14.0127  -25.4850    8.9356 C   0  0  0  0  0  0  0  0  0  0  0  0
   14.3114  -26.7778    9.5471 O   0  0  0  0  0  0  0  0  0  0  0  0
  1  2  1  1  0  0  0
  1  8  1  0  0  0  0
  1 36  1  0  0  0  0
  3  4  1  1  0  0  0
  3 10  1  0  0  0  0
  3 47  1  0  0  0  0
  5 11  1  0  0  0  0
  5 30  1  0  0  0  0
  5 38  1  6  0  0  0
  6 21  1  1  0  0  0
  6 42  1  0  0  0  0
  7 15  1  0  0  0  0
  7 44  1  0  0  0  0
  7 32  1  6  0  0  0
  8  9  1  1  0  0  0
  8 17  1  0  0  0  0
 11 12  1  1  0  0  0
 11 20  1  0  0  0  0
 13  6  1  0  0  0  0
 13 14  1  1  0  0  0
 15 16  1  1  0  0  0
 15 24  1  0  0  0  0
 17 26  1  0  0  0  0
 18 10  1  0  0  0  0
 18 19  1  1  0  0  0
 20 21  1  1  0  0  0
 20 29  1  0  0  0  0
 22 13  1  0  0  0  0
 22 23  1  6  0  0  0
 24 25  1  1  0  0  0
 24 33  1  0  0  0  0
 26 27  1  6  0  0  0
 26 35  1  0  0  0  0
 28  2  1  6  0  0  0
 28 18  1  0  0  0  0
 29 30  1  0  0  0  0
 29 39  1  6  0  0  0
 31 22  1  0  0  0  0
 31 32  1  1  0  0  0
 31 41  1  0  0  0  0
 33 34  1  1  0  0  0
 33 43  1  0  0  0  0
 35 36  1  0  0  0  0
 35 45  1  6  0  0  0
 37 28  1  0  0  0  0
 37 38  1  1  0  0  0
 39 40  1  0  0  0  0
 41 42  1  0  0  0  0
 41 49  1  1  0  0  0
 43 44  1  0  0  0  0
 43 51  1  1  0  0  0
 45 46  1  0  0  0  0
 47 37  1  0  0  0  0
 47 48  1  6  0  0  0
 49 50  1  0  0  0  0
 51 52  1  0  0  0  0
M  END
>  <CHROM.1>
154.99448270,83.76049592,-157.78470867,-142.15206101,-65.70525850,34.45126548
-134.63774832,179.93182040,154.57504050,-77.38787729,36.78791270,45.65883113
11.16252273,-26.04101610,4.38869360,-1.31022197,-0.83127382,1.41403652

>  <Name>
2fd0_lig

>  <RI>
0

>  <Rbt.Current_Directory>
/home/itssahil/PROJECTS/Mol_Feturizer/New_Systems/rnas/2fd0

>  <Rbt.Executable>
rbdock ($Id: //depot/dev/client3/rdock/2013.1/src/exe/rbdock.cxx#4 $)

>  <Rbt.Library>
libRbt.so (2013.1, Build901 2013/11/27)

>  <Rbt.Parameter_File>
/export/apps/rDock/src/rDock_2013.1_src/data/scripts/dock_solv.prm

>  <Rbt.Receptor>
prm/blind_docking_40.prm

>  <SCORE>
29.7016

>  <SCORE.INTER>
6.6243

>  <SCORE.INTER.CONST>
1

>  <SCORE.INTER.POLAR>
-0.277873

>  <SCORE.INTER.ROT>
12

>  <SCORE.INTER.SOLV>
36.3531

>  <SCORE.INTER.VDW>
-18.3752

>  <SCORE.INTER.norm>
0.12739

>  <SCORE.INTRA>
7.56813

>  <SCORE.INTRA.DIHEDRAL>
2.44235

>  <SCORE.INTRA.DIHEDRAL.0>
23.9727

>  <SCORE.INTRA.POLAR>
0

>  <SCORE.INTRA.POLAR.0>
0

>  <SCORE.INTRA.REPUL>
0

>  <SCORE.INTRA.REPUL.0>
0

>  <SCORE.INTRA.SOLV>
0.461503

>  <SCORE.INTRA.SOLV.lig_0>
-115.028

>  <SCORE.INTRA.VDW>
6.1162

>  <SCORE.INTRA.VDW.0>
-6.82393

>  <SCORE.INTRA.norm>
0.145541

>  <SCORE.RESTR>
15.5091

>  <SCORE.RESTR.CAVITY>
15.5091

>  <SCORE.RESTR.norm>
0.298253

>  <SCORE.SYSTEM>
0

>  <SCORE.SYSTEM.CONST>
0

>  <SCORE.SYSTEM.DIHEDRAL>
0

>  <SCORE.SYSTEM.SOLV>
0

>  <SCORE.SYSTEM.norm>
0

>  <SCORE.heavy>
52

>  <SCORE.norm>
0.571184

>  <RMSD>
27.491

$$$$
2fd0_lig
 OpenBabel11021811433D
libRbt.so/2013.1/901 2013/11/27
 52 56  0  0  0  0  0  0  0  0999 V2000
   10.4501  -26.9578   -0.4372 C   0  0  2  0  0  0  0  0  0  0  0  0
   11.5660  -26.1304   -0.0806 O   0  0  0  0  0  0  0  0  0  0  0  0
   14.9928  -28.4089   -1.4799 C   0  0  2  0  0  0  0  0  0  0  0  0
   16.3587  -28.7611   -1.9011 N   0  0  0  0  0  0  0  0  0  0  0  0
   12.3673  -26.7775    2.5431 C   0  0  1  0  0  0  0  0  0  0  0  0
   11.1477  -26.6347    6.6625 C   0  0  1  0  0  0  0  0  0  0  0  0
   10.0922  -23.8383    9.0045 C   0  0  1  0  0  0  0  0  0  0  0  0
    9.1503  -26.0735   -0.4324 C   0  0  2  0  0  0  0  0  0  0  0  0
    9.2676  -24.9318   -1.3288 N   0  0  0  0  0  0  0  0  0  0  0  0
   14.4202  -27.2348   -2.3891 C   0  0  0  0  0  0  0  0  0  0  0  0
   12.7367  -26.8190    4.0146 C   0  0  2  0  0  0  0  0  0  0  0  0
   12.5331  -28.1370    4.5974 O   0  0  0  0  0  0  0  0  0  0  0  0
    9.7598  -26.9850    7.3771 C   0  0  2  0  0  0  0  0  0  0  0  0
    8.8259  -25.8287    7.2981 N   0  0  0  0  0  0  0  0  0  0  0  0
    8.8078  -23.2542    9.6345 C   0  0  1  0  0  0  0  0  0  0  0  0
    9.0674  -22.9322   11.0233 O   0  0  0  0  0  0  0  0  0  0  0  0
    8.8030  -25.6181    1.0334 C   0  0  0  0  0  0  0  0  0  0  0  0
   12.9289  -26.8605   -1.9359 C   0  0  2  0  0  0  0  0  0  0  0  0
   12.3768  -25.7749   -2.7596 N   0  0  0  0  0  0  0  0  0  0  0  0
   11.9061  -25.6923    4.6054 C   0  0  2  0  0  0  0  0  0  0  0  0
   10.8433  -26.1869    5.3739 O   0  0  0  0  0  0  0  0  0  0  0  0
   10.1032  -27.5016    8.8692 C   0  0  1  0  0  0  0  0  0  0  0  0
   11.0001  -28.6213    8.7559 O   0  0  0  0  0  0  0  0  0  0  0  0
    8.1843  -22.0034    8.9580 C   0  0  1  0  0  0  0  0  0  0  0  0
    8.7096  -20.8405    9.6108 O   0  0  0  0  0  0  0  0  0  0  0  0
    8.6837  -26.8909    1.9337 C   0  0  2  0  0  0  0  0  0  0  0  0
    8.3513  -26.5218    3.2684 O   0  0  0  0  0  0  0  0  0  0  0  0
   12.9412  -26.4426   -0.4390 C   0  0  2  0  0  0  0  0  0  0  0  0
   11.2420  -24.9074    3.4489 C   0  0  2  0  0  0  0  0  0  0  0  0
   11.8474  -25.4821    2.2997 O   0  0  0  0  0  0  0  0  0  0  0  0
   10.8797  -26.3765    9.7324 C   0  0  2  0  0  0  0  0  0  0  0  0
    9.9421  -25.2883    9.8338 O   0  0  0  0  0  0  0  0  0  0  0  0
    8.4165  -21.8671    7.4355 C   0  0  2  0  0  0  0  0  0  0  0  0
    7.1626  -21.4040    6.8880 O   0  0  0  0  0  0  0  0  0  0  0  0
   10.0334  -27.6641    1.9181 C   0  0  2  0  0  0  0  0  0  0  0  0
   10.3327  -28.0425    0.5193 O   0  0  0  0  0  0  0  0  0  0  0  0
   13.5479  -27.5390    0.4889 C   0  0  2  0  0  0  0  0  0  0  0  0
   13.5448  -27.0172    1.8394 O   0  0  0  0  0  0  0  0  0  0  0  0
   11.5223  -23.4088    3.4395 C   0  0  0  0  0  0  0  0  0  0  0  0
   10.6237  -22.8186    2.4880 O   0  0  0  0  0  0  0  0  0  0  0  0
   12.0452  -25.9310    8.8695 C   0  0  1  0  0  0  0  0  0  0  0  0
   11.9488  -25.5964    7.4692 O   0  0  0  0  0  0  0  0  0  0  0  0
    8.8956  -23.1854    6.8339 C   0  0  2  0  0  0  0  0  0  0  0  0
   10.0308  -23.7886    7.5143 O   0  0  0  0  0  0  0  0  0  0  0  0
    9.9739  -28.9157    2.7348 C   0  0  0  0  0  0  0  0  0  0  0  0
   11.2536  -29.4885    2.7447 O   0  0  0  0  0  0  0  0  0  0  0  0
   15.0038  -27.9006    0.0177 C   0  0  1  0  0  0  0  0  0  0  0  0
   15.5222  -28.9707    0.8811 O   0  0  0  0  0  0  0  0  0  0  0  0
   12.9032  -24.7929    9.5277 C   0  0  0  0  0  0  0  0  0  0  0  0
   14.2196  -24.5882    8.8761 N   0  0  0  0  0  0  0  0  0  0  0  0
    9.2114  -23.3282    5.3466 C   0  0  0  0  0  0  0  0  0  0  0  0
    8.1291  -22.7675    4.5412 O   0  0  0  0  0  0  0  0  0  0  0  0
  1  2  1  1  0  0  0
  1  8  1  0  0  0  0
  1 36  1  0  0  0  0
  3  4  1  6  0  0  0
  3 10  1  0  0  0  0
  3 47  1  0  0  0  0
  5 11  1  0  0  0  0
  5 30  1  0  0  0  0
  5 38  1  6  0  0  0
  6 21  1  6  0  0  0
  6 42  1  0  0  0  0
  7 15  1  0  0  0  0
  7 44  1  0  0  0  0
  7 32  1  6  0  0  0
  8  9  1  6  0  0  0
  8 17  1  0  0  0  0
 11 12  1  1  0  0  0
 11 20  1  0  0  0  0
 13  6  1  0  0  0  0
 13 14  1  1  0  0  0
 15 16  1  1  0  0  0
 15 24  1  0  0  0  0
 17 26  1  0  0  0  0
 18 10  1  0  0  0  0
 18 19  1  6  0  0  0
 20 21  1  1  0  0  0
 20 29  1  0  0  0  0
 22 13  1  0  0  0  0
 22 23  1  6  0  0  0
 24 25  1  1  0  0  0
 24 33  1  0  0  0  0
 26 27  1  1  0  0  0
 26 35  1  0  0  0  0
 28  2  1  1  0  0  0
 28 18  1  0  0  0  0
 29 30  1  0  0  0  0
 29 39  1  1  0  0  0
 31 22  1  0  0  0  0
 31 32  1  6  0  0  0
 31 41  1  0  0  0  0
 33 34  1  6  0  0  0
 33 43  1  0  0  0  0
 35 36  1  0  0  0  0
 35 45  1  1  0  0  0
 37 28  1  0  0  0  0
 37 38  1  1  0  0  0
 39 40  1  0  0  0  0
 41 42  1  0  0  0  0
 41 49  1  1  0  0  0
 43 44  1  0  0  0  0
 43 51  1  6  0  0  0
 45 46  1  0  0  0  0
 47 37  1  0  0  0  0
 47 48  1  1  0  0  0
 49 50  1  0  0  0  0
 51 52  1  0  0  0  0
M  END
>  <CHROM.1>
-156.85234625,156.61685861,173.70108026,-178.94238875,78.59167170,45.65854085
-168.40290789,-107.43098802,-175.62143911,67.34330454,165.29327040,-48.11794709
11.03249353,-25.74874658,4.21088025,1.13972457,0.75273819,-1.62009030

>  <Name>
2fd0_lig

>  <RI>
0

>  <Rbt.Current_Directory>
/home/itssahil/PROJECTS/Mol_Feturizer/New_Systems/rnas/2fd0

>  <Rbt.Executable>
rbdock ($Id: //depot/dev/client3/rdock/2013.1/src/exe/rbdock.cxx#4 $)

>  <Rbt.Library>
libRbt.so (2013.1, Build901 2013/11/27)

>  <Rbt.Parameter_File>
/export/apps/rDock/src/rDock_2013.1_src/data/scripts/dock_solv.prm

>  <Rbt.Receptor>
prm/blind_docking_40.prm

>  <SCORE>
30.1229

>  <SCORE.INTER>
4.55315

>  <SCORE.INTER.CONST>
1

>  <SCORE.INTER.POLAR>
-0.830907

>  <SCORE.INTER.ROT>
12

>  <SCORE.INTER.SOLV>
18.3775

>  <SCORE.INTER.VDW>
-11.9207

>  <SCORE.INTER.norm>
0.0875607

>  <SCORE.INTRA>
5.36094

>  <SCORE.INTRA.DIHEDRAL>
-6.93876

>  <SCORE.INTRA.DIHEDRAL.0>
23.9727

>  <SCORE.INTRA.POLAR>
0

>  <SCORE.INTRA.POLAR.0>
0

>  <SCORE.INTRA.REPUL>
0.256949

>  <SCORE.INTRA.REPUL.0>
0

>  <SCORE.INTRA.SOLV>
6.03093

>  <SCORE.INTRA.SOLV.lig_0>
-115.028

>  <SCORE.INTRA.VDW>
4.53011

>  <SCORE.INTRA.VDW.0>
-6.82393

>  <SCORE.INTRA.norm>
0.103095

>  <SCORE.RESTR>
20.2088

>  <SCORE.RESTR.CAVITY>
20.2088

>  <SCORE.RESTR.norm>
0.388631

>  <SCORE.SYSTEM>
0

>  <SCORE.SYSTEM.CONST>
0

>  <SCORE.SYSTEM.DIHEDRAL>
0

>  <SCORE.SYSTEM.SOLV>
0

>  <SCORE.SYSTEM.norm>
0

>  <SCORE.heavy>
52

>  <SCORE.norm>
0.579287

>  <RMSD>
27.528

$$$$
2fd0_lig
 OpenBabel11021811433D
libRbt.so/2013.1/901 2013/11/27
 52 56  0  0  0  0  0  0  0  0999 V2000
   14.2225  -27.9813    0.6549 C   0  0  2  0  0  0  0  0  0  0  0  0
   13.3253  -27.1581    1.4128 O   0  0  0  0  0  0  0  0  0  0  0  0
   11.0858  -29.8934    3.9416 C   0  0  2  0  0  0  0  0  0  0  0  0
   10.3465  -30.4495    5.0867 N   0  0  0  0  0  0  0  0  0  0  0  0
   10.1404  -25.7562    2.4802 C   0  0  1  0  0  0  0  0  0  0  0  0
    9.7953  -22.8894    4.6209 C   0  0  1  0  0  0  0  0  0  0  0  0
    9.7552  -24.6714    8.8992 C   0  0  1  0  0  0  0  0  0  0  0  0
   14.7124  -27.1660   -0.5969 C   0  0  2  0  0  0  0  0  0  0  0  0
   15.3448  -25.9115   -0.2135 N   0  0  0  0  0  0  0  0  0  0  0  0
   12.5424  -29.4382    4.3933 C   0  0  0  0  0  0  0  0  0  0  0  0
   11.4283  -24.9786    2.6803 C   0  0  2  0  0  0  0  0  0  0  0  0
   12.1391  -25.3889    3.8822 O   0  0  0  0  0  0  0  0  0  0  0  0
    9.9433  -21.7219    5.7046 C   0  0  2  0  0  0  0  0  0  0  0  0
   11.1668  -21.9259    6.5274 N   0  0  0  0  0  0  0  0  0  0  0  0
   10.0778  -24.0335   10.2691 C   0  0  1  0  0  0  0  0  0  0  0  0
    8.8375  -23.6706   10.9248 O   0  0  0  0  0  0  0  0  0  0  0  0
   13.5197  -26.9252   -1.5948 C   0  0  0  0  0  0  0  0  0  0  0  0
   13.3494  -28.8434    3.1426 C   0  0  2  0  0  0  0  0  0  0  0  0
   14.6995  -28.4123    3.5340 N   0  0  0  0  0  0  0  0  0  0  0  0
   10.9622  -23.5330    2.6411 C   0  0  2  0  0  0  0  0  0  0  0  0
   10.9998  -22.9471    3.9140 O   0  0  0  0  0  0  0  0  0  0  0  0
    8.5549  -21.6501    6.5280 C   0  0  1  0  0  0  0  0  0  0  0  0
    7.4893  -21.4385    5.5842 O   0  0  0  0  0  0  0  0  0  0  0  0
   10.9234  -24.8707   11.2666 C   0  0  1  0  0  0  0  0  0  0  0  0
   10.0202  -25.5885   12.1170 O   0  0  0  0  0  0  0  0  0  0  0  0
   12.8975  -28.3101   -1.9685 C   0  0  2  0  0  0  0  0  0  0  0  0
   11.8231  -28.1367   -2.8871 O   0  0  0  0  0  0  0  0  0  0  0  0
   12.5570  -27.6456    2.5482 C   0  0  2  0  0  0  0  0  0  0  0  0
    9.4726  -23.5040    2.2231 C   0  0  2  0  0  0  0  0  0  0  0  0
    9.2234  -24.8591    1.8782 O   0  0  0  0  0  0  0  0  0  0  0  0
    8.2298  -23.0424    7.2832 C   0  0  2  0  0  0  0  0  0  0  0  0
    9.3076  -23.2027    8.2246 O   0  0  0  0  0  0  0  0  0  0  0  0
   11.9193  -25.8734   10.6392 C   0  0  2  0  0  0  0  0  0  0  0  0
   13.1219  -25.7800   11.4338 O   0  0  0  0  0  0  0  0  0  0  0  0
   12.3840  -29.0117   -0.6786 C   0  0  2  0  0  0  0  0  0  0  0  0
   13.5310  -29.1874    0.2395 O   0  0  0  0  0  0  0  0  0  0  0  0
   11.1007  -28.0270    2.1424 C   0  0  2  0  0  0  0  0  0  0  0  0
   10.4577  -26.8274    1.6490 O   0  0  0  0  0  0  0  0  0  0  0  0
    9.1579  -22.6352    1.0103 C   0  0  0  0  0  0  0  0  0  0  0  0
   10.0059  -23.0819   -0.0586 O   0  0  0  0  0  0  0  0  0  0  0  0
    8.3500  -24.1207    6.2230 C   0  0  1  0  0  0  0  0  0  0  0  0
    9.4418  -24.2322    5.2861 O   0  0  0  0  0  0  0  0  0  0  0  0
   12.1405  -25.5729    9.1592 C   0  0  2  0  0  0  0  0  0  0  0  0
   10.9222  -25.4403    8.3759 O   0  0  0  0  0  0  0  0  0  0  0  0
   11.8074  -30.3619   -0.9643 C   0  0  0  0  0  0  0  0  0  0  0  0
   10.5990  -30.1810   -1.6518 O   0  0  0  0  0  0  0  0  0  0  0  0
   10.3331  -28.6211    3.3795 C   0  0  1  0  0  0  0  0  0  0  0  0
    8.9852  -29.0161    2.9475 O   0  0  0  0  0  0  0  0  0  0  0  0
    8.1109  -25.5680    6.7821 C   0  0  0  0  0  0  0  0  0  0  0  0
    6.6777  -25.9178    6.9333 N   0  0  0  0  0  0  0  0  0  0  0  0
   13.0714  -26.4182    8.2928 C   0  0  0  0  0  0  0  0  0  0  0  0
   14.3506  -26.6207    8.9690 O   0  0  0  0  0  0  0  0  0  0  0  0
  1  2  1  6  0  0  0
  1  8  1  0  0  0  0
  1 36  1  0  0  0  0
  3  4  1  1  0  0  0
  3 10  1  0  0  0  0
  3 47  1  0  0  0  0
  5 11  1  0  0  0  0
  5 30  1  0  0  0  0
  5 38  1  6  0  0  0
  6 21  1  1  0  0  0
  6 42  1  0  0  0  0
  7 15  1  0  0  0  0
  7 44  1  0  0  0  0
  7 32  1  6  0  0  0
  8  9  1  1  0  0  0
  8 17  1  0  0  0  0
 11 12  1  1  0  0  0
 11 20  1  0  0  0  0
 13  6  1  0  0  0  0
 13 14  1  1  0  0  0
 15 16  1  1  0  0  0
 15 24  1  0  0  0  0
 17 26  1  0  0  0  0
 18 10  1  0  0  0  0
 18 19  1  1  0  0  0
 20 21  1  1  0  0  0
 20 29  1  0  0  0  0
 22 13  1  0  0  0  0
 22 23  1  6  0  0  0
 24 25  1  1  0  0  0
 24 33  1  0  0  0  0
 26 27  1  6  0  0  0
 26 35  1  0  0  0  0
 28  2  1  6  0  0  0
 28 18  1  0  0  0  0
 29 30  1  0  0  0  0
 29 39  1  6  0  0  0
 31 22  1  0  0  0  0
 31 32  1  1  0  0  0
 31 41  1  0  0  0  0
 33 34  1  1  0  0  0
 33 43  1  0  0  0  0
 35 36  1  0  0  0  0
 35 45  1  6  0  0  0
 37 28  1  0  0  0  0
 37 38  1  1  0  0  0
 39 40  1  0  0  0  0
 41 42  1  0  0  0  0
 41 49  1  1  0  0  0
 43 44  1  0  0  0  0
 43 51  1  6  0  0  0
 45 46  1  0  0  0  0
 47 37  1  0  0  0  0
 47 48  1  6  0  0  0
 49 50  1  0  0  0  0
 51 52  1  0  0  0  0
M  END
>  <CHROM.1>
172.37776496,79.56544015,-157.93870849,-143.08392588,-98.64713244,26.23531788
54.92038981,-158.84576162,-70.32952794,-68.77201449,80.54445419,-47.87880553
11.05256814,-25.92716517,4.33752546,-1.17039799,-0.97162968,1.52677425

>  <Name>
2fd0_lig

>  <RI>
0

>  <Rbt.Current_Directory>
/home/itssahil/PROJECTS/Mol_Feturizer/New_Systems/rnas/2fd0

>  <Rbt.Executable>
rbdock ($Id: //depot/dev/client3/rdock/2013.1/src/exe/rbdock.cxx#4 $)

>  <Rbt.Library>
libRbt.so (2013.1, Build901 2013/11/27)

>  <Rbt.Parameter_File>
/export/apps/rDock/src/rDock_2013.1_src/data/scripts/dock_solv.prm

>  <Rbt.Receptor>
prm/blind_docking_40.prm

>  <SCORE>
64.118

>  <SCORE.INTER>
37.0989

>  <SCORE.INTER.CONST>
1

>  <SCORE.INTER.POLAR>
-0.608381

>  <SCORE.INTER.ROT>
12

>  <SCORE.INTER.SOLV>
39.2949

>  <SCORE.INTER.VDW>
2.06223

>  <SCORE.INTER.norm>
0.713441

>  <SCORE.INTRA>
9.40132

>  <SCORE.INTRA.DIHEDRAL>
0.151991

>  <SCORE.INTRA.DIHEDRAL.0>
23.9727

>  <SCORE.INTRA.POLAR>
0

>  <SCORE.INTRA.POLAR.0>
0

>  <SCORE.INTRA.REPUL>
0

>  <SCORE.INTRA.REPUL.0>
0

>  <SCORE.INTRA.SOLV>
-1.59024

>  <SCORE.INTRA.SOLV.lig_0>
-115.028

>  <SCORE.INTRA.VDW>
10.1204

>  <SCORE.INTRA.VDW.0>
-6.82393

>  <SCORE.INTRA.norm>
0.180795

>  <SCORE.RESTR>
17.6178

>  <SCORE.RESTR.CAVITY>
17.6178

>  <SCORE.RESTR.norm>
0.338803

>  <SCORE.SYSTEM>
0

>  <SCORE.SYSTEM.CONST>
0

>  <SCORE.SYSTEM.DIHEDRAL>
0

>  <SCORE.SYSTEM.SOLV>
0

>  <SCORE.SYSTEM.norm>
0

>  <SCORE.heavy>
52

>  <SCORE.norm>
1.23304

>  <RMSD>
27.553

$$$$
2fd0_lig
 OpenBabel11021811433D
libRbt.so/2013.1/901 2013/11/27
 52 56  0  0  0  0  0  0  0  0999 V2000
   13.6806  -28.7231   -0.2157 C   0  0  2  0  0  0  0  0  0  0  0  0
   13.9771  -28.0626    1.0223 O   0  0  0  0  0  0  0  0  0  0  0  0
   11.1484  -29.8508    3.7960 C   0  0  2  0  0  0  0  0  0  0  0  0
   10.4727  -30.2422    5.0439 N   0  0  0  0  0  0  0  0  0  0  0  0
   10.9171  -25.5674    2.6935 C   0  0  1  0  0  0  0  0  0  0  0  0
    9.1142  -23.4551    4.5167 C   0  0  1  0  0  0  0  0  0  0  0  0
   10.2029  -25.1286    9.1274 C   0  0  1  0  0  0  0  0  0  0  0  0
   14.4697  -28.0022   -1.3686 C   0  0  2  0  0  0  0  0  0  0  0  0
   15.9032  -27.9801   -1.1132 N   0  0  0  0  0  0  0  0  0  0  0  0
   12.6624  -30.3413    3.8106 C   0  0  0  0  0  0  0  0  0  0  0  0
   11.6080  -24.2830    3.1136 C   0  0  2  0  0  0  0  0  0  0  0  0
   11.9726  -24.2882    4.5226 O   0  0  0  0  0  0  0  0  0  0  0  0
    8.5145  -22.5667    5.7043 C   0  0  2  0  0  0  0  0  0  0  0  0
    9.6106  -21.9268    6.4819 N   0  0  0  0  0  0  0  0  0  0  0  0
   10.1561  -24.0479   10.2308 C   0  0  1  0  0  0  0  0  0  0  0  0
    8.8342  -24.0361   10.8243 O   0  0  0  0  0  0  0  0  0  0  0  0
   13.9051  -26.5508   -1.5943 C   0  0  0  0  0  0  0  0  0  0  0  0
   13.3929  -29.9238    2.4462 C   0  0  2  0  0  0  0  0  0  0  0  0
   14.7959  -30.3635    2.4352 N   0  0  0  0  0  0  0  0  0  0  0  0
   10.6220  -23.2101    2.6832 C   0  0  2  0  0  0  0  0  0  0  0  0
    9.9774  -22.6334    3.7862 O   0  0  0  0  0  0  0  0  0  0  0  0
    7.5167  -23.5105    6.5554 C   0  0  1  0  0  0  0  0  0  0  0  0
    6.5212  -24.0299    5.6552 O   0  0  0  0  0  0  0  0  0  0  0  0
   11.1984  -24.1503   11.3771 C   0  0  1  0  0  0  0  0  0  0  0  0
   10.6021  -24.8883   12.4513 O   0  0  0  0  0  0  0  0  0  0  0  0
   12.3696  -26.6526   -1.8710 C   0  0  2  0  0  0  0  0  0  0  0  0
   11.8224  -25.3577   -2.0993 O   0  0  0  0  0  0  0  0  0  0  0  0
   13.3149  -28.3806    2.2783 C   0  0  2  0  0  0  0  0  0  0  0  0
    9.4964  -23.8752    1.8554 C   0  0  2  0  0  0  0  0  0  0  0  0
    9.9718  -25.2048    1.7021 O   0  0  0  0  0  0  0  0  0  0  0  0
    8.2836  -24.7897    7.1797 C   0  0  2  0  0  0  0  0  0  0  0  0
    9.2530  -24.2244    8.0821 O   0  0  0  0  0  0  0  0  0  0  0  0
   12.5491  -24.8080   11.0111 C   0  0  2  0  0  0  0  0  0  0  0  0
   13.5614  -24.0173   11.6717 O   0  0  0  0  0  0  0  0  0  0  0  0
   11.6673  -27.3175   -0.6526 C   0  0  2  0  0  0  0  0  0  0  0  0
   12.2517  -28.6632   -0.4606 O   0  0  0  0  0  0  0  0  0  0  0  0
   11.8521  -27.8424    2.3154 C   0  0  2  0  0  0  0  0  0  0  0  0
   11.9150  -26.4010    2.1952 O   0  0  0  0  0  0  0  0  0  0  0  0
    9.2768  -23.2819    0.4682 C   0  0  0  0  0  0  0  0  0  0  0  0
    8.6280  -22.0143    0.6506 O   0  0  0  0  0  0  0  0  0  0  0  0
    9.0205  -25.4313    6.0192 C   0  0  1  0  0  0  0  0  0  0  0  0
    9.8199  -24.7125    5.0566 O   0  0  0  0  0  0  0  0  0  0  0  0
   12.7278  -24.8874    9.4974 C   0  0  2  0  0  0  0  0  0  0  0  0
   11.6106  -25.4845    8.7826 O   0  0  0  0  0  0  0  0  0  0  0  0
   10.1961  -27.4772   -0.8699 C   0  0  0  0  0  0  0  0  0  0  0  0
    9.6518  -28.0806    0.2727 O   0  0  0  0  0  0  0  0  0  0  0  0
   11.1507  -28.2756    3.6544 C   0  0  1  0  0  0  0  0  0  0  0  0
    9.7618  -27.7964    3.6308 O   0  0  0  0  0  0  0  0  0  0  0  0
    9.8723  -26.6805    6.4415 C   0  0  0  0  0  0  0  0  0  0  0  0
   11.3331  -26.4254    6.4606 N   0  0  0  0  0  0  0  0  0  0  0  0
   13.9719  -25.5033    8.8612 C   0  0  0  0  0  0  0  0  0  0  0  0
   14.3742  -26.7038    9.5902 O   0  0  0  0  0  0  0  0  0  0  0  0
  1  2  1  1  0  0  0
  1  8  1  0  0  0  0
  1 36  1  0  0  0  0
  3  4  1  1  0  0  0
  3 10  1  0  0  0  0
  3 47  1  0  0  0  0
  5 11  1  0  0  0  0
  5 30  1  0  0  0  0
  5 38  1  6  0  0  0
  6 21  1  1  0  0  0
  6 42  1  0  0  0  0
  7 15  1  0  0  0  0
  7 44  1  0  0  0  0
  7 32  1  6  0  0  0
  8  9  1  1  0  0  0
  8 17  1  0  0  0  0
 11 12  1  1  0  0  0
 11 20  1  0  0  0  0
 13  6  1  0  0  0  0
 13 14  1  1  0  0  0
 15 16  1  1  0  0  0
 15 24  1  0  0  0  0
 17 26  1  0  0  0  0
 18 10  1  0  0  0  0
 18 19  1  1  0  0  0
 20 21  1  1  0  0  0
 20 29  1  0  0  0  0
 22 13  1  0  0  0  0
 22 23  1  6  0  0  0
 24 25  1  1  0  0  0
 24 33  1  0  0  0  0
 26 27  1  1  0  0  0
 26 35  1  0  0  0  0
 28  2  1  6  0  0  0
 28 18  1  0  0  0  0
 29 30  1  0  0  0  0
 29 39  1  6  0  0  0
 31 22  1  0  0  0  0
 31 32  1  1  0  0  0
 31 41  1  0  0  0  0
 33 34  1  1  0  0  0
 33 43  1  0  0  0  0
 35 36  1  0  0  0  0
 35 45  1  6  0  0  0
 37 28  1  0  0  0  0
 37 38  1  1  0  0  0
 39 40  1  0  0  0  0
 41 42  1  0  0  0  0
 41 49  1  1  0  0  0
 43 44  1  0  0  0  0
 43 51  1  1  0  0  0
 45 46  1  0  0  0  0
 47 37  1  0  0  0  0
 47 48  1  6  0  0  0
 49 50  1  0  0  0  0
 51 52  1  0  0  0  0
M  END
>  <CHROM.1>
173.59727588,148.26018181,-179.92447128,-144.46340652,-66.68696375,50.20148577
-73.69362331,172.72742857,-179.99289591,-154.39370594,-106.40110145,40.57872267
11.16713646,-25.89932365,4.36225238,-1.31908559,-0.82130322,1.45572761

>  <Name>
2fd0_lig

>  <RI>
0

>  <Rbt.Current_Directory>
/home/itssahil/PROJECTS/Mol_Feturizer/New_Systems/rnas/2fd0

>  <Rbt.Executable>
rbdock ($Id: //depot/dev/client3/rdock/2013.1/src/exe/rbdock.cxx#4 $)

>  <Rbt.Library>
libRbt.so (2013.1, Build901 2013/11/27)

>  <Rbt.Parameter_File>
/export/apps/rDock/src/rDock_2013.1_src/data/scripts/dock_solv.prm

>  <Rbt.Receptor>
prm/blind_docking_40.prm

>  <SCORE>
33.1155

>  <SCORE.INTER>
11.0339

>  <SCORE.INTER.CONST>
1

>  <SCORE.INTER.POLAR>
-0.340168

>  <SCORE.INTER.ROT>
12

>  <SCORE.INTER.SOLV>
22.3971

>  <SCORE.INTER.VDW>
-10.5759

>  <SCORE.INTER.norm>
0.21219

>  <SCORE.INTRA>
5.51832

>  <SCORE.INTRA.DIHEDRAL>
-5.10485

>  <SCORE.INTRA.DIHEDRAL.0>
23.9727

>  <SCORE.INTRA.POLAR>
0

>  <SCORE.INTRA.POLAR.0>
0

>  <SCORE.INTRA.REPUL>
0

>  <SCORE.INTRA.REPUL.0>
0

>  <SCORE.INTRA.SOLV>
6.32242

>  <SCORE.INTRA.SOLV.lig_0>
-115.028

>  <SCORE.INTRA.VDW>
4.90953

>  <SCORE.INTRA.VDW.0>
-6.82393

>  <SCORE.INTRA.norm>
0.106121

>  <SCORE.RESTR>
16.5634

>  <SCORE.RESTR.CAVITY>
16.5634

>  <SCORE.RESTR.norm>
0.318526

>  <SCORE.SYSTEM>
0

>  <SCORE.SYSTEM.CONST>
0

>  <SCORE.SYSTEM.DIHEDRAL>
0

>  <SCORE.SYSTEM.SOLV>
0

>  <SCORE.SYSTEM.norm>
0

>  <SCORE.heavy>
52

>  <SCORE.norm>
0.636837

>  <RMSD>
27.646

$$$$
2fd0_lig
 OpenBabel11021811433D
libRbt.so/2013.1/901 2013/11/27
 52 56  0  0  0  0  0  0  0  0999 V2000
   12.6910  -27.7050    1.6324 C   0  0  2  0  0  0  0  0  0  0  0  0
   11.2586  -27.7613    1.6792 O   0  0  0  0  0  0  0  0  0  0  0  0
    9.8182  -24.3112   -0.5376 C   0  0  2  0  0  0  0  0  0  0  0  0
    8.9626  -23.2073   -1.0030 N   0  0  0  0  0  0  0  0  0  0  0  0
   10.4706  -24.6013    3.8103 C   0  0  1  0  0  0  0  0  0  0  0  0
    8.4093  -22.8014    6.0441 C   0  0  1  0  0  0  0  0  0  0  0  0
   11.3272  -25.0160    9.6608 C   0  0  1  0  0  0  0  0  0  0  0  0
   13.1337  -27.4720    0.1420 C   0  0  2  0  0  0  0  0  0  0  0  0
   12.5403  -26.2658   -0.4179 N   0  0  0  0  0  0  0  0  0  0  0  0
    9.0570  -25.7008   -0.6877 C   0  0  0  0  0  0  0  0  0  0  0  0
   10.5934  -23.0938    3.6828 C   0  0  2  0  0  0  0  0  0  0  0  0
   11.5171  -22.5315    4.6568 O   0  0  0  0  0  0  0  0  0  0  0  0
    8.6172  -21.9901    7.4072 C   0  0  2  0  0  0  0  0  0  0  0  0
   10.0336  -21.5537    7.5437 N   0  0  0  0  0  0  0  0  0  0  0  0
   12.4782  -23.9942    9.5224 C   0  0  1  0  0  0  0  0  0  0  0  0
   12.3051  -22.9511   10.5133 O   0  0  0  0  0  0  0  0  0  0  0  0
   12.7973  -28.7358   -0.7333 C   0  0  0  0  0  0  0  0  0  0  0  0
    9.9945  -26.9022   -0.1907 C   0  0  2  0  0  0  0  0  0  0  0  0
    9.3130  -28.1989   -0.3166 N   0  0  0  0  0  0  0  0  0  0  0  0
    9.1513  -22.6258    3.7828 C   0  0  2  0  0  0  0  0  0  0  0  0
    8.8996  -21.9982    5.0106 O   0  0  0  0  0  0  0  0  0  0  0  0
    8.0546  -22.9135    8.6080 C   0  0  1  0  0  0  0  0  0  0  0  0
    6.6802  -23.2278    8.3198 O   0  0  0  0  0  0  0  0  0  0  0  0
   13.9301  -24.5324    9.6374 C   0  0  1  0  0  0  0  0  0  0  0  0
   14.3416  -24.4038   11.0043 O   0  0  0  0  0  0  0  0  0  0  0  0
   13.4717  -29.9861   -0.0801 C   0  0  2  0  0  0  0  0  0  0  0  0
   13.2056  -31.1513   -0.8545 O   0  0  0  0  0  0  0  0  0  0  0  0
   10.4005  -26.6530    1.2887 C   0  0  2  0  0  0  0  0  0  0  0  0
    8.2255  -23.8655    3.7615 C   0  0  2  0  0  0  0  0  0  0  0  0
    9.1316  -24.9212    3.4751 O   0  0  0  0  0  0  0  0  0  0  0  0
    8.8388  -24.3244    8.7009 C   0  0  2  0  0  0  0  0  0  0  0  0
   10.1987  -23.9623    9.0062 O   0  0  0  0  0  0  0  0  0  0  0  0
   14.1509  -25.9948    9.1867 C   0  0  2  0  0  0  0  0  0  0  0  0
   15.4001  -25.9969    8.4615 O   0  0  0  0  0  0  0  0  0  0  0  0
   12.9253  -30.1735    1.3642 C   0  0  2  0  0  0  0  0  0  0  0  0
   13.2363  -28.9510    2.1378 O   0  0  0  0  0  0  0  0  0  0  0  0
   11.1001  -25.2756    1.4990 C   0  0  2  0  0  0  0  0  0  0  0  0
   11.3862  -25.1435    2.9120 O   0  0  0  0  0  0  0  0  0  0  0  0
    7.1498  -23.8510    2.6811 C   0  0  0  0  0  0  0  0  0  0  0  0
    7.6905  -24.5337    1.5398 O   0  0  0  0  0  0  0  0  0  0  0  0
    8.7970  -24.9086    7.3015 C   0  0  1  0  0  0  0  0  0  0  0  0
    9.1020  -24.1754    6.0967 O   0  0  0  0  0  0  0  0  0  0  0  0
   12.9675  -26.5000    8.3657 C   0  0  2  0  0  0  0  0  0  0  0  0
   11.6670  -26.3033    8.9867 O   0  0  0  0  0  0  0  0  0  0  0  0
   13.5597  -31.3361    2.0591 C   0  0  0  0  0  0  0  0  0  0  0  0
   14.8606  -30.9646    2.4270 O   0  0  0  0  0  0  0  0  0  0  0  0
   10.1695  -24.1139    0.9917 C   0  0  1  0  0  0  0  0  0  0  0  0
   10.8811  -22.8389    1.1575 O   0  0  0  0  0  0  0  0  0  0  0  0
    9.5570  -26.2768    7.1789 C   0  0  0  0  0  0  0  0  0  0  0  0
    9.0008  -27.3456    8.0435 N   0  0  0  0  0  0  0  0  0  0  0  0
   12.9205  -27.9188    7.8030 C   0  0  0  0  0  0  0  0  0  0  0  0
   12.2514  -28.8161    8.7419 O   0  0  0  0  0  0  0  0  0  0  0  0
  1  2  1  6  0  0  0
  1  8  1  0  0  0  0
  1 36  1  0  0  0  0
  3  4  1  1  0  0  0
  3 10  1  0  0  0  0
  3 47  1  0  0  0  0
  5 11  1  0  0  0  0
  5 30  1  0  0  0  0
  5 38  1  6  0  0  0
  6 21  1  6  0  0  0
  6 42  1  0  0  0  0
  7 15  1  0  0  0  0
  7 44  1  0  0  0  0
  7 32  1  6  0  0  0
  8  9  1  6  0  0  0
  8 17  1  0  0  0  0
 11 12  1  1  0  0  0
 11 20  1  0  0  0  0
 13  6  1  0  0  0  0
 13 14  1  1  0  0  0
 15 16  1  1  0  0  0
 15 24  1  0  0  0  0
 17 26  1  0  0  0  0
 18 10  1  0  0  0  0
 18 19  1  1  0  0  0
 20 21  1  1  0  0  0
 20 29  1  0  0  0  0
 22 13  1  0  0  0  0
 22 23  1  6  0  0  0
 24 25  1  1  0  0  0
 24 33  1  0  0  0  0
 26 27  1  6  0  0  0
 26 35  1  0  0  0  0
 28  2  1  6  0  0  0
 28 18  1  0  0  0  0
 29 30  1  0  0  0  0
 29 39  1  6  0  0  0
 31 22  1  0  0  0  0
 31 32  1  6  0  0  0
 31 41  1  0  0  0  0
 33 34  1  6  0  0  0
 33 43  1  0  0  0  0
 35 36  1  0  0  0  0
 35 45  1  1  0  0  0
 37 28  1  0  0  0  0
 37 38  1  1  0  0  0
 39 40  1  0  0  0  0
 41 42  1  0  0  0  0
 41 49  1  1  0  0  0
 43 44  1  0  0  0  0
 43 51  1  1  0  0  0
 45 46  1  0  0  0  0
 47 37  1  0  0  0  0
 47 48  1  6  0  0  0
 49 50  1  0  0  0  0
 51 52  1  0  0  0  0
M  END
>  <CHROM.1>
-61.61691415,-81.14267441,163.52126204,173.67014024,-92.66301829,95.58605479
92.79727752,160.66040330,74.83446200,-88.21969087,61.00753355,92.04896707
10.95669148,-25.60388666,4.51653085,-1.45567268,-0.82806943,1.26282827

>  <Name>
2fd0_lig

>  <RI>
0

>  <Rbt.Current_Directory>
/home/itssahil/PROJECTS/Mol_Feturizer/New_Systems/rnas/2fd0

>  <Rbt.Executable>
rbdock ($Id: //depot/dev/client3/rdock/2013.1/src/exe/rbdock.cxx#4 $)

>  <Rbt.Library>
libRbt.so (2013.1, Build901 2013/11/27)

>  <Rbt.Parameter_File>
/export/apps/rDock/src/rDock_2013.1_src/data/scripts/dock_solv.prm

>  <Rbt.Receptor>
prm/blind_docking_40.prm

>  <SCORE>
68.5938

>  <SCORE.INTER>
27.8378

>  <SCORE.INTER.CONST>
1

>  <SCORE.INTER.POLAR>
-1.06573

>  <SCORE.INTER.ROT>
12

>  <SCORE.INTER.SOLV>
19.9878

>  <SCORE.INTER.VDW>
3.84835

>  <SCORE.INTER.norm>
0.535342

>  <SCORE.INTRA>
21.0542

>  <SCORE.INTRA.DIHEDRAL>
0.922315

>  <SCORE.INTRA.DIHEDRAL.0>
23.9727

>  <SCORE.INTRA.POLAR>
0

>  <SCORE.INTRA.POLAR.0>
0

>  <SCORE.INTRA.REPUL>
0

>  <SCORE.INTRA.REPUL.0>
0

>  <SCORE.INTRA.SOLV>
10.9295

>  <SCORE.INTRA.SOLV.lig_0>
-115.028

>  <SCORE.INTRA.VDW>
15.1283

>  <SCORE.INTRA.VDW.0>
-6.82393

>  <SCORE.INTRA.norm>
0.404888

>  <SCORE.RESTR>
19.7018

>  <SCORE.RESTR.CAVITY>
19.7018

>  <SCORE.RESTR.norm>
0.378881

>  <SCORE.SYSTEM>
0

>  <SCORE.SYSTEM.CONST>
0

>  <SCORE.SYSTEM.DIHEDRAL>
0

>  <SCORE.SYSTEM.SOLV>
0

>  <SCORE.SYSTEM.norm>
0

>  <SCORE.heavy>
52

>  <SCORE.norm>
1.31911

>  <RMSD>
27.729

$$$$
2fd0_lig
 OpenBabel11021811433D
libRbt.so/2013.1/901 2013/11/27
 52 56  0  0  0  0  0  0  0  0999 V2000
   12.5057  -27.4021   -0.9030 C   0  0  2  0  0  0  0  0  0  0  0  0
   12.4717  -26.4978    0.2096 O   0  0  0  0  0  0  0  0  0  0  0  0
   11.4701  -28.8617    3.7169 C   0  0  2  0  0  0  0  0  0  0  0  0
   10.9596  -29.2471    5.0428 N   0  0  0  0  0  0  0  0  0  0  0  0
    9.0384  -26.2629    0.9042 C   0  0  1  0  0  0  0  0  0  0  0  0
    8.5522  -23.3763    4.3498 C   0  0  1  0  0  0  0  0  0  0  0  0
   10.4598  -26.0329    7.6843 C   0  0  1  0  0  0  0  0  0  0  0  0
   13.3877  -28.6432   -0.5117 C   0  0  2  0  0  0  0  0  0  0  0  0
   12.8935  -29.3031    0.6887 N   0  0  0  0  0  0  0  0  0  0  0  0
   12.5305  -27.6829    3.8548 C   0  0  0  0  0  0  0  0  0  0  0  0
    9.3146  -26.0218    2.3770 C   0  0  2  0  0  0  0  0  0  0  0  0
    8.2977  -26.6145    3.2330 O   0  0  0  0  0  0  0  0  0  0  0  0
    9.9309  -23.9733    4.8997 C   0  0  2  0  0  0  0  0  0  0  0  0
    9.9197  -25.4600    4.8316 N   0  0  0  0  0  0  0  0  0  0  0  0
   10.7803  -25.3705    9.0431 C   0  0  1  0  0  0  0  0  0  0  0  0
    9.8735  -25.8899   10.0471 O   0  0  0  0  0  0  0  0  0  0  0  0
   14.8940  -28.2164   -0.3524 C   0  0  0  0  0  0  0  0  0  0  0  0
   13.0931  -27.2726    2.4110 C   0  0  2  0  0  0  0  0  0  0  0  0
   14.0742  -26.1819    2.5102 N   0  0  0  0  0  0  0  0  0  0  0  0
    9.4539  -24.5107    2.4537 C   0  0  2  0  0  0  0  0  0  0  0  0
    8.3457  -23.9245    3.0807 O   0  0  0  0  0  0  0  0  0  0  0  0
   10.1759  -23.3457    6.3684 C   0  0  1  0  0  0  0  0  0  0  0  0
   10.1686  -21.9118    6.2454 O   0  0  0  0  0  0  0  0  0  0  0  0
   12.2292  -25.5110    9.5833 C   0  0  1  0  0  0  0  0  0  0  0  0
   12.2718  -26.6598   10.4392 O   0  0  0  0  0  0  0  0  0  0  0  0
   15.3574  -27.5262   -1.6767 C   0  0  2  0  0  0  0  0  0  0  0  0
   16.7248  -27.1402   -1.5797 O   0  0  0  0  0  0  0  0  0  0  0  0
   11.9058  -26.8428    1.5049 C   0  0  2  0  0  0  0  0  0  0  0  0
    9.4575  -23.9398    1.0155 C   0  0  2  0  0  0  0  0  0  0  0  0
    9.5062  -25.1145    0.2184 O   0  0  0  0  0  0  0  0  0  0  0  0
    8.9832  -23.7249    7.3921 C   0  0  2  0  0  0  0  0  0  0  0  0
    9.0401  -25.1600    7.4968 O   0  0  0  0  0  0  0  0  0  0  0  0
   13.3422  -25.6425    8.5181 C   0  0  2  0  0  0  0  0  0  0  0  0
   14.4382  -24.8312    8.9945 O   0  0  0  0  0  0  0  0  0  0  0  0
   14.4716  -26.2762   -1.9461 C   0  0  2  0  0  0  0  0  0  0  0  0
   13.0650  -26.7220   -2.0563 O   0  0  0  0  0  0  0  0  0  0  0  0
   10.8090  -27.9444    1.3840 C   0  0  2  0  0  0  0  0  0  0  0  0
    9.7455  -27.4116    0.5586 O   0  0  0  0  0  0  0  0  0  0  0  0
   10.6626  -23.0736    0.6664 C   0  0  0  0  0  0  0  0  0  0  0  0
   10.9681  -22.2893    1.8295 O   0  0  0  0  0  0  0  0  0  0  0  0
    7.6980  -23.3429    6.6824 C   0  0  1  0  0  0  0  0  0  0  0  0
    7.3877  -23.6730    5.3124 O   0  0  0  0  0  0  0  0  0  0  0  0
   12.8326  -25.2314    7.1393 C   0  0  2  0  0  0  0  0  0  0  0  0
   11.5959  -25.8778    6.7293 O   0  0  0  0  0  0  0  0  0  0  0  0
   14.8419  -25.5890   -3.2219 C   0  0  0  0  0  0  0  0  0  0  0  0
   16.2020  -25.2554   -3.1561 O   0  0  0  0  0  0  0  0  0  0  0  0
   10.2824  -28.3415    2.8114 C   0  0  1  0  0  0  0  0  0  0  0  0
    9.2907  -29.4155    2.6615 O   0  0  0  0  0  0  0  0  0  0  0  0
    6.4087  -23.6824    7.5113 C   0  0  0  0  0  0  0  0  0  0  0  0
    5.8416  -25.0187    7.2082 N   0  0  0  0  0  0  0  0  0  0  0  0
   13.7252  -25.2757    5.9010 C   0  0  0  0  0  0  0  0  0  0  0  0
   14.2831  -26.6144    5.7243 O   0  0  0  0  0  0  0  0  0  0  0  0
  1  2  1  1  0  0  0
  1  8  1  0  0  0  0
  1 36  1  0  0  0  0
  3  4  1  1  0  0  0
  3 10  1  0  0  0  0
  3 47  1  0  0  0  0
  5 11  1  0  0  0  0
  5 30  1  0  0  0  0
  5 38  1  6  0  0  0
  6 21  1  6  0  0  0
  6 42  1  0  0  0  0
  7 15  1  0  0  0  0
  7 44  1  0  0  0  0
  7 32  1  6  0  0  0
  8  9  1  1  0  0  0
  8 17  1  0  0  0  0
 11 12  1  1  0  0  0
 11 20  1  0  0  0  0
 13  6  1  0  0  0  0
 13 14  1  1  0  0  0
 15 16  1  1  0  0  0
 15 24  1  0  0  0  0
 17 26  1  0  0  0  0
 18 10  1  0  0  0  0
 18 19  1  1  0  0  0
 20 21  1  1  0  0  0
 20 29  1  0  0  0  0
 22 13  1  0  0  0  0
 22 23  1  6  0  0  0
 24 25  1  1  0  0  0
 24 33  1  0  0  0  0
 26 27  1  1  0  0  0
 26 35  1  0  0  0  0
 28  2  1  6  0  0  0
 28 18  1  0  0  0  0
 29 30  1  0  0  0  0
 29 39  1  1  0  0  0
 31 22  1  0  0  0  0
 31 32  1  6  0  0  0
 31 41  1  0  0  0  0
 33 34  1  1  0  0  0
 33 43  1  0  0  0  0
 35 36  1  0  0  0  0
 35 45  1  6  0  0  0
 37 28  1  0  0  0  0
 37 38  1  6  0  0  0
 39 40  1  0  0  0  0
 41 42  1  0  0  0  0
 41 49  1  1  0  0  0
 43 44  1  0  0  0  0
 43 51  1  6  0  0  0
 45 46  1  0  0  0  0
 47 37  1  0  0  0  0
 47 48  1  6  0  0  0
 49 50  1  0  0  0  0
 51 52  1  0  0  0  0
M  END
>  <CHROM.1>
-62.49139889,-16.44285695,-16.65587296,62.38321984,109.98692767,97.29796848
-38.74016546,44.49362224,-56.54571195,-59.73950728,-92.35411577,55.60914173
11.27571818,-25.85487557,3.57393589,1.13585166,0.40111173,-1.61712239

>  <Name>
2fd0_lig

>  <RI>
0

>  <Rbt.Current_Directory>
/home/itssahil/PROJECTS/Mol_Feturizer/New_Systems/rnas/2fd0

>  <Rbt.Executable>
rbdock ($Id: //depot/dev/client3/rdock/2013.1/src/exe/rbdock.cxx#4 $)

>  <Rbt.Library>
libRbt.so (2013.1, Build901 2013/11/27)

>  <Rbt.Parameter_File>
/export/apps/rDock/src/rDock_2013.1_src/data/scripts/dock_solv.prm

>  <Rbt.Receptor>
prm/blind_docking_40.prm

>  <SCORE>
48.924

>  <SCORE.INTER>
1.27849

>  <SCORE.INTER.CONST>
1

>  <SCORE.INTER.POLAR>
-0.928483

>  <SCORE.INTER.ROT>
12

>  <SCORE.INTER.SOLV>
24.919

>  <SCORE.INTER.VDW>
-15.9591

>  <SCORE.INTER.norm>
0.0245864

>  <SCORE.INTRA>
29.2387

>  <SCORE.INTRA.DIHEDRAL>
5.7039

>  <SCORE.INTRA.DIHEDRAL.0>
23.9727

>  <SCORE.INTRA.POLAR>
0

>  <SCORE.INTRA.POLAR.0>
0

>  <SCORE.INTRA.REPUL>
0

>  <SCORE.INTRA.REPUL.0>
0

>  <SCORE.INTRA.SOLV>
14.5969

>  <SCORE.INTRA.SOLV.lig_0>
-115.028

>  <SCORE.INTRA.VDW>
19.0883

>  <SCORE.INTRA.VDW.0>
-6.82393

>  <SCORE.INTRA.norm>
0.562283

>  <SCORE.RESTR>
18.4068

>  <SCORE.RESTR.CAVITY>
18.4068

>  <SCORE.RESTR.norm>
0.353977

>  <SCORE.SYSTEM>
0

>  <SCORE.SYSTEM.CONST>
0

>  <SCORE.SYSTEM.DIHEDRAL>
0

>  <SCORE.SYSTEM.SOLV>
0

>  <SCORE.SYSTEM.norm>
0

>  <SCORE.heavy>
52

>  <SCORE.norm>
0.940847

>  <RMSD>
27.767

$$$$
2fd0_lig
 OpenBabel11021811433D
libRbt.so/2013.1/901 2013/11/27
 52 56  0  0  0  0  0  0  0  0999 V2000
   10.8805  -25.9751   -0.1953 C   0  0  2  0  0  0  0  0  0  0  0  0
   11.9628  -25.8039    0.7299 O   0  0  0  0  0  0  0  0  0  0  0  0
   13.8837  -29.7029    0.7459 C   0  0  2  0  0  0  0  0  0  0  0  0
   14.7969  -30.8091    1.0768 N   0  0  0  0  0  0  0  0  0  0  0  0
   11.8813  -26.7310    3.7522 C   0  0  1  0  0  0  0  0  0  0  0  0
   10.9415  -22.7331    5.7303 C   0  0  1  0  0  0  0  0  0  0  0  0
    9.9589  -23.5886    9.1003 C   0  0  1  0  0  0  0  0  0  0  0  0
    9.9974  -24.6746   -0.1780 C   0  0  2  0  0  0  0  0  0  0  0  0
   10.7769  -23.4855   -0.4931 N   0  0  0  0  0  0  0  0  0  0  0  0
   14.7087  -28.4354    0.2501 C   0  0  0  0  0  0  0  0  0  0  0  0
   10.9997  -25.4999    3.6486 C   0  0  2  0  0  0  0  0  0  0  0  0
   11.5178  -24.5292    2.6960 O   0  0  0  0  0  0  0  0  0  0  0  0
   11.8301  -22.0265    6.8575 C   0  0  2  0  0  0  0  0  0  0  0  0
   12.1937  -23.0009    7.9222 N   0  0  0  0  0  0  0  0  0  0  0  0
    9.8619  -23.6954   10.6387 C   0  0  1  0  0  0  0  0  0  0  0  0
    8.5094  -23.3767   11.0498 O   0  0  0  0  0  0  0  0  0  0  0  0
    9.2638  -24.5289    1.2065 C   0  0  0  0  0  0  0  0  0  0  0  0
   13.7118  -27.2361   -0.1201 C   0  0  2  0  0  0  0  0  0  0  0  0
   14.4500  -26.0502   -0.5793 N   0  0  0  0  0  0  0  0  0  0  0  0
   10.8988  -25.0318    5.0906 C   0  0  2  0  0  0  0  0  0  0  0  0
   11.6440  -23.8640    5.3042 O   0  0  0  0  0  0  0  0  0  0  0  0
   11.0234  -20.7186    7.3572 C   0  0  1  0  0  0  0  0  0  0  0  0
   10.7687  -19.8887    6.2094 O   0  0  0  0  0  0  0  0  0  0  0  0
   10.2568  -25.0495   11.2880 C   0  0  1  0  0  0  0  0  0  0  0  0
    9.0664  -25.8353   11.4286 O   0  0  0  0  0  0  0  0  0  0  0  0
    8.4429  -25.8327    1.4732 C   0  0  2  0  0  0  0  0  0  0  0  0
    7.7474  -25.7332    2.7120 O   0  0  0  0  0  0  0  0  0  0  0  0
   12.8549  -26.8825    1.1274 C   0  0  2  0  0  0  0  0  0  0  0  0
   11.5448  -26.1003    6.0046 C   0  0  2  0  0  0  0  0  0  0  0  0
   11.8038  -27.1637    5.0993 O   0  0  0  0  0  0  0  0  0  0  0  0
    9.5798  -21.1014    7.9766 C   0  0  2  0  0  0  0  0  0  0  0  0
    9.8841  -21.9134    9.1263 O   0  0  0  0  0  0  0  0  0  0  0  0
   11.3168  -25.8828   10.5314 C   0  0  2  0  0  0  0  0  0  0  0  0
   12.1920  -26.4190   11.5477 O   0  0  0  0  0  0  0  0  0  0  0  0
    9.4062  -27.0537    1.5028 C   0  0  2  0  0  0  0  0  0  0  0  0
   10.0945  -27.1306    0.1952 O   0  0  0  0  0  0  0  0  0  0  0  0
   12.0701  -28.1077    1.6877 C   0  0  2  0  0  0  0  0  0  0  0  0
   11.3523  -27.6642    2.8642 O   0  0  0  0  0  0  0  0  0  0  0  0
   10.6469  -26.6272    7.1184 C   0  0  0  0  0  0  0  0  0  0  0  0
    9.2966  -26.5670    6.6343 O   0  0  0  0  0  0  0  0  0  0  0  0
    8.9056  -21.9734    6.9342 C   0  0  1  0  0  0  0  0  0  0  0  0
    9.5371  -23.0803    6.2574 O   0  0  0  0  0  0  0  0  0  0  0  0
   12.0396  -25.0340    9.4890 C   0  0  2  0  0  0  0  0  0  0  0  0
   11.1649  -24.3019    8.5866 O   0  0  0  0  0  0  0  0  0  0  0  0
    8.6760  -28.3410    1.7191 C   0  0  0  0  0  0  0  0  0  0  0  0
    9.2058  -28.9533    2.8637 O   0  0  0  0  0  0  0  0  0  0  0  0
   13.0651  -29.2761    2.0301 C   0  0  1  0  0  0  0  0  0  0  0  0
   12.2869  -30.4286    2.5049 O   0  0  0  0  0  0  0  0  0  0  0  0
    7.4914  -22.4894    7.3796 C   0  0  0  0  0  0  0  0  0  0  0  0
    6.9885  -23.6228    6.5661 N   0  0  0  0  0  0  0  0  0  0  0  0
   13.1309  -25.6123    8.5908 C   0  0  0  0  0  0  0  0  0  0  0  0
   14.0163  -26.4815    9.3621 O   0  0  0  0  0  0  0  0  0  0  0  0
  1  2  1  1  0  0  0
  1  8  1  0  0  0  0
  1 36  1  0  0  0  0
  3  4  1  1  0  0  0
  3 10  1  0  0  0  0
  3 47  1  0  0  0  0
  5 11  1  0  0  0  0
  5 30  1  0  0  0  0
  5 38  1  6  0  0  0
  6 21  1  1  0  0  0
  6 42  1  0  0  0  0
  7 15  1  0  0  0  0
  7 44  1  0  0  0  0
  7 32  1  1  0  0  0
  8  9  1  1  0  0  0
  8 17  1  0  0  0  0
 11 12  1  6  0  0  0
 11 20  1  0  0  0  0
 13  6  1  0  0  0  0
 13 14  1  1  0  0  0
 15 16  1  6  0  0  0
 15 24  1  0  0  0  0
 17 26  1  0  0  0  0
 18 10  1  0  0  0  0
 18 19  1  1  0  0  0
 20 21  1  6  0  0  0
 20 29  1  0  0  0  0
 22 13  1  0  0  0  0
 22 23  1  6  0  0  0
 24 25  1  6  0  0  0
 24 33  1  0  0  0  0
 26 27  1  1  0  0  0
 26 35  1  0  0  0  0
 28  2  1  6  0  0  0
 28 18  1  0  0  0  0
 29 30  1  0  0  0  0
 29 39  1  1  0  0  0
 31 22  1  0  0  0  0
 31 32  1  1  0  0  0
 31 41  1  0  0  0  0
 33 34  1  1  0  0  0
 33 43  1  0  0  0  0
 35 36  1  0  0  0  0
 35 45  1  6  0  0  0
 37 28  1  0  0  0  0
 37 38  1  1  0  0  0
 39 40  1  0  0  0  0
 41 42  1  0  0  0  0
 41 49  1  1  0  0  0
 43 44  1  0  0  0  0
 43 51  1  6  0  0  0
 45 46  1  0  0  0  0
 47 37  1  0  0  0  0
 47 48  1  6  0  0  0
 49 50  1  0  0  0  0
 51 52  1  0  0  0  0
M  END
>  <CHROM.1>
170.01862505,114.11539157,138.45427948,-163.25175672,119.30209604,68.96206150
30.60891799,-93.59507367,-122.69596701,-36.25239576,-163.88747250,-42.25540279
10.95298669,-25.43452542,5.01385787,1.23449153,1.01129491,-1.70913719

>  <Name>
2fd0_lig

>  <RI>
0

>  <Rbt.Current_Directory>
/home/itssahil/PROJECTS/Mol_Feturizer/New_Systems/rnas/2fd0

>  <Rbt.Executable>
rbdock ($Id: //depot/dev/client3/rdock/2013.1/src/exe/rbdock.cxx#4 $)

>  <Rbt.Library>
libRbt.so (2013.1, Build901 2013/11/27)

>  <Rbt.Parameter_File>
/export/apps/rDock/src/rDock_2013.1_src/data/scripts/dock_solv.prm

>  <Rbt.Receptor>
prm/blind_docking_40.prm

>  <SCORE>
79.5709

>  <SCORE.INTER>
27.2409

>  <SCORE.INTER.CONST>
1

>  <SCORE.INTER.POLAR>
-2.00396

>  <SCORE.INTER.ROT>
12

>  <SCORE.INTER.SOLV>
26.7488

>  <SCORE.INTER.VDW>
4.3242

>  <SCORE.INTER.norm>
0.523864

>  <SCORE.INTRA>
35.0694

>  <SCORE.INTRA.DIHEDRAL>
15.3246

>  <SCORE.INTRA.DIHEDRAL.0>
23.9727

>  <SCORE.INTRA.POLAR>
0

>  <SCORE.INTRA.POLAR.0>
0

>  <SCORE.INTRA.REPUL>
0.0116983

>  <SCORE.INTRA.REPUL.0>
0

>  <SCORE.INTRA.SOLV>
7.31101

>  <SCORE.INTRA.SOLV.lig_0>
-115.028

>  <SCORE.INTRA.VDW>
23.6931

>  <SCORE.INTRA.VDW.0>
-6.82393

>  <SCORE.INTRA.norm>
0.674412

>  <SCORE.RESTR>
17.2606

>  <SCORE.RESTR.CAVITY>
17.2606

>  <SCORE.RESTR.norm>
0.331934

>  <SCORE.SYSTEM>
0

>  <SCORE.SYSTEM.CONST>
0

>  <SCORE.SYSTEM.DIHEDRAL>
0

>  <SCORE.SYSTEM.SOLV>
0

>  <SCORE.SYSTEM.norm>
0

>  <SCORE.heavy>
52

>  <SCORE.norm>
1.53021

>  <RMSD>
27.775

$$$$
2fd0_lig
 OpenBabel11021811433D
libRbt.so/2013.1/901 2013/11/27
 52 56  0  0  0  0  0  0  0  0999 V2000
   11.2744  -29.0249    1.4172 C   0  0  2  0  0  0  0  0  0  0  0  0
   10.5513  -28.1561    2.3000 O   0  0  0  0  0  0  0  0  0  0  0  0
    9.1680  -24.9267   -0.2593 C   0  0  2  0  0  0  0  0  0  0  0  0
    8.3696  -23.8108   -0.7923 N   0  0  0  0  0  0  0  0  0  0  0  0
   10.3225  -24.7576    4.0141 C   0  0  1  0  0  0  0  0  0  0  0  0
    8.6675  -22.6865    6.3102 C   0  0  1  0  0  0  0  0  0  0  0  0
   12.0673  -24.5172    9.7514 C   0  0  1  0  0  0  0  0  0  0  0  0
   12.6370  -29.4101    2.1001 C   0  0  2  0  0  0  0  0  0  0  0  0
   12.4350  -30.0310    3.4018 N   0  0  0  0  0  0  0  0  0  0  0  0
    8.2608  -26.2234   -0.0903 C   0  0  0  0  0  0  0  0  0  0  0  0
   10.4818  -23.2745    3.7340 C   0  0  2  0  0  0  0  0  0  0  0  0
   11.5368  -22.6721    4.5354 O   0  0  0  0  0  0  0  0  0  0  0  0
    9.0515  -21.7460    7.5462 C   0  0  2  0  0  0  0  0  0  0  0  0
   10.4684  -21.3019    7.4433 N   0  0  0  0  0  0  0  0  0  0  0  0
   13.1897  -23.7245    9.0445 C   0  0  1  0  0  0  0  0  0  0  0  0
   13.3334  -22.4339    9.6877 O   0  0  0  0  0  0  0  0  0  0  0  0
   13.5727  -28.1492    2.2054 C   0  0  0  0  0  0  0  0  0  0  0  0
    9.1348  -27.4403    0.4796 C   0  0  2  0  0  0  0  0  0  0  0  0
    8.3185  -28.6516    0.6478 N   0  0  0  0  0  0  0  0  0  0  0  0
    9.0801  -22.7335    3.9602 C   0  0  2  0  0  0  0  0  0  0  0  0
    9.0024  -21.9896    5.1458 O   0  0  0  0  0  0  0  0  0  0  0  0
    8.6692  -22.5458    8.8971 C   0  0  1  0  0  0  0  0  0  0  0  0
    7.2717  -22.8834    8.8329 O   0  0  0  0  0  0  0  0  0  0  0  0
   14.5932  -24.3845    8.9692 C   0  0  1  0  0  0  0  0  0  0  0  0
   15.3545  -23.9328   10.0964 O   0  0  0  0  0  0  0  0  0  0  0  0
   13.7518  -27.5428    0.7754 C   0  0  2  0  0  0  0  0  0  0  0  0
   14.6094  -26.4070    0.8250 O   0  0  0  0  0  0  0  0  0  0  0  0
    9.7609  -27.0244    1.8400 C   0  0  2  0  0  0  0  0  0  0  0  0
    8.1155  -23.9262    4.1636 C   0  0  2  0  0  0  0  0  0  0  0  0
    8.9421  -25.0436    3.8709 O   0  0  0  0  0  0  0  0  0  0  0  0
    9.4741  -23.9429    9.0183 C   0  0  2  0  0  0  0  0  0  0  0  0
   10.8590  -23.5560    9.0967 O   0  0  0  0  0  0  0  0  0  0  0  0
   14.6169  -25.9302    8.9398 C   0  0  2  0  0  0  0  0  0  0  0  0
   15.6305  -26.2881    7.9749 O   0  0  0  0  0  0  0  0  0  0  0  0
   12.3620  -27.1332    0.2093 C   0  0  2  0  0  0  0  0  0  0  0  0
   11.5095  -28.3416    0.1589 O   0  0  0  0  0  0  0  0  0  0  0  0
   10.6144  -25.7234    1.7392 C   0  0  2  0  0  0  0  0  0  0  0  0
   11.1019  -25.4182    3.0679 O   0  0  0  0  0  0  0  0  0  0  0  0
    6.9171  -23.9569    3.2215 C   0  0  0  0  0  0  0  0  0  0  0  0
    7.3703  -23.4724    1.9483 O   0  0  0  0  0  0  0  0  0  0  0  0
    9.2471  -24.6613    7.7016 C   0  0  1  0  0  0  0  0  0  0  0  0
    9.3759  -24.0505    6.4006 O   0  0  0  0  0  0  0  0  0  0  0  0
   13.2366  -26.4935    8.6126 C   0  0  2  0  0  0  0  0  0  0  0  0
   12.1557  -25.9728    9.4347 O   0  0  0  0  0  0  0  0  0  0  0  0
   12.4606  -26.5770   -1.1756 C   0  0  0  0  0  0  0  0  0  0  0  0
   13.0917  -27.5334   -1.9834 O   0  0  0  0  0  0  0  0  0  0  0  0
    9.7420  -24.5480    1.1649 C   0  0  1  0  0  0  0  0  0  0  0  0
   10.5912  -23.3557    1.0356 O   0  0  0  0  0  0  0  0  0  0  0  0
    9.9981  -26.0368    7.6094 C   0  0  0  0  0  0  0  0  0  0  0  0
    9.2173  -27.1778    8.1460 N   0  0  0  0  0  0  0  0  0  0  0  0
   12.9751  -27.9957    8.5299 C   0  0  0  0  0  0  0  0  0  0  0  0
   11.5397  -28.2648    8.5719 O   0  0  0  0  0  0  0  0  0  0  0  0
  1  2  1  1  0  0  0
  1  8  1  0  0  0  0
  1 36  1  0  0  0  0
  3  4  1  1  0  0  0
  3 10  1  0  0  0  0
  3 47  1  0  0  0  0
  5 11  1  0  0  0  0
  5 30  1  0  0  0  0
  5 38  1  6  0  0  0
  6 21  1  6  0  0  0
  6 42  1  0  0  0  0
  7 15  1  0  0  0  0
  7 44  1  0  0  0  0
  7 32  1  6  0  0  0
  8  9  1  1  0  0  0
  8 17  1  0  0  0  0
 11 12  1  1  0  0  0
 11 20  1  0  0  0  0
 13  6  1  0  0  0  0
 13 14  1  1  0  0  0
 15 16  1  1  0  0  0
 15 24  1  0  0  0  0
 17 26  1  0  0  0  0
 18 10  1  0  0  0  0
 18 19  1  1  0  0  0
 20 21  1  1  0  0  0
 20 29  1  0  0  0  0
 22 13  1  0  0  0  0
 22 23  1  6  0  0  0
 24 25  1  1  0  0  0
 24 33  1  0  0  0  0
 26 27  1  1  0  0  0
 26 35  1  0  0  0  0
 28  2  1  6  0  0  0
 28 18  1  0  0  0  0
 29 30  1  0  0  0  0
 29 39  1  6  0  0  0
 31 22  1  0  0  0  0
 31 32  1  6  0  0  0
 31 41  1  0  0  0  0
 33 34  1  6  0  0  0
 33 43  1  0  0  0  0
 35 36  1  0  0  0  0
 35 45  1  6  0  0  0
 37 28  1  0  0  0  0
 37 38  1  1  0  0  0
 39 40  1  0  0  0  0
 41 42  1  0  0  0  0
 41 49  1  6  0  0  0
 43 44  1  0  0  0  0
 43 51  1  1  0  0  0
 45 46  1  0  0  0  0
 47 37  1  0  0  0  0
 47 48  1  6  0  0  0
 49 50  1  0  0  0  0
 51 52  1  0  0  0  0
M  END
>  <CHROM.1>
141.99809103,-84.51579940,163.99755046,161.16381840,-90.11227631,34.88427328
36.30063903,157.84633262,56.33238357,-81.75555720,88.02589328,164.42274440
10.90874965,-25.33135245,4.63639845,-1.69710981,-0.66162479,1.20133548

>  <Name>
2fd0_lig

>  <RI>
0

>  <Rbt.Current_Directory>
/home/itssahil/PROJECTS/Mol_Feturizer/New_Systems/rnas/2fd0

>  <Rbt.Executable>
rbdock ($Id: //depot/dev/client3/rdock/2013.1/src/exe/rbdock.cxx#4 $)

>  <Rbt.Library>
libRbt.so (2013.1, Build901 2013/11/27)

>  <Rbt.Parameter_File>
/export/apps/rDock/src/rDock_2013.1_src/data/scripts/dock_solv.prm

>  <Rbt.Receptor>
prm/blind_docking_40.prm

>  <SCORE>
40.2365

>  <SCORE.INTER>
6.73216

>  <SCORE.INTER.CONST>
1

>  <SCORE.INTER.POLAR>
0

>  <SCORE.INTER.ROT>
12

>  <SCORE.INTER.SOLV>
21.7204

>  <SCORE.INTER.VDW>
-14.352

>  <SCORE.INTER.norm>
0.129465

>  <SCORE.INTRA>
16.491

>  <SCORE.INTRA.DIHEDRAL>
2.46779

>  <SCORE.INTRA.DIHEDRAL.0>
23.9727

>  <SCORE.INTRA.POLAR>
0

>  <SCORE.INTRA.POLAR.0>
0

>  <SCORE.INTRA.REPUL>
0

>  <SCORE.INTRA.REPUL.0>
0

>  <SCORE.INTRA.SOLV>
5.42126

>  <SCORE.INTRA.SOLV.lig_0>
-115.028

>  <SCORE.INTRA.VDW>
12.5465

>  <SCORE.INTRA.VDW.0>
-6.82393

>  <SCORE.INTRA.norm>
0.317135

>  <SCORE.RESTR>
17.0133

>  <SCORE.RESTR.CAVITY>
17.0133

>  <SCORE.RESTR.norm>
0.327179

>  <SCORE.SYSTEM>
0

>  <SCORE.SYSTEM.CONST>
0

>  <SCORE.SYSTEM.DIHEDRAL>
0

>  <SCORE.SYSTEM.SOLV>
0

>  <SCORE.SYSTEM.norm>
0

>  <SCORE.heavy>
52

>  <SCORE.norm>
0.773778

>  <RMSD>
27.949

$$$$
2fd0_lig
 OpenBabel11021811433D
libRbt.so/2013.1/901 2013/11/27
 52 56  0  0  0  0  0  0  0  0999 V2000
   11.8073  -27.6173    0.2745 C   0  0  2  0  0  0  0  0  0  0  0  0
   11.4201  -26.2843    0.6354 O   0  0  0  0  0  0  0  0  0  0  0  0
    7.6019  -24.2472    0.2300 C   0  0  2  0  0  0  0  0  0  0  0  0
    6.1982  -23.8557    0.4384 N   0  0  0  0  0  0  0  0  0  0  0  0
   10.3628  -24.8928    3.7441 C   0  0  1  0  0  0  0  0  0  0  0  0
    9.5927  -24.2551    8.2169 C   0  0  1  0  0  0  0  0  0  0  0  0
   12.7423  -24.5215   10.7215 C   0  0  1  0  0  0  0  0  0  0  0  0
   12.9286  -28.0979    1.2661 C   0  0  2  0  0  0  0  0  0  0  0  0
   12.4900  -28.0338    2.6532 N   0  0  0  0  0  0  0  0  0  0  0  0
    7.6959  -25.7947   -0.1301 C   0  0  0  0  0  0  0  0  0  0  0  0
   10.6944  -23.9285    4.8683 C   0  0  2  0  0  0  0  0  0  0  0  0
   12.0261  -24.1514    5.4113 O   0  0  0  0  0  0  0  0  0  0  0  0
   10.3136  -22.8297    8.3050 C   0  0  2  0  0  0  0  0  0  0  0  0
   11.7731  -22.9664    8.0470 N   0  0  0  0  0  0  0  0  0  0  0  0
   13.7314  -23.8728    9.7273 C   0  0  1  0  0  0  0  0  0  0  0  0
   14.5759  -22.9381   10.4437 O   0  0  0  0  0  0  0  0  0  0  0  0
   14.2484  -27.2701    1.0433 C   0  0  0  0  0  0  0  0  0  0  0  0
    9.2241  -26.2161   -0.3675 C   0  0  2  0  0  0  0  0  0  0  0  0
    9.3391  -27.6438   -0.6996 N   0  0  0  0  0  0  0  0  0  0  0  0
    9.5382  -24.1228    5.8348 C   0  0  2  0  0  0  0  0  0  0  0  0
    9.9417  -24.8153    6.9848 O   0  0  0  0  0  0  0  0  0  0  0  0
    9.9167  -22.1762    9.7284 C   0  0  1  0  0  0  0  0  0  0  0  0
    8.4810  -22.1095    9.8015 O   0  0  0  0  0  0  0  0  0  0  0  0
   14.6484  -24.8215    8.9088 C   0  0  1  0  0  0  0  0  0  0  0  0
   15.8824  -24.9675    9.6231 O   0  0  0  0  0  0  0  0  0  0  0  0
   14.6633  -27.3919   -0.4593 C   0  0  2  0  0  0  0  0  0  0  0  0
   15.8670  -26.6694   -0.6989 O   0  0  0  0  0  0  0  0  0  0  0  0
   10.0452  -25.8972    0.9130 C   0  0  2  0  0  0  0  0  0  0  0  0
    8.4787  -25.0294    5.1640 C   0  0  2  0  0  0  0  0  0  0  0  0
    8.9726  -25.1502    3.8377 O   0  0  0  0  0  0  0  0  0  0  0  0
   10.3974  -23.0957   10.9684 C   0  0  2  0  0  0  0  0  0  0  0  0
   11.8335  -23.1193   10.8648 O   0  0  0  0  0  0  0  0  0  0  0  0
   14.0778  -26.2269    8.6088 C   0  0  2  0  0  0  0  0  0  0  0  0
   14.4474  -26.5161    7.2427 O   0  0  0  0  0  0  0  0  0  0  0  0
   13.5226  -26.8342   -1.3579 C   0  0  2  0  0  0  0  0  0  0  0  0
   12.2980  -27.6207   -1.0910 O   0  0  0  0  0  0  0  0  0  0  0  0
    9.9389  -24.4019    1.3416 C   0  0  2  0  0  0  0  0  0  0  0  0
   10.7034  -24.2427    2.5607 O   0  0  0  0  0  0  0  0  0  0  0  0
    7.0727  -24.4433    5.1002 C   0  0  0  0  0  0  0  0  0  0  0  0
    6.7135  -24.0651    6.4378 O   0  0  0  0  0  0  0  0  0  0  0  0
    9.8691  -24.4872   10.6749 C   0  0  1  0  0  0  0  0  0  0  0  0
    9.9839  -25.1569    9.4019 O   0  0  0  0  0  0  0  0  0  0  0  0
   12.5724  -26.2717    8.8566 C   0  0  2  0  0  0  0  0  0  0  0  0
   12.1539  -25.7712   10.1565 O   0  0  0  0  0  0  0  0  0  0  0  0
   13.8435  -26.9550   -2.8137 C   0  0  0  0  0  0  0  0  0  0  0  0
   14.0953  -28.3059   -3.0918 O   0  0  0  0  0  0  0  0  0  0  0  0
    8.4318  -24.0068    1.5546 C   0  0  1  0  0  0  0  0  0  0  0  0
    8.3676  -22.5813    1.9060 O   0  0  0  0  0  0  0  0  0  0  0  0
   10.2785  -25.5462   11.7589 C   0  0  0  0  0  0  0  0  0  0  0  0
   10.1275  -25.0602   13.1519 N   0  0  0  0  0  0  0  0  0  0  0  0
   11.7560  -27.5451    8.6475 C   0  0  0  0  0  0  0  0  0  0  0  0
   10.5850  -27.2678    7.8190 O   0  0  0  0  0  0  0  0  0  0  0  0
  1  2  1  1  0  0  0
  1  8  1  0  0  0  0
  1 36  1  0  0  0  0
  3  4  1  1  0  0  0
  3 10  1  0  0  0  0
  3 47  1  0  0  0  0
  5 11  1  0  0  0  0
  5 30  1  0  0  0  0
  5 38  1  6  0  0  0
  6 21  1  6  0  0  0
  6 42  1  0  0  0  0
  7 15  1  0  0  0  0
  7 44  1  0  0  0  0
  7 32  1  6  0  0  0
  8  9  1  1  0  0  0
  8 17  1  0  0  0  0
 11 12  1  1  0  0  0
 11 20  1  0  0  0  0
 13  6  1  0  0  0  0
 13 14  1  1  0  0  0
 15 16  1  1  0  0  0
 15 24  1  0  0  0  0
 17 26  1  0  0  0  0
 18 10  1  0  0  0  0
 18 19  1  1  0  0  0
 20 21  1  1  0  0  0
 20 29  1  0  0  0  0
 22 13  1  0  0  0  0
 22 23  1  6  0  0  0
 24 25  1  1  0  0  0
 24 33  1  0  0  0  0
 26 27  1  1  0  0  0
 26 35  1  0  0  0  0
 28  2  1  6  0  0  0
 28 18  1  0  0  0  0
 29 30  1  0  0  0  0
 29 39  1  6  0  0  0
 31 22  1  0  0  0  0
 31 32  1  6  0  0  0
 31 41  1  0  0  0  0
 33 34  1  6  0  0  0
 33 43  1  0  0  0  0
 35 36  1  0  0  0  0
 35 45  1  6  0  0  0
 37 28  1  0  0  0  0
 37 38  1  1  0  0  0
 39 40  1  0  0  0  0
 41 42  1  0  0  0  0
 41 49  1  1  0  0  0
 43 44  1  0  0  0  0
 43 51  1  1  0  0  0
 45 46  1  0  0  0  0
 47 37  1  0  0  0  0
 47 48  1  6  0  0  0
 49 50  1  0  0  0  0
 51 52  1  0  0  0  0
M  END
>  <CHROM.1>
-125.52062101,-144.38110683,-62.14705037,141.71148630,130.03456902,-58.86155826
-53.80594079,-122.48324007,57.07517980,-63.58092072,44.05722144,-129.76290412
11.14342224,-25.23286492,5.07813559,-1.55748343,-0.35801114,1.36808495

>  <Name>
2fd0_lig

>  <RI>
0

>  <Rbt.Current_Directory>
/home/itssahil/PROJECTS/Mol_Feturizer/New_Systems/rnas/2fd0

>  <Rbt.Executable>
rbdock ($Id: //depot/dev/client3/rdock/2013.1/src/exe/rbdock.cxx#4 $)

>  <Rbt.Library>
libRbt.so (2013.1, Build901 2013/11/27)

>  <Rbt.Parameter_File>
/export/apps/rDock/src/rDock_2013.1_src/data/scripts/dock_solv.prm

>  <Rbt.Receptor>
prm/blind_docking_40.prm

>  <SCORE>
54.6884

>  <SCORE.INTER>
12.7196

>  <SCORE.INTER.CONST>
1

>  <SCORE.INTER.POLAR>
-0.144096

>  <SCORE.INTER.ROT>
12

>  <SCORE.INTER.SOLV>
20.9077

>  <SCORE.INTER.VDW>
-9.60921

>  <SCORE.INTER.norm>
0.244607

>  <SCORE.INTRA>
19.0065

>  <SCORE.INTRA.DIHEDRAL>
13.0965

>  <SCORE.INTRA.DIHEDRAL.0>
23.9727

>  <SCORE.INTRA.POLAR>
0

>  <SCORE.INTRA.POLAR.0>
0

>  <SCORE.INTRA.REPUL>
0.100345

>  <SCORE.INTRA.REPUL.0>
0

>  <SCORE.INTRA.SOLV>
6.61152

>  <SCORE.INTRA.SOLV.lig_0>
-115.028

>  <SCORE.INTRA.VDW>
8.65073

>  <SCORE.INTRA.VDW.0>
-6.82393

>  <SCORE.INTRA.norm>
0.365509

>  <SCORE.RESTR>
22.9624

>  <SCORE.RESTR.CAVITY>
22.9624

>  <SCORE.RESTR.norm>
0.441585

>  <SCORE.SYSTEM>
0

>  <SCORE.SYSTEM.CONST>
0

>  <SCORE.SYSTEM.DIHEDRAL>
0

>  <SCORE.SYSTEM.SOLV>
0

>  <SCORE.SYSTEM.norm>
0

>  <SCORE.heavy>
52

>  <SCORE.norm>
1.0517

>  <RMSD>
28.228

$$$$
