ligand
  PyMOL2.2          3D                             0

 19 21  0  0  0  0  0  0  0  0999 V2000
   -6.7690   -7.3480   12.1590 C   0  0  0  0  0  0  0  0  0  0  0  0
   -5.8670   -6.4710   12.8500 O   0  0  0  0  0  0  0  0  0  0  0  0
   -7.8310   -6.5390   11.4110 C   0  0  0  0  0  0  0  0  0  0  0  0
   -7.5320   -5.1310   11.4670 O   0  0  0  0  0  0  0  0  0  0  0  0
   -7.8810   -6.9280    9.9440 C   0  0  0  0  0  0  0  0  0  0  0  0
   -9.0200   -7.7520    9.6660 O   0  0  0  0  0  0  0  0  0  0  0  0
   -7.9680   -5.6270    9.1760 C   0  0  0  0  0  0  0  0  0  0  0  0
   -7.5850   -4.5340   10.1630 C   0  0  0  0  0  0  0  0  0  0  0  0
   -4.7470   -0.1290    9.7960 N   0  0  0  0  0  0  0  0  0  0  0  0
   -6.0450   -0.3000   10.1650 C   0  0  0  0  0  0  0  0  0  0  0  0
   -6.7820    0.7850   10.5020 N   0  0  0  0  0  0  0  0  0  0  0  0
   -6.6200   -1.5330   10.1990 N   0  0  0  0  0  0  0  0  0  0  0  0
   -5.9250   -2.6550    9.8680 C   0  0  0  0  0  0  0  0  0  0  0  0
   -4.6010   -2.5420    9.4840 C   0  0  0  0  0  0  0  0  0  0  0  0
   -3.9850   -1.1910    9.4530 C   0  0  0  0  0  0  0  0  0  0  0  0
   -2.7890   -1.0380    9.1180 O   0  0  0  0  0  0  0  0  0  0  0  0
   -4.1440   -3.7780    9.2180 N   0  0  0  0  0  0  0  0  0  0  0  0
   -5.1650   -4.6420    9.4260 C   0  0  0  0  0  0  0  0  0  0  0  0
   -6.2520   -3.9550    9.8220 N   0  0  0  0  0  0  0  0  0  0  0  0
  1  3  1  0  0  0  0
  1  2  1  0  0  0  0
  3  4  1  0  0  0  0
  3  5  1  0  0  0  0
  4  8  1  0  0  0  0
  5  6  1  0  0  0  0
  5  7  1  0  0  0  0
  7  8  1  0  0  0  0
  8 19  1  0  0  0  0
  9 15  4  0  0  0  0
  9 10  4  0  0  0  0
 10 11  1  0  0  0  0
 10 12  4  0  0  0  0
 12 13  4  0  0  0  0
 13 14  4  0  0  0  0
 14 15  4  0  0  0  0
 15 16  2  0  0  0  0
 14 17  4  0  0  0  0
 17 18  4  0  0  0  0
 13 19  4  0  0  0  0
 18 19  4  0  0  0  0
M  END
$$$$
