ligand
 OpenBabel11021811483D
libRbt.so/2013.1/901 2013/11/27
 19 21  0  0  0  0  0  0  0  0999 V2000
   -6.4212   -7.4607   12.1392 C   0  0  0  0  0  0  0  0  0  0  0  0
   -6.2201   -7.0832   13.5093 O   0  0  0  0  0  0  0  0  0  0  0  0
   -7.5736   -6.6596   11.5291 C   0  0  1  0  0  0  0  0  0  0  0  0
   -7.2988   -5.2468   11.5874 O   0  0  0  0  0  0  0  0  0  0  0  0
   -7.7730   -7.0169   10.0667 C   0  0  1  0  0  0  0  0  0  0  0  0
   -8.9183   -7.8602    9.8919 O   0  0  0  0  0  0  0  0  0  0  0  0
   -7.9682   -5.7015    9.3446 C   0  0  0  0  0  0  0  0  0  0  0  0
   -7.5036   -4.6223   10.3116 C   0  0  2  0  0  0  0  0  0  0  0  0
   -4.8408   -0.1383    9.6816 N   0  0  0  0  0  0  0  0  0  0  0  0
   -6.0916   -0.3461   10.1743 C   0  0  1  0  0  0  0  0  0  0  0  0
   -6.8229    0.7176   10.5836 N   0  0  0  0  0  0  0  0  0  0  0  0
   -6.6253   -1.5950   10.2609 N   0  0  0  0  0  0  0  0  0  0  0  0
   -5.9341   -2.6968    9.8615 C   0  0  2  0  0  0  0  0  0  0  0  0
   -4.6573   -2.5463    9.3513 C   0  0  1  0  0  0  0  0  0  0  0  0
   -4.0858   -1.1783    9.2639 C   0  0  0  0  0  0  0  0  0  0  0  0
   -2.9327   -0.9914    8.8149 O   0  0  0  0  0  0  0  0  0  0  0  0
   -4.1933   -3.7689    9.0393 N   0  0  0  0  0  0  0  0  0  0  0  0
   -5.1644   -4.6616    9.3433 C   0  0  0  0  0  0  0  0  0  0  0  0
   -6.2269   -4.0057    9.8444 N   0  0  1  0  0  0  0  0  0  0  0  0
  1  2  1  0  0  0  0
  3  1  1  6  0  0  0
  3  4  1  0  0  0  0
  3  5  1  0  0  0  0
  5  6  1  1  0  0  0
  5  7  1  0  0  0  0
  7  8  1  0  0  0  0
  8  4  1  1  0  0  0
  8 19  1  0  0  0  0
  9 15  1  0  0  0  0
  9 10  1  0  0  0  0
 10 11  1  6  0  0  0
 10 12  1  0  0  0  0
 13 12  1  6  0  0  0
 13 14  1  0  0  0  0
 13 19  1  0  0  0  0
 14 15  1  1  0  0  0
 14 17  1  0  0  0  0
 15 16  2  0  0  0  0
 17 18  1  0  0  0  0
 19 18  1  1  0  0  0
M  END
>  <CHROM.1>
59.38447679,-104.04926144,-6.19776491,-3.91332393,10.28385721,-1.97527422
0.28987069,-0.13014379

>  <Name>
ligand

>  <RI>
0

>  <Rbt.Current_Directory>
/home/itssahil/PROJECTS/Mol_Feturizer/New_Systems/rnas/3SKI

>  <Rbt.Executable>
rbdock ($Id: //depot/dev/client3/rdock/2013.1/src/exe/rbdock.cxx#4 $)

>  <Rbt.Library>
libRbt.so (2013.1, Build901 2013/11/27)

>  <Rbt.Parameter_File>
/export/apps/rDock/src/rDock_2013.1_src/data/scripts/dock_solv.prm

>  <Rbt.Receptor>
prm/pocket_docking_4.prm

>  <SCORE>
-17.2992

>  <SCORE.INTER>
-14.3933

>  <SCORE.INTER.CONST>
1

>  <SCORE.INTER.POLAR>
0

>  <SCORE.INTER.ROT>
2

>  <SCORE.INTER.SOLV>
17.854

>  <SCORE.INTER.VDW>
-20.4802

>  <SCORE.INTER.norm>
-0.757541

>  <SCORE.INTRA>
-2.90591

>  <SCORE.INTRA.DIHEDRAL>
-5.0781

>  <SCORE.INTRA.DIHEDRAL.0>
6.26853

>  <SCORE.INTRA.POLAR>
0

>  <SCORE.INTRA.POLAR.0>
0

>  <SCORE.INTRA.REPUL>
0

>  <SCORE.INTRA.REPUL.0>
0

>  <SCORE.INTRA.SOLV>
-0.231944

>  <SCORE.INTRA.SOLV.lig_0>
-38.4926

>  <SCORE.INTRA.VDW>
-0.250885

>  <SCORE.INTRA.VDW.0>
-0.59057

>  <SCORE.INTRA.norm>
-0.152942

>  <SCORE.RESTR>
0

>  <SCORE.RESTR.CAVITY>
0

>  <SCORE.RESTR.norm>
0

>  <SCORE.SYSTEM>
0

>  <SCORE.SYSTEM.CONST>
0

>  <SCORE.SYSTEM.DIHEDRAL>
0

>  <SCORE.SYSTEM.SOLV>
0

>  <SCORE.SYSTEM.norm>
0

>  <SCORE.heavy>
19

>  <SCORE.norm>
-0.910483

>  <RMSD>
0.299

$$$$
ligand
 OpenBabel11021811483D
libRbt.so/2013.1/901 2013/11/27
 19 21  0  0  0  0  0  0  0  0999 V2000
   -6.4601   -7.5176   12.1095 C   0  0  0  0  0  0  0  0  0  0  0  0
   -6.2998   -7.2363   13.5079 O   0  0  0  0  0  0  0  0  0  0  0  0
   -7.6020   -6.6830   11.5253 C   0  0  1  0  0  0  0  0  0  0  0  0
   -7.3064   -5.2765   11.6223 O   0  0  0  0  0  0  0  0  0  0  0  0
   -7.8100   -6.9963   10.0540 C   0  0  1  0  0  0  0  0  0  0  0  0
   -8.9680   -7.8175    9.8589 O   0  0  0  0  0  0  0  0  0  0  0  0
   -7.9877   -5.6584    9.3696 C   0  0  0  0  0  0  0  0  0  0  0  0
   -7.5050   -4.6136   10.3651 C   0  0  2  0  0  0  0  0  0  0  0  0
   -4.8378   -0.1363    9.7074 N   0  0  0  0  0  0  0  0  0  0  0  0
   -6.0975   -0.3378   10.1793 C   0  0  1  0  0  0  0  0  0  0  0  0
   -6.8384    0.7316   10.5556 N   0  0  0  0  0  0  0  0  0  0  0  0
   -6.6308   -1.5859   10.2778 N   0  0  0  0  0  0  0  0  0  0  0  0
   -5.9302   -2.6934    9.9114 C   0  0  2  0  0  0  0  0  0  0  0  0
   -4.6440   -2.5494    9.4234 C   0  0  1  0  0  0  0  0  0  0  0  0
   -4.0731   -1.1820    9.3228 C   0  0  0  0  0  0  0  0  0  0  0  0
   -2.9119   -1.0008    8.8930 O   0  0  0  0  0  0  0  0  0  0  0  0
   -4.1721   -3.7764    9.1422 N   0  0  0  0  0  0  0  0  0  0  0  0
   -5.1474   -4.6654    9.4431 C   0  0  0  0  0  0  0  0  0  0  0  0
   -6.2205   -4.0028    9.9118 N   0  0  1  0  0  0  0  0  0  0  0  0
  1  2  1  0  0  0  0
  3  1  1  6  0  0  0
  3  4  1  0  0  0  0
  3  5  1  0  0  0  0
  5  6  1  1  0  0  0
  5  7  1  0  0  0  0
  7  8  1  0  0  0  0
  8  4  1  1  0  0  0
  8 19  1  0  0  0  0
  9 15  1  0  0  0  0
  9 10  1  0  0  0  0
 10 11  1  6  0  0  0
 10 12  1  0  0  0  0
 13 12  1  6  0  0  0
 13 14  1  0  0  0  0
 13 19  1  0  0  0  0
 14 15  1  1  0  0  0
 14 17  1  0  0  0  0
 15 16  2  0  0  0  0
 17 18  1  0  0  0  0
 19 18  1  1  0  0  0
M  END
>  <CHROM.1>
62.62438608,-107.10274739,-6.20893063,-3.92178220,10.31331635,-1.96782050
0.19452969,-0.16630755

>  <Name>
ligand

>  <RI>
0

>  <Rbt.Current_Directory>
/home/itssahil/PROJECTS/Mol_Feturizer/New_Systems/rnas/3SKI

>  <Rbt.Executable>
rbdock ($Id: //depot/dev/client3/rdock/2013.1/src/exe/rbdock.cxx#4 $)

>  <Rbt.Library>
libRbt.so (2013.1, Build901 2013/11/27)

>  <Rbt.Parameter_File>
/export/apps/rDock/src/rDock_2013.1_src/data/scripts/dock_solv.prm

>  <Rbt.Receptor>
prm/pocket_docking_2.prm

>  <SCORE>
-17.0938

>  <SCORE.INTER>
-14.1283

>  <SCORE.INTER.CONST>
1

>  <SCORE.INTER.POLAR>
0

>  <SCORE.INTER.ROT>
2

>  <SCORE.INTER.SOLV>
17.7631

>  <SCORE.INTER.VDW>
-20.2732

>  <SCORE.INTER.norm>
-0.743594

>  <SCORE.INTRA>
-2.97047

>  <SCORE.INTRA.DIHEDRAL>
-5.05125

>  <SCORE.INTRA.DIHEDRAL.0>
6.26853

>  <SCORE.INTRA.POLAR>
0

>  <SCORE.INTRA.POLAR.0>
0

>  <SCORE.INTRA.REPUL>
0

>  <SCORE.INTRA.REPUL.0>
0

>  <SCORE.INTRA.SOLV>
-0.243565

>  <SCORE.INTRA.SOLV.lig_0>
-38.4926

>  <SCORE.INTRA.VDW>
-0.323061

>  <SCORE.INTRA.VDW.0>
-0.59057

>  <SCORE.INTRA.norm>
-0.156341

>  <SCORE.RESTR>
0.00497074

>  <SCORE.RESTR.CAVITY>
0.00497074

>  <SCORE.RESTR.norm>
0.000261618

>  <SCORE.SYSTEM>
0

>  <SCORE.SYSTEM.CONST>
0

>  <SCORE.SYSTEM.DIHEDRAL>
0

>  <SCORE.SYSTEM.SOLV>
0

>  <SCORE.SYSTEM.norm>
0

>  <SCORE.heavy>
19

>  <SCORE.norm>
-0.899672

>  <RMSD>
0.311

$$$$
ligand
 OpenBabel11021811483D
libRbt.so/2013.1/901 2013/11/27
 19 21  0  0  0  0  0  0  0  0999 V2000
   -6.6548   -7.1496   12.3936 C   0  0  0  0  0  0  0  0  0  0  0  0
   -5.3660   -6.8966   11.8146 O   0  0  0  0  0  0  0  0  0  0  0  0
   -7.7469   -6.4305   11.5987 C   0  0  1  0  0  0  0  0  0  0  0  0
   -7.4873   -5.0147   11.5420 O   0  0  0  0  0  0  0  0  0  0  0  0
   -7.8010   -6.9333   10.1668 C   0  0  1  0  0  0  0  0  0  0  0  0
   -8.9190   -7.8073    9.9675 O   0  0  0  0  0  0  0  0  0  0  0  0
   -7.9327   -5.6987    9.3018 C   0  0  0  0  0  0  0  0  0  0  0  0
   -7.5706   -4.5223   10.1965 C   0  0  2  0  0  0  0  0  0  0  0  0
   -4.7384   -0.1150    9.8132 N   0  0  0  0  0  0  0  0  0  0  0  0
   -6.0122   -0.2955   10.2549 C   0  0  1  0  0  0  0  0  0  0  0  0
   -6.7218    0.7788   10.6749 N   0  0  0  0  0  0  0  0  0  0  0  0
   -6.5902   -1.5273   10.2801 N   0  0  0  0  0  0  0  0  0  0  0  0
   -5.9224   -2.6386    9.8674 C   0  0  2  0  0  0  0  0  0  0  0  0
   -4.6238   -2.5156    9.4071 C   0  0  1  0  0  0  0  0  0  0  0  0
   -4.0042   -1.1661    9.3865 C   0  0  0  0  0  0  0  0  0  0  0  0
   -2.8302   -1.0046    8.9844 O   0  0  0  0  0  0  0  0  0  0  0  0
   -4.1902   -3.7426    9.0697 N   0  0  0  0  0  0  0  0  0  0  0  0
   -5.2008   -4.6106    9.3090 C   0  0  0  0  0  0  0  0  0  0  0  0
   -6.2581   -3.9352    9.7952 N   0  0  1  0  0  0  0  0  0  0  0  0
  1  2  1  0  0  0  0
  3  1  1  1  0  0  0
  3  4  1  0  0  0  0
  3  5  1  0  0  0  0
  5  6  1  1  0  0  0
  5  7  1  0  0  0  0
  7  8  1  0  0  0  0
  8  4  1  1  0  0  0
  8 19  1  0  0  0  0
  9 15  1  0  0  0  0
  9 10  1  0  0  0  0
 10 11  1  6  0  0  0
 10 12  1  0  0  0  0
 13 12  1  6  0  0  0
 13 14  1  0  0  0  0
 13 19  1  0  0  0  0
 14 15  1  1  0  0  0
 14 17  1  0  0  0  0
 15 16  2  0  0  0  0
 17 18  1  0  0  0  0
 19 18  1  1  0  0  0
M  END
>  <CHROM.1>
-57.26264787,-95.25493275,-6.15565890,-3.82515017,10.22895347,-1.99821027
0.25226056,-0.07650996

>  <Name>
ligand

>  <RI>
0

>  <Rbt.Current_Directory>
/home/itssahil/PROJECTS/Mol_Feturizer/New_Systems/rnas/3SKI

>  <Rbt.Executable>
rbdock ($Id: //depot/dev/client3/rdock/2013.1/src/exe/rbdock.cxx#4 $)

>  <Rbt.Library>
libRbt.so (2013.1, Build901 2013/11/27)

>  <Rbt.Parameter_File>
/export/apps/rDock/src/rDock_2013.1_src/data/scripts/dock_solv.prm

>  <Rbt.Receptor>
prm/pocket_docking_5.prm

>  <SCORE>
-17.1533

>  <SCORE.INTER>
-14.4099

>  <SCORE.INTER.CONST>
1

>  <SCORE.INTER.POLAR>
0

>  <SCORE.INTER.ROT>
2

>  <SCORE.INTER.SOLV>
18.0873

>  <SCORE.INTER.VDW>
-20.569

>  <SCORE.INTER.norm>
-0.758416

>  <SCORE.INTRA>
-2.74336

>  <SCORE.INTRA.DIHEDRAL>
-5.05547

>  <SCORE.INTRA.DIHEDRAL.0>
6.26853

>  <SCORE.INTRA.POLAR>
0

>  <SCORE.INTRA.POLAR.0>
0

>  <SCORE.INTRA.REPUL>
0

>  <SCORE.INTRA.REPUL.0>
0

>  <SCORE.INTRA.SOLV>
0.25894

>  <SCORE.INTRA.SOLV.lig_0>
-38.4926

>  <SCORE.INTRA.VDW>
-0.345097

>  <SCORE.INTRA.VDW.0>
-0.59057

>  <SCORE.INTRA.norm>
-0.144387

>  <SCORE.RESTR>
0

>  <SCORE.RESTR.CAVITY>
0

>  <SCORE.RESTR.norm>
0

>  <SCORE.SYSTEM>
0

>  <SCORE.SYSTEM.CONST>
0

>  <SCORE.SYSTEM.DIHEDRAL>
0

>  <SCORE.SYSTEM.SOLV>
0

>  <SCORE.SYSTEM.norm>
0

>  <SCORE.heavy>
19

>  <SCORE.norm>
-0.902803

>  <RMSD>
0.324

$$$$
ligand
 OpenBabel11021811483D
libRbt.so/2013.1/901 2013/11/27
 19 21  0  0  0  0  0  0  0  0999 V2000
   -6.6164   -7.2167   12.3682 C   0  0  0  0  0  0  0  0  0  0  0  0
   -5.3344   -6.9134   11.7985 O   0  0  0  0  0  0  0  0  0  0  0  0
   -7.7241   -6.4819   11.6100 C   0  0  1  0  0  0  0  0  0  0  0  0
   -7.4684   -5.0646   11.5816 O   0  0  0  0  0  0  0  0  0  0  0  0
   -7.8030   -6.9515   10.1680 C   0  0  1  0  0  0  0  0  0  0  0  0
   -8.9227   -7.8233    9.9686 O   0  0  0  0  0  0  0  0  0  0  0  0
   -7.9527   -5.6974    9.3344 C   0  0  0  0  0  0  0  0  0  0  0  0
   -7.5769   -4.5413   10.2497 C   0  0  2  0  0  0  0  0  0  0  0  0
   -4.8191   -0.0967    9.7666 N   0  0  0  0  0  0  0  0  0  0  0  0
   -6.0914   -0.2880   10.2079 C   0  0  1  0  0  0  0  0  0  0  0  0
   -6.8210    0.7840   10.5983 N   0  0  0  0  0  0  0  0  0  0  0  0
   -6.6483   -1.5286   10.2619 N   0  0  0  0  0  0  0  0  0  0  0  0
   -5.9599   -2.6382    9.8795 C   0  0  2  0  0  0  0  0  0  0  0  0
   -4.6617   -2.5044    9.4211 C   0  0  1  0  0  0  0  0  0  0  0  0
   -4.0652   -1.1454    9.3690 C   0  0  0  0  0  0  0  0  0  0  0  0
   -2.8925   -0.9737    8.9673 O   0  0  0  0  0  0  0  0  0  0  0  0
   -4.2057   -3.7318    9.1162 N   0  0  0  0  0  0  0  0  0  0  0  0
   -5.2023   -4.6108    9.3734 C   0  0  0  0  0  0  0  0  0  0  0  0
   -6.2730   -3.9418    9.8386 N   0  0  1  0  0  0  0  0  0  0  0  0
  1  2  1  0  0  0  0
  3  1  1  1  0  0  0
  3  4  1  0  0  0  0
  3  5  1  0  0  0  0
  5  6  1  1  0  0  0
  5  7  1  0  0  0  0
  7  8  1  0  0  0  0
  8  4  1  1  0  0  0
  8 19  1  0  0  0  0
  9 15  1  0  0  0  0
  9 10  1  0  0  0  0
 10 11  1  6  0  0  0
 10 12  1  0  0  0  0
 13 12  1  6  0  0  0
 13 14  1  0  0  0  0
 13 19  1  0  0  0  0
 14 15  1  1  0  0  0
 14 17  1  0  0  0  0
 15 16  2  0  0  0  0
 17 18  1  0  0  0  0
 19 18  1  1  0  0  0
M  END
>  <CHROM.1>
-55.42987003,-98.41176405,-6.17927493,-3.83302705,10.23150237,-1.97846287
0.22217977,-0.09996225

>  <Name>
ligand

>  <RI>
0

>  <Rbt.Current_Directory>
/home/itssahil/PROJECTS/Mol_Feturizer/New_Systems/rnas/3SKI

>  <Rbt.Executable>
rbdock ($Id: //depot/dev/client3/rdock/2013.1/src/exe/rbdock.cxx#4 $)

>  <Rbt.Library>
libRbt.so (2013.1, Build901 2013/11/27)

>  <Rbt.Parameter_File>
/export/apps/rDock/src/rDock_2013.1_src/data/scripts/dock_solv.prm

>  <Rbt.Receptor>
prm/pocket_docking_3.prm

>  <SCORE>
-17.2472

>  <SCORE.INTER>
-14.457

>  <SCORE.INTER.CONST>
1

>  <SCORE.INTER.POLAR>
0

>  <SCORE.INTER.ROT>
2

>  <SCORE.INTER.SOLV>
18.1933

>  <SCORE.INTER.VDW>
-20.6358

>  <SCORE.INTER.norm>
-0.760895

>  <SCORE.INTRA>
-2.7902

>  <SCORE.INTRA.DIHEDRAL>
-5.0056

>  <SCORE.INTRA.DIHEDRAL.0>
6.26853

>  <SCORE.INTRA.POLAR>
0

>  <SCORE.INTRA.POLAR.0>
0

>  <SCORE.INTRA.REPUL>
0

>  <SCORE.INTRA.REPUL.0>
0

>  <SCORE.INTRA.SOLV>
0.258433

>  <SCORE.INTRA.SOLV.lig_0>
-38.4926

>  <SCORE.INTRA.VDW>
-0.416611

>  <SCORE.INTRA.VDW.0>
-0.59057

>  <SCORE.INTRA.norm>
-0.146852

>  <SCORE.RESTR>
0

>  <SCORE.RESTR.CAVITY>
0

>  <SCORE.RESTR.norm>
0

>  <SCORE.SYSTEM>
0

>  <SCORE.SYSTEM.CONST>
0

>  <SCORE.SYSTEM.DIHEDRAL>
0

>  <SCORE.SYSTEM.SOLV>
0

>  <SCORE.SYSTEM.norm>
0

>  <SCORE.heavy>
19

>  <SCORE.norm>
-0.907748

>  <RMSD>
0.329

$$$$
ligand
 OpenBabel11021811483D
libRbt.so/2013.1/901 2013/11/27
 19 21  0  0  0  0  0  0  0  0999 V2000
   -6.6244   -7.1815   12.4636 C   0  0  0  0  0  0  0  0  0  0  0  0
   -5.3269   -6.9502   11.8949 O   0  0  0  0  0  0  0  0  0  0  0  0
   -7.7080   -6.5289   11.6025 C   0  0  1  0  0  0  0  0  0  0  0  0
   -7.4916   -5.1083   11.5013 O   0  0  0  0  0  0  0  0  0  0  0  0
   -7.6921   -7.0858   10.1898 C   0  0  1  0  0  0  0  0  0  0  0  0
   -8.7735   -8.0031    9.9834 O   0  0  0  0  0  0  0  0  0  0  0  0
   -7.8303   -5.8890    9.2741 C   0  0  0  0  0  0  0  0  0  0  0  0
   -7.5397   -4.6690   10.1359 C   0  0  2  0  0  0  0  0  0  0  0  0
   -4.7875   -0.2053    9.8296 N   0  0  0  0  0  0  0  0  0  0  0  0
   -6.0648   -0.4134   10.2486 C   0  0  1  0  0  0  0  0  0  0  0  0
   -6.8019    0.6441   10.6637 N   0  0  0  0  0  0  0  0  0  0  0  0
   -6.6191   -1.6563   10.2559 N   0  0  0  0  0  0  0  0  0  0  0  0
   -5.9231   -2.7516    9.8470 C   0  0  2  0  0  0  0  0  0  0  0  0
   -4.6197   -2.6004    9.4095 C   0  0  1  0  0  0  0  0  0  0  0  0
   -4.0260   -1.2391    9.4083 C   0  0  0  0  0  0  0  0  0  0  0  0
   -2.8488   -1.0522    9.0271 O   0  0  0  0  0  0  0  0  0  0  0  0
   -4.1567   -3.8164    9.0713 N   0  0  0  0  0  0  0  0  0  0  0  0
   -5.1542   -4.7054    9.2879 C   0  0  0  0  0  0  0  0  0  0  0  0
   -6.2323   -4.0539    9.7607 N   0  0  1  0  0  0  0  0  0  0  0  0
  1  2  1  0  0  0  0
  3  1  1  1  0  0  0
  3  4  1  0  0  0  0
  3  5  1  0  0  0  0
  5  6  1  1  0  0  0
  5  7  1  0  0  0  0
  7  8  1  0  0  0  0
  8  4  1  1  0  0  0
  8 19  1  0  0  0  0
  9 15  1  0  0  0  0
  9 10  1  0  0  0  0
 10 11  1  6  0  0  0
 10 12  1  0  0  0  0
 13 12  1  6  0  0  0
 13 14  1  0  0  0  0
 13 19  1  0  0  0  0
 14 15  1  1  0  0  0
 14 17  1  0  0  0  0
 15 16  2  0  0  0  0
 17 18  1  0  0  0  0
 19 18  1  1  0  0  0
M  END
>  <CHROM.1>
-59.44078889,-92.35895066,-6.13613404,-3.93236480,10.23168587,-1.98289220
0.25998337,-0.07781840

>  <Name>
ligand

>  <RI>
0

>  <Rbt.Current_Directory>
/home/itssahil/PROJECTS/Mol_Feturizer/New_Systems/rnas/3SKI

>  <Rbt.Executable>
rbdock ($Id: //depot/dev/client3/rdock/2013.1/src/exe/rbdock.cxx#4 $)

>  <Rbt.Library>
libRbt.so (2013.1, Build901 2013/11/27)

>  <Rbt.Parameter_File>
/export/apps/rDock/src/rDock_2013.1_src/data/scripts/dock_solv.prm

>  <Rbt.Receptor>
prm/pocket_docking_3.prm

>  <SCORE>
-17.1361

>  <SCORE.INTER>
-14.4537

>  <SCORE.INTER.CONST>
1

>  <SCORE.INTER.POLAR>
0

>  <SCORE.INTER.ROT>
2

>  <SCORE.INTER.SOLV>
17.9213

>  <SCORE.INTER.VDW>
-20.5429

>  <SCORE.INTER.norm>
-0.760722

>  <SCORE.INTRA>
-2.68239

>  <SCORE.INTRA.DIHEDRAL>
-5.08275

>  <SCORE.INTRA.DIHEDRAL.0>
6.26853

>  <SCORE.INTRA.POLAR>
0

>  <SCORE.INTRA.POLAR.0>
0

>  <SCORE.INTRA.REPUL>
0

>  <SCORE.INTRA.REPUL.0>
0

>  <SCORE.INTRA.SOLV>
0.259646

>  <SCORE.INTRA.SOLV.lig_0>
-38.4926

>  <SCORE.INTRA.VDW>
-0.270833

>  <SCORE.INTRA.VDW.0>
-0.59057

>  <SCORE.INTRA.norm>
-0.141178

>  <SCORE.RESTR>
0

>  <SCORE.RESTR.CAVITY>
0

>  <SCORE.RESTR.norm>
0

>  <SCORE.SYSTEM>
0

>  <SCORE.SYSTEM.CONST>
0

>  <SCORE.SYSTEM.DIHEDRAL>
0

>  <SCORE.SYSTEM.SOLV>
0

>  <SCORE.SYSTEM.norm>
0

>  <SCORE.heavy>
19

>  <SCORE.norm>
-0.9019

>  <RMSD>
0.347

$$$$
ligand
 OpenBabel11021811483D
libRbt.so/2013.1/901 2013/11/27
 19 21  0  0  0  0  0  0  0  0999 V2000
   -6.3747   -7.6724   11.9713 C   0  0  0  0  0  0  0  0  0  0  0  0
   -6.1553   -7.4479   13.3719 O   0  0  0  0  0  0  0  0  0  0  0  0
   -7.5345   -6.8100   11.4683 C   0  0  1  0  0  0  0  0  0  0  0  0
   -7.2259   -5.4099   11.6072 O   0  0  0  0  0  0  0  0  0  0  0  0
   -7.8060   -7.0647    9.9961 C   0  0  1  0  0  0  0  0  0  0  0  0
   -8.9765   -7.8720    9.8182 O   0  0  0  0  0  0  0  0  0  0  0  0
   -8.0033   -5.7003    9.3720 C   0  0  0  0  0  0  0  0  0  0  0  0
   -7.4726   -4.6975   10.3860 C   0  0  2  0  0  0  0  0  0  0  0  0
   -4.8647   -0.1967    9.6548 N   0  0  0  0  0  0  0  0  0  0  0  0
   -6.1120   -0.4088   10.1543 C   0  0  1  0  0  0  0  0  0  0  0  0
   -6.8552    0.6547   10.5424 N   0  0  0  0  0  0  0  0  0  0  0  0
   -6.6306   -1.6617   10.2688 N   0  0  0  0  0  0  0  0  0  0  0  0
   -5.9270   -2.7636    9.8916 C   0  0  2  0  0  0  0  0  0  0  0  0
   -4.6530   -2.6089    9.3756 C   0  0  1  0  0  0  0  0  0  0  0  0
   -4.0981   -1.2364    9.2578 C   0  0  0  0  0  0  0  0  0  0  0  0
   -2.9482   -1.0454    8.8025 O   0  0  0  0  0  0  0  0  0  0  0  0
   -4.1751   -3.8323    9.0889 N   0  0  0  0  0  0  0  0  0  0  0  0
   -5.1348   -4.7297    9.4139 C   0  0  0  0  0  0  0  0  0  0  0  0
   -6.2042   -4.0759    9.9031 N   0  0  1  0  0  0  0  0  0  0  0  0
  1  2  1  0  0  0  0
  3  1  1  6  0  0  0
  3  4  1  0  0  0  0
  3  5  1  0  0  0  0
  5  6  1  1  0  0  0
  5  7  1  0  0  0  0
  7  8  1  0  0  0  0
  8  4  1  1  0  0  0
  8 19  1  0  0  0  0
  9 15  1  0  0  0  0
  9 10  1  0  0  0  0
 10 11  1  6  0  0  0
 10 12  1  0  0  0  0
 13 12  1  6  0  0  0
 13 14  1  0  0  0  0
 13 19  1  0  0  0  0
 14 15  1  1  0  0  0
 14 17  1  0  0  0  0
 15 16  2  0  0  0  0
 17 18  1  0  0  0  0
 19 18  1  1  0  0  0
M  END
>  <CHROM.1>
62.70362079,-109.96000547,-6.19209615,-4.00649537,10.26814271,-1.95014122
0.15820541,-0.18052411

>  <Name>
ligand

>  <RI>
0

>  <Rbt.Current_Directory>
/home/itssahil/PROJECTS/Mol_Feturizer/New_Systems/rnas/3SKI

>  <Rbt.Executable>
rbdock ($Id: //depot/dev/client3/rdock/2013.1/src/exe/rbdock.cxx#4 $)

>  <Rbt.Library>
libRbt.so (2013.1, Build901 2013/11/27)

>  <Rbt.Parameter_File>
/export/apps/rDock/src/rDock_2013.1_src/data/scripts/dock_solv.prm

>  <Rbt.Receptor>
prm/pocket_docking_2.prm

>  <SCORE>
-17.0445

>  <SCORE.INTER>
-14.0349

>  <SCORE.INTER.CONST>
1

>  <SCORE.INTER.POLAR>
0

>  <SCORE.INTER.ROT>
2

>  <SCORE.INTER.SOLV>
17.4509

>  <SCORE.INTER.VDW>
-20.1069

>  <SCORE.INTER.norm>
-0.73868

>  <SCORE.INTRA>
-3.00963

>  <SCORE.INTRA.DIHEDRAL>
-5.04738

>  <SCORE.INTRA.DIHEDRAL.0>
6.26853

>  <SCORE.INTRA.POLAR>
0

>  <SCORE.INTRA.POLAR.0>
0

>  <SCORE.INTRA.REPUL>
0

>  <SCORE.INTRA.REPUL.0>
0

>  <SCORE.INTRA.SOLV>
-0.243364

>  <SCORE.INTRA.SOLV.lig_0>
-38.4926

>  <SCORE.INTRA.VDW>
-0.364261

>  <SCORE.INTRA.VDW.0>
-0.59057

>  <SCORE.INTRA.norm>
-0.158402

>  <SCORE.RESTR>
0

>  <SCORE.RESTR.CAVITY>
0

>  <SCORE.RESTR.norm>
0

>  <SCORE.SYSTEM>
0

>  <SCORE.SYSTEM.CONST>
0

>  <SCORE.SYSTEM.DIHEDRAL>
0

>  <SCORE.SYSTEM.SOLV>
0

>  <SCORE.SYSTEM.norm>
0

>  <SCORE.heavy>
19

>  <SCORE.norm>
-0.897081

>  <RMSD>
0.365

$$$$
ligand
 OpenBabel11021811483D
libRbt.so/2013.1/901 2013/11/27
 19 21  0  0  0  0  0  0  0  0999 V2000
   -6.2492   -7.4805   12.2042 C   0  0  0  0  0  0  0  0  0  0  0  0
   -6.0523   -7.1509   13.5872 O   0  0  0  0  0  0  0  0  0  0  0  0
   -7.4284   -6.6916   11.6307 C   0  0  1  0  0  0  0  0  0  0  0  0
   -7.1662   -5.2760   11.6793 O   0  0  0  0  0  0  0  0  0  0  0  0
   -7.6708   -7.0523   10.1757 C   0  0  1  0  0  0  0  0  0  0  0  0
   -8.8126   -7.9073   10.0381 O   0  0  0  0  0  0  0  0  0  0  0  0
   -7.9023   -5.7396    9.4593 C   0  0  0  0  0  0  0  0  0  0  0  0
   -7.4180   -4.6548   10.4103 C   0  0  2  0  0  0  0  0  0  0  0  0
   -4.8449   -0.1402    9.6422 N   0  0  0  0  0  0  0  0  0  0  0  0
   -6.0798   -0.3596   10.1684 C   0  0  1  0  0  0  0  0  0  0  0  0
   -6.8185    0.6990   10.5779 N   0  0  0  0  0  0  0  0  0  0  0  0
   -6.5908   -1.6152   10.2886 N   0  0  0  0  0  0  0  0  0  0  0  0
   -5.8914   -2.7124    9.8906 C   0  0  2  0  0  0  0  0  0  0  0  0
   -4.6299   -2.5501    9.3471 C   0  0  1  0  0  0  0  0  0  0  0  0
   -4.0832   -1.1749    9.2234 C   0  0  0  0  0  0  0  0  0  0  0  0
   -2.9445   -0.9772    8.7435 O   0  0  0  0  0  0  0  0  0  0  0  0
   -4.1536   -3.7702    9.0441 N   0  0  0  0  0  0  0  0  0  0  0  0
   -5.1024   -4.6730    9.3862 C   0  0  0  0  0  0  0  0  0  0  0  0
   -6.1632   -4.0259    9.9021 N   0  0  1  0  0  0  0  0  0  0  0  0
  1  2  1  0  0  0  0
  3  1  1  6  0  0  0
  3  4  1  0  0  0  0
  3  5  1  0  0  0  0
  5  6  1  1  0  0  0
  5  7  1  0  0  0  0
  7  8  1  0  0  0  0
  8  4  1  1  0  0  0
  8 19  1  0  0  0  0
  9 15  1  0  0  0  0
  9 10  1  0  0  0  0
 10 11  1  6  0  0  0
 10 12  1  0  0  0  0
 13 12  1  6  0  0  0
 13 14  1  0  0  0  0
 13 19  1  0  0  0  0
 14 15  1  1  0  0  0
 14 17  1  0  0  0  0
 15 16  2  0  0  0  0
 17 18  1  0  0  0  0
 19 18  1  1  0  0  0
M  END
>  <CHROM.1>
62.38852991,-105.11872469,-6.13008128,-3.93457003,10.32731000,-1.95176485
0.28788445,-0.15871210

>  <Name>
ligand

>  <RI>
0

>  <Rbt.Current_Directory>
/home/itssahil/PROJECTS/Mol_Feturizer/New_Systems/rnas/3SKI

>  <Rbt.Executable>
rbdock ($Id: //depot/dev/client3/rdock/2013.1/src/exe/rbdock.cxx#4 $)

>  <Rbt.Library>
libRbt.so (2013.1, Build901 2013/11/27)

>  <Rbt.Parameter_File>
/export/apps/rDock/src/rDock_2013.1_src/data/scripts/dock_solv.prm

>  <Rbt.Receptor>
prm/pocket_docking_6.prm

>  <SCORE>
-17.1802

>  <SCORE.INTER>
-14.2378

>  <SCORE.INTER.CONST>
1

>  <SCORE.INTER.POLAR>
0

>  <SCORE.INTER.ROT>
2

>  <SCORE.INTER.SOLV>
17.8453

>  <SCORE.INTER.VDW>
-20.3736

>  <SCORE.INTER.norm>
-0.749359

>  <SCORE.INTRA>
-2.94235

>  <SCORE.INTRA.DIHEDRAL>
-5.05706

>  <SCORE.INTRA.DIHEDRAL.0>
6.26853

>  <SCORE.INTRA.POLAR>
0

>  <SCORE.INTRA.POLAR.0>
0

>  <SCORE.INTRA.REPUL>
0

>  <SCORE.INTRA.REPUL.0>
0

>  <SCORE.INTRA.SOLV>
-0.243053

>  <SCORE.INTRA.SOLV.lig_0>
-38.4926

>  <SCORE.INTRA.VDW>
-0.292293

>  <SCORE.INTRA.VDW.0>
-0.59057

>  <SCORE.INTRA.norm>
-0.154861

>  <SCORE.RESTR>
0

>  <SCORE.RESTR.CAVITY>
0

>  <SCORE.RESTR.norm>
0

>  <SCORE.SYSTEM>
0

>  <SCORE.SYSTEM.CONST>
0

>  <SCORE.SYSTEM.DIHEDRAL>
0

>  <SCORE.SYSTEM.SOLV>
0

>  <SCORE.SYSTEM.norm>
0

>  <SCORE.heavy>
19

>  <SCORE.norm>
-0.90422

>  <RMSD>
0.374

$$$$
ligand
 OpenBabel11021811483D
libRbt.so/2013.1/901 2013/11/27
 19 21  0  0  0  0  0  0  0  0999 V2000
   -6.7104   -7.1024   12.6276 C   0  0  0  0  0  0  0  0  0  0  0  0
   -5.3797   -6.8178   12.1709 O   0  0  0  0  0  0  0  0  0  0  0  0
   -7.7404   -6.6138   11.6067 C   0  0  1  0  0  0  0  0  0  0  0  0
   -7.5995   -5.1985   11.3783 O   0  0  0  0  0  0  0  0  0  0  0  0
   -7.5519   -7.3043   10.2675 C   0  0  1  0  0  0  0  0  0  0  0  0
   -8.5514   -8.3099   10.0590 O   0  0  0  0  0  0  0  0  0  0  0  0
   -7.6695   -6.2156    9.2230 C   0  0  0  0  0  0  0  0  0  0  0  0
   -7.5384   -4.8998    9.9760 C   0  0  2  0  0  0  0  0  0  0  0  0
   -4.9599   -0.3293    9.7422 N   0  0  0  0  0  0  0  0  0  0  0  0
   -6.2483   -0.5847   10.0957 C   0  0  1  0  0  0  0  0  0  0  0  0
   -7.0498    0.4467   10.4530 N   0  0  0  0  0  0  0  0  0  0  0  0
   -6.7505   -1.8496   10.0943 N   0  0  0  0  0  0  0  0  0  0  0  0
   -5.9889   -2.9206    9.7417 C   0  0  2  0  0  0  0  0  0  0  0  0
   -4.6710   -2.7211    9.3720 C   0  0  1  0  0  0  0  0  0  0  0  0
   -4.1347   -1.3362    9.3797 C   0  0  0  0  0  0  0  0  0  0  0  0
   -2.9473   -1.1055    9.0589 O   0  0  0  0  0  0  0  0  0  0  0  0
   -4.1407   -3.9213    9.0796 N   0  0  0  0  0  0  0  0  0  0  0  0
   -5.1110   -4.8482    9.2574 C   0  0  0  0  0  0  0  0  0  0  0  0
   -6.2390   -4.2358    9.6608 N   0  0  1  0  0  0  0  0  0  0  0  0
  1  2  1  0  0  0  0
  3  1  1  1  0  0  0
  3  4  1  0  0  0  0
  3  5  1  0  0  0  0
  5  6  1  6  0  0  0
  5  7  1  0  0  0  0
  7  8  1  0  0  0  0
  8  4  1  1  0  0  0
  8 19  1  0  0  0  0
  9 15  1  0  0  0  0
  9 10  1  0  0  0  0
 10 11  1  6  0  0  0
 10 12  1  0  0  0  0
 13 12  1  6  0  0  0
 13 14  1  0  0  0  0
 13 19  1  0  0  0  0
 14 15  1  1  0  0  0
 14 17  1  0  0  0  0
 15 16  2  0  0  0  0
 17 18  1  0  0  0  0
 19 18  1  1  0  0  0
M  END
>  <CHROM.1>
-58.42055325,-86.72178950,-6.17486986,-4.06696197,10.20392637,-1.95738390
0.26128950,-0.10677639

>  <Name>
ligand

>  <RI>
0

>  <Rbt.Current_Directory>
/home/itssahil/PROJECTS/Mol_Feturizer/New_Systems/rnas/3SKI

>  <Rbt.Executable>
rbdock ($Id: //depot/dev/client3/rdock/2013.1/src/exe/rbdock.cxx#4 $)

>  <Rbt.Library>
libRbt.so (2013.1, Build901 2013/11/27)

>  <Rbt.Parameter_File>
/export/apps/rDock/src/rDock_2013.1_src/data/scripts/dock_solv.prm

>  <Rbt.Receptor>
prm/pocket_docking_2.prm

>  <SCORE>
-17.2623

>  <SCORE.INTER>
-14.6798

>  <SCORE.INTER.CONST>
1

>  <SCORE.INTER.POLAR>
0

>  <SCORE.INTER.ROT>
2

>  <SCORE.INTER.SOLV>
18.1006

>  <SCORE.INTER.VDW>
-20.7534

>  <SCORE.INTER.norm>
-0.772619

>  <SCORE.INTRA>
-2.58256

>  <SCORE.INTRA.DIHEDRAL>
-5.07446

>  <SCORE.INTRA.DIHEDRAL.0>
6.26853

>  <SCORE.INTRA.POLAR>
0

>  <SCORE.INTRA.POLAR.0>
0

>  <SCORE.INTRA.REPUL>
0

>  <SCORE.INTRA.REPUL.0>
0

>  <SCORE.INTRA.SOLV>
0.252428

>  <SCORE.INTRA.SOLV.lig_0>
-38.4926

>  <SCORE.INTRA.VDW>
-0.171538

>  <SCORE.INTRA.VDW.0>
-0.59057

>  <SCORE.INTRA.norm>
-0.135924

>  <SCORE.RESTR>
0

>  <SCORE.RESTR.CAVITY>
0

>  <SCORE.RESTR.norm>
0

>  <SCORE.SYSTEM>
0

>  <SCORE.SYSTEM.CONST>
0

>  <SCORE.SYSTEM.DIHEDRAL>
0

>  <SCORE.SYSTEM.SOLV>
0

>  <SCORE.SYSTEM.norm>
0

>  <SCORE.heavy>
19

>  <SCORE.norm>
-0.908543

>  <RMSD>
0.447

$$$$
ligand
 OpenBabel11021811483D
libRbt.so/2013.1/901 2013/11/27
 19 21  0  0  0  0  0  0  0  0999 V2000
   -6.1571   -7.4450   12.4191 C   0  0  0  0  0  0  0  0  0  0  0  0
   -5.9853   -7.0411   13.7856 O   0  0  0  0  0  0  0  0  0  0  0  0
   -7.3479   -6.7157   11.7932 C   0  0  1  0  0  0  0  0  0  0  0  0
   -7.1211   -5.2933   11.7734 O   0  0  0  0  0  0  0  0  0  0  0  0
   -7.5630   -7.1548   10.3555 C   0  0  1  0  0  0  0  0  0  0  0  0
   -8.6817   -8.0439   10.2481 O   0  0  0  0  0  0  0  0  0  0  0  0
   -7.8175   -5.8858    9.5713 C   0  0  0  0  0  0  0  0  0  0  0  0
   -7.3719   -4.7430   10.4719 C   0  0  2  0  0  0  0  0  0  0  0  0
   -4.8327   -0.2170    9.6588 N   0  0  0  0  0  0  0  0  0  0  0  0
   -6.0603   -0.4413   10.2001 C   0  0  1  0  0  0  0  0  0  0  0  0
   -6.7999    0.6146   10.6145 N   0  0  0  0  0  0  0  0  0  0  0  0
   -6.5629   -1.6993   10.3303 N   0  0  0  0  0  0  0  0  0  0  0  0
   -5.8622   -2.7941    9.9280 C   0  0  2  0  0  0  0  0  0  0  0  0
   -4.6080   -2.6268    9.3693 C   0  0  1  0  0  0  0  0  0  0  0  0
   -4.0703   -1.2490    9.2346 C   0  0  0  0  0  0  0  0  0  0  0  0
   -2.9383   -1.0467    8.7409 O   0  0  0  0  0  0  0  0  0  0  0  0
   -4.1285   -3.8453    9.0649 N   0  0  0  0  0  0  0  0  0  0  0  0
   -5.0683   -4.7521    9.4210 C   0  0  0  0  0  0  0  0  0  0  0  0
   -6.1266   -4.1089    9.9471 N   0  0  1  0  0  0  0  0  0  0  0  0
  1  2  1  0  0  0  0
  3  1  1  6  0  0  0
  3  4  1  0  0  0  0
  3  5  1  0  0  0  0
  5  6  1  1  0  0  0
  5  7  1  0  0  0  0
  7  8  1  0  0  0  0
  8  4  1  1  0  0  0
  8 19  1  0  0  0  0
  9 15  1  0  0  0  0
  9 10  1  0  0  0  0
 10 11  1  6  0  0  0
 10 12  1  0  0  0  0
 13 12  1  6  0  0  0
 13 14  1  0  0  0  0
 13 19  1  0  0  0  0
 14 15  1  1  0  0  0
 14 17  1  0  0  0  0
 15 16  2  0  0  0  0
 17 18  1  0  0  0  0
 19 18  1  1  0  0  0
M  END
>  <CHROM.1>
62.34785212,-101.91443623,-6.08176592,-3.99790534,10.41054820,-1.96213561
0.41620256,-0.13050015

>  <Name>
ligand

>  <RI>
0

>  <Rbt.Current_Directory>
/home/itssahil/PROJECTS/Mol_Feturizer/New_Systems/rnas/3SKI

>  <Rbt.Executable>
rbdock ($Id: //depot/dev/client3/rdock/2013.1/src/exe/rbdock.cxx#4 $)

>  <Rbt.Library>
libRbt.so (2013.1, Build901 2013/11/27)

>  <Rbt.Parameter_File>
/export/apps/rDock/src/rDock_2013.1_src/data/scripts/dock_solv.prm

>  <Rbt.Receptor>
prm/pocket_docking_2.prm

>  <SCORE>
-17.1716

>  <SCORE.INTER>
-14.2798

>  <SCORE.INTER.CONST>
1

>  <SCORE.INTER.POLAR>
0

>  <SCORE.INTER.ROT>
2

>  <SCORE.INTER.SOLV>
17.8812

>  <SCORE.INTER.VDW>
-20.4136

>  <SCORE.INTER.norm>
-0.751569

>  <SCORE.INTRA>
-2.89175

>  <SCORE.INTRA.DIHEDRAL>
-5.05984

>  <SCORE.INTRA.DIHEDRAL.0>
6.26853

>  <SCORE.INTRA.POLAR>
0

>  <SCORE.INTRA.POLAR.0>
0

>  <SCORE.INTRA.REPUL>
0

>  <SCORE.INTRA.REPUL.0>
0

>  <SCORE.INTRA.SOLV>
-0.243139

>  <SCORE.INTRA.SOLV.lig_0>
-38.4926

>  <SCORE.INTRA.VDW>
-0.24026

>  <SCORE.INTRA.VDW.0>
-0.59057

>  <SCORE.INTRA.norm>
-0.152197

>  <SCORE.RESTR>
7.237e-06

>  <SCORE.RESTR.CAVITY>
7.237e-06

>  <SCORE.RESTR.norm>
3.80895e-07

>  <SCORE.SYSTEM>
0

>  <SCORE.SYSTEM.CONST>
0

>  <SCORE.SYSTEM.DIHEDRAL>
0

>  <SCORE.SYSTEM.SOLV>
0

>  <SCORE.SYSTEM.norm>
0

>  <SCORE.heavy>
19

>  <SCORE.norm>
-0.903766

>  <RMSD>
0.469

$$$$
ligand
 OpenBabel11021811483D
libRbt.so/2013.1/901 2013/11/27
 19 21  0  0  0  0  0  0  0  0999 V2000
   -6.6647   -7.2956   12.5529 C   0  0  0  0  0  0  0  0  0  0  0  0
   -5.3413   -6.9897   12.0890 O   0  0  0  0  0  0  0  0  0  0  0  0
   -7.7101   -6.7707   11.5663 C   0  0  1  0  0  0  0  0  0  0  0  0
   -7.5714   -5.3484   11.3858 O   0  0  0  0  0  0  0  0  0  0  0  0
   -7.5436   -7.4137   10.2008 C   0  0  1  0  0  0  0  0  0  0  0  0
   -8.5473   -8.4108    9.9728 O   0  0  0  0  0  0  0  0  0  0  0  0
   -7.6766   -6.2888    9.1973 C   0  0  0  0  0  0  0  0  0  0  0  0
   -7.5321   -5.0004    9.9940 C   0  0  2  0  0  0  0  0  0  0  0  0
   -4.9892   -0.4098    9.7643 N   0  0  0  0  0  0  0  0  0  0  0  0
   -6.2765   -0.6752   10.1144 C   0  0  1  0  0  0  0  0  0  0  0  0
   -7.0870    0.3501   10.4689 N   0  0  0  0  0  0  0  0  0  0  0  0
   -6.7687   -1.9440   10.1125 N   0  0  0  0  0  0  0  0  0  0  0  0
   -5.9976   -3.0091    9.7627 C   0  0  2  0  0  0  0  0  0  0  0  0
   -4.6804   -2.7995    9.3964 C   0  0  1  0  0  0  0  0  0  0  0  0
   -4.1551   -1.4104    9.4046 C   0  0  0  0  0  0  0  0  0  0  0  0
   -2.9687   -1.1705    9.0869 O   0  0  0  0  0  0  0  0  0  0  0  0
   -4.1399   -3.9957    9.1062 N   0  0  0  0  0  0  0  0  0  0  0  0
   -5.1033   -4.9301    9.2820 C   0  0  0  0  0  0  0  0  0  0  0  0
   -6.2372   -4.3264    9.6820 N   0  0  1  0  0  0  0  0  0  0  0  0
  1  2  1  0  0  0  0
  3  1  1  1  0  0  0
  3  4  1  0  0  0  0
  3  5  1  0  0  0  0
  5  6  1  6  0  0  0
  5  7  1  0  0  0  0
  7  8  1  0  0  0  0
  8  4  1  1  0  0  0
  8 19  1  0  0  0  0
  9 15  1  0  0  0  0
  9 10  1  0  0  0  0
 10 11  1  6  0  0  0
 10 12  1  0  0  0  0
 13 12  1  6  0  0  0
 13 14  1  0  0  0  0
 13 19  1  0  0  0  0
 14 15  1  1  0  0  0
 14 17  1  0  0  0  0
 15 16  2  0  0  0  0
 17 18  1  0  0  0  0
 19 18  1  1  0  0  0
M  END
>  <CHROM.1>
-58.12368855,-89.08999541,-6.17466838,-4.17183886,10.19676062,-1.94414081
0.23070124,-0.10861489

>  <Name>
ligand

>  <RI>
0

>  <Rbt.Current_Directory>
/home/itssahil/PROJECTS/Mol_Feturizer/New_Systems/rnas/3SKI

>  <Rbt.Executable>
rbdock ($Id: //depot/dev/client3/rdock/2013.1/src/exe/rbdock.cxx#4 $)

>  <Rbt.Library>
libRbt.so (2013.1, Build901 2013/11/27)

>  <Rbt.Parameter_File>
/export/apps/rDock/src/rDock_2013.1_src/data/scripts/dock_solv.prm

>  <Rbt.Receptor>
prm/pocket_docking_3.prm

>  <SCORE>
-17.3786

>  <SCORE.INTER>
-14.7511

>  <SCORE.INTER.CONST>
1

>  <SCORE.INTER.POLAR>
0

>  <SCORE.INTER.ROT>
2

>  <SCORE.INTER.SOLV>
17.9563

>  <SCORE.INTER.VDW>
-20.7528

>  <SCORE.INTER.norm>
-0.776371

>  <SCORE.INTRA>
-2.62756

>  <SCORE.INTRA.DIHEDRAL>
-5.07087

>  <SCORE.INTRA.DIHEDRAL.0>
6.26853

>  <SCORE.INTRA.POLAR>
0

>  <SCORE.INTRA.POLAR.0>
0

>  <SCORE.INTRA.REPUL>
0

>  <SCORE.INTRA.REPUL.0>
0

>  <SCORE.INTRA.SOLV>
0.254317

>  <SCORE.INTRA.SOLV.lig_0>
-38.4926

>  <SCORE.INTRA.VDW>
-0.219288

>  <SCORE.INTRA.VDW.0>
-0.59057

>  <SCORE.INTRA.norm>
-0.138293

>  <SCORE.RESTR>
0

>  <SCORE.RESTR.CAVITY>
0

>  <SCORE.RESTR.norm>
0

>  <SCORE.SYSTEM>
0

>  <SCORE.SYSTEM.CONST>
0

>  <SCORE.SYSTEM.DIHEDRAL>
0

>  <SCORE.SYSTEM.SOLV>
0

>  <SCORE.SYSTEM.norm>
0

>  <SCORE.heavy>
19

>  <SCORE.norm>
-0.914664

>  <RMSD>
0.507

$$$$
ligand
 OpenBabel11021811483D
libRbt.so/2013.1/901 2013/11/27
 19 21  0  0  0  0  0  0  0  0999 V2000
   -6.6735   -7.2582   12.5907 C   0  0  0  0  0  0  0  0  0  0  0  0
   -5.3465   -6.9274   12.1551 O   0  0  0  0  0  0  0  0  0  0  0  0
   -7.7068   -6.7606   11.5776 C   0  0  1  0  0  0  0  0  0  0  0  0
   -7.5754   -5.3410   11.3713 O   0  0  0  0  0  0  0  0  0  0  0  0
   -7.5140   -7.4289   10.2277 C   0  0  1  0  0  0  0  0  0  0  0  0
   -8.5067   -8.4377   10.0036 O   0  0  0  0  0  0  0  0  0  0  0  0
   -7.6389   -6.3249    9.2004 C   0  0  0  0  0  0  0  0  0  0  0  0
   -7.5164   -5.0201    9.9737 C   0  0  2  0  0  0  0  0  0  0  0  0
   -4.9707   -0.4284    9.8035 N   0  0  0  0  0  0  0  0  0  0  0  0
   -6.2576   -0.6978   10.1520 C   0  0  1  0  0  0  0  0  0  0  0  0
   -7.0669    0.3230   10.5220 N   0  0  0  0  0  0  0  0  0  0  0  0
   -6.7507   -1.9661   10.1333 N   0  0  0  0  0  0  0  0  0  0  0  0
   -5.9809   -3.0268    9.7676 C   0  0  2  0  0  0  0  0  0  0  0  0
   -4.6641   -2.8130    9.4021 C   0  0  1  0  0  0  0  0  0  0  0  0
   -4.1379   -1.4245    9.4288 C   0  0  0  0  0  0  0  0  0  0  0  0
   -2.9518   -1.1810    9.1125 O   0  0  0  0  0  0  0  0  0  0  0  0
   -4.1249   -4.0054    9.0945 N   0  0  0  0  0  0  0  0  0  0  0  0
   -5.0886   -4.9416    9.2589 C   0  0  0  0  0  0  0  0  0  0  0  0
   -6.2215   -4.3427    9.6690 N   0  0  1  0  0  0  0  0  0  0  0  0
  1  2  1  0  0  0  0
  3  1  1  1  0  0  0
  3  4  1  0  0  0  0
  3  5  1  0  0  0  0
  5  6  1  6  0  0  0
  5  7  1  0  0  0  0
  7  8  1  0  0  0  0
  8  4  1  1  0  0  0
  8 19  1  0  0  0  0
  9 15  1  0  0  0  0
  9 10  1  0  0  0  0
 10 11  1  6  0  0  0
 10 12  1  0  0  0  0
 13 12  1  6  0  0  0
 13 14  1  0  0  0  0
 13 19  1  0  0  0  0
 14 15  1  1  0  0  0
 14 17  1  0  0  0  0
 15 16  2  0  0  0  0
 17 18  1  0  0  0  0
 19 18  1  1  0  0  0
M  END
>  <CHROM.1>
-56.94638800,-86.87811196,-6.15920062,-4.17972788,10.21348367,-1.95042408
0.25787535,-0.09532151

>  <Name>
ligand

>  <RI>
0

>  <Rbt.Current_Directory>
/home/itssahil/PROJECTS/Mol_Feturizer/New_Systems/rnas/3SKI

>  <Rbt.Executable>
rbdock ($Id: //depot/dev/client3/rdock/2013.1/src/exe/rbdock.cxx#4 $)

>  <Rbt.Library>
libRbt.so (2013.1, Build901 2013/11/27)

>  <Rbt.Parameter_File>
/export/apps/rDock/src/rDock_2013.1_src/data/scripts/dock_solv.prm

>  <Rbt.Receptor>
prm/pocket_docking_2.prm

>  <SCORE>
-17.2957

>  <SCORE.INTER>
-14.7099

>  <SCORE.INTER.CONST>
1

>  <SCORE.INTER.POLAR>
0

>  <SCORE.INTER.ROT>
2

>  <SCORE.INTER.SOLV>
17.7985

>  <SCORE.INTER.VDW>
-20.6728

>  <SCORE.INTER.norm>
-0.774206

>  <SCORE.INTRA>
-2.58582

>  <SCORE.INTRA.DIHEDRAL>
-5.04934

>  <SCORE.INTRA.DIHEDRAL.0>
6.26853

>  <SCORE.INTRA.POLAR>
0

>  <SCORE.INTRA.POLAR.0>
0

>  <SCORE.INTRA.REPUL>
0

>  <SCORE.INTRA.REPUL.0>
0

>  <SCORE.INTRA.SOLV>
0.249958

>  <SCORE.INTRA.SOLV.lig_0>
-38.4926

>  <SCORE.INTRA.VDW>
-0.186125

>  <SCORE.INTRA.VDW.0>
-0.59057

>  <SCORE.INTRA.norm>
-0.136096

>  <SCORE.RESTR>
0

>  <SCORE.RESTR.CAVITY>
0

>  <SCORE.RESTR.norm>
0

>  <SCORE.SYSTEM>
0

>  <SCORE.SYSTEM.CONST>
0

>  <SCORE.SYSTEM.DIHEDRAL>
0

>  <SCORE.SYSTEM.SOLV>
0

>  <SCORE.SYSTEM.norm>
0

>  <SCORE.heavy>
19

>  <SCORE.norm>
-0.910301

>  <RMSD>
0.517

$$$$
ligand
 OpenBabel11021811483D
libRbt.so/2013.1/901 2013/11/27
 19 21  0  0  0  0  0  0  0  0999 V2000
   -6.6778   -7.3414   12.5094 C   0  0  0  0  0  0  0  0  0  0  0  0
   -5.3612   -7.0550   12.0148 O   0  0  0  0  0  0  0  0  0  0  0  0
   -7.7381   -6.7965   11.5498 C   0  0  1  0  0  0  0  0  0  0  0  0
   -7.5878   -5.3741   11.3789 O   0  0  0  0  0  0  0  0  0  0  0  0
   -7.6073   -7.4288   10.1754 C   0  0  1  0  0  0  0  0  0  0  0  0
   -8.6263   -8.4131    9.9599 O   0  0  0  0  0  0  0  0  0  0  0  0
   -7.7491   -6.2936    9.1849 C   0  0  0  0  0  0  0  0  0  0  0  0
   -7.5740   -5.0140    9.9897 C   0  0  2  0  0  0  0  0  0  0  0  0
   -4.9840   -0.4500    9.7552 N   0  0  0  0  0  0  0  0  0  0  0  0
   -6.2662   -0.7050   10.1312 C   0  0  1  0  0  0  0  0  0  0  0  0
   -7.0567    0.3252   10.5155 N   0  0  0  0  0  0  0  0  0  0  0  0
   -6.7729   -1.9680   10.1259 N   0  0  0  0  0  0  0  0  0  0  0  0
   -6.0222   -3.0376    9.7466 C   0  0  2  0  0  0  0  0  0  0  0  0
   -4.7112   -2.8386    9.3533 C   0  0  1  0  0  0  0  0  0  0  0  0
   -4.1698   -1.4557    9.3655 C   0  0  0  0  0  0  0  0  0  0  0  0
   -2.9882   -1.2255    9.0239 O   0  0  0  0  0  0  0  0  0  0  0  0
   -4.1911   -4.0373    9.0373 N   0  0  0  0  0  0  0  0  0  0  0  0
   -5.1610   -4.9628    9.2240 C   0  0  0  0  0  0  0  0  0  0  0  0
   -6.2787   -4.3511    9.6563 N   0  0  1  0  0  0  0  0  0  0  0  0
  1  2  1  0  0  0  0
  3  1  1  1  0  0  0
  3  4  1  0  0  0  0
  3  5  1  0  0  0  0
  5  6  1  6  0  0  0
  5  7  1  0  0  0  0
  7  8  1  0  0  0  0
  8  4  1  1  0  0  0
  8 19  1  0  0  0  0
  9 15  1  0  0  0  0
  9 10  1  0  0  0  0
 10 11  1  6  0  0  0
 10 12  1  0  0  0  0
 13 12  1  6  0  0  0
 13 14  1  0  0  0  0
 13 19  1  0  0  0  0
 14 15  1  1  0  0  0
 14 17  1  0  0  0  0
 15 16  2  0  0  0  0
 17 18  1  0  0  0  0
 19 18  1  1  0  0  0
M  END
>  <CHROM.1>
-58.59579295,-88.91590957,-6.20287776,-4.20277423,10.17308422,-1.95363962
0.25613041,-0.09486761

>  <Name>
ligand

>  <RI>
0

>  <Rbt.Current_Directory>
/home/itssahil/PROJECTS/Mol_Feturizer/New_Systems/rnas/3SKI

>  <Rbt.Executable>
rbdock ($Id: //depot/dev/client3/rdock/2013.1/src/exe/rbdock.cxx#4 $)

>  <Rbt.Library>
libRbt.so (2013.1, Build901 2013/11/27)

>  <Rbt.Parameter_File>
/export/apps/rDock/src/rDock_2013.1_src/data/scripts/dock_solv.prm

>  <Rbt.Receptor>
prm/pocket_docking_3.prm

>  <SCORE>
-17.3135

>  <SCORE.INTER>
-14.6908

>  <SCORE.INTER.CONST>
1

>  <SCORE.INTER.POLAR>
0

>  <SCORE.INTER.ROT>
2

>  <SCORE.INTER.SOLV>
17.7995

>  <SCORE.INTER.VDW>
-20.6603

>  <SCORE.INTER.norm>
-0.773199

>  <SCORE.INTRA>
-2.62276

>  <SCORE.INTRA.DIHEDRAL>
-5.07662

>  <SCORE.INTRA.DIHEDRAL.0>
6.26853

>  <SCORE.INTRA.POLAR>
0

>  <SCORE.INTRA.POLAR.0>
0

>  <SCORE.INTRA.REPUL>
0

>  <SCORE.INTRA.REPUL.0>
0

>  <SCORE.INTRA.SOLV>
0.254935

>  <SCORE.INTRA.SOLV.lig_0>
-38.4926

>  <SCORE.INTRA.VDW>
-0.21192

>  <SCORE.INTRA.VDW.0>
-0.59057

>  <SCORE.INTRA.norm>
-0.13804

>  <SCORE.RESTR>
0

>  <SCORE.RESTR.CAVITY>
0

>  <SCORE.RESTR.norm>
0

>  <SCORE.SYSTEM>
0

>  <SCORE.SYSTEM.CONST>
0

>  <SCORE.SYSTEM.DIHEDRAL>
0

>  <SCORE.SYSTEM.SOLV>
0

>  <SCORE.SYSTEM.norm>
0

>  <SCORE.heavy>
19

>  <SCORE.norm>
-0.911239

>  <RMSD>
0.523

$$$$
ligand
 OpenBabel11021811483D
libRbt.so/2013.1/901 2013/11/27
 19 21  0  0  0  0  0  0  0  0999 V2000
   -6.5001   -7.3099   12.5365 C   0  0  0  0  0  0  0  0  0  0  0  0
   -5.1980   -7.0058   12.0146 O   0  0  0  0  0  0  0  0  0  0  0  0
   -7.5874   -6.7728   11.6031 C   0  0  1  0  0  0  0  0  0  0  0  0
   -7.4551   -5.3485   11.4333 O   0  0  0  0  0  0  0  0  0  0  0  0
   -7.4819   -7.3998   10.2241 C   0  0  1  0  0  0  0  0  0  0  0  0
   -8.4959   -8.3935   10.0289 O   0  0  0  0  0  0  0  0  0  0  0  0
   -7.6576   -6.2631    9.2407 C   0  0  0  0  0  0  0  0  0  0  0  0
   -7.4767   -4.9842   10.0453 C   0  0  2  0  0  0  0  0  0  0  0  0
   -4.9598   -0.3863    9.7029 N   0  0  0  0  0  0  0  0  0  0  0  0
   -6.2330   -0.6543   10.0995 C   0  0  1  0  0  0  0  0  0  0  0  0
   -7.0343    0.3701   10.4771 N   0  0  0  0  0  0  0  0  0  0  0  0
   -6.7205   -1.9247   10.1213 N   0  0  0  0  0  0  0  0  0  0  0  0
   -5.9584   -2.9890    9.7500 C   0  0  2  0  0  0  0  0  0  0  0  0
   -4.6557   -2.7768    9.3365 C   0  0  1  0  0  0  0  0  0  0  0  0
   -4.1354   -1.3859    9.3191 C   0  0  0  0  0  0  0  0  0  0  0  0
   -2.9617   -1.1437    8.9586 O   0  0  0  0  0  0  0  0  0  0  0  0
   -4.1214   -3.9727    9.0334 N   0  0  0  0  0  0  0  0  0  0  0  0
   -5.0747   -4.9094    9.2478 C   0  0  0  0  0  0  0  0  0  0  0  0
   -6.1960   -4.3075    9.6844 N   0  0  1  0  0  0  0  0  0  0  0  0
  1  2  1  0  0  0  0
  3  1  1  1  0  0  0
  3  4  1  0  0  0  0
  3  5  1  0  0  0  0
  5  6  1  6  0  0  0
  5  7  1  0  0  0  0
  7  8  1  0  0  0  0
  8  4  1  1  0  0  0
  8 19  1  0  0  0  0
  9 15  1  0  0  0  0
  9 10  1  0  0  0  0
 10 11  1  6  0  0  0
 10 12  1  0  0  0  0
 13 12  1  6  0  0  0
 13 14  1  0  0  0  0
 13 19  1  0  0  0  0
 14 15  1  1  0  0  0
 14 17  1  0  0  0  0
 15 16  2  0  0  0  0
 17 18  1  0  0  0  0
 19 18  1  1  0  0  0
M  END
>  <CHROM.1>
-58.43852714,-90.20825340,-6.11602530,-4.15749861,10.18201267,-1.93415366
0.25368950,-0.11448467

>  <Name>
ligand

>  <RI>
0

>  <Rbt.Current_Directory>
/home/itssahil/PROJECTS/Mol_Feturizer/New_Systems/rnas/3SKI

>  <Rbt.Executable>
rbdock ($Id: //depot/dev/client3/rdock/2013.1/src/exe/rbdock.cxx#4 $)

>  <Rbt.Library>
libRbt.so (2013.1, Build901 2013/11/27)

>  <Rbt.Parameter_File>
/export/apps/rDock/src/rDock_2013.1_src/data/scripts/dock_solv.prm

>  <Rbt.Receptor>
prm/pocket_docking_3.prm

>  <SCORE>
-17.3199

>  <SCORE.INTER>
-14.6722

>  <SCORE.INTER.CONST>
1

>  <SCORE.INTER.POLAR>
0

>  <SCORE.INTER.ROT>
2

>  <SCORE.INTER.SOLV>
17.9616

>  <SCORE.INTER.VDW>
-20.702

>  <SCORE.INTER.norm>
-0.772221

>  <SCORE.INTRA>
-2.6477

>  <SCORE.INTRA.DIHEDRAL>
-5.07489

>  <SCORE.INTRA.DIHEDRAL.0>
6.26853

>  <SCORE.INTRA.POLAR>
0

>  <SCORE.INTRA.POLAR.0>
0

>  <SCORE.INTRA.REPUL>
0

>  <SCORE.INTRA.REPUL.0>
0

>  <SCORE.INTRA.SOLV>
0.255942

>  <SCORE.INTRA.SOLV.lig_0>
-38.4926

>  <SCORE.INTRA.VDW>
-0.238226

>  <SCORE.INTRA.VDW.0>
-0.59057

>  <SCORE.INTRA.norm>
-0.139353

>  <SCORE.RESTR>
0

>  <SCORE.RESTR.CAVITY>
0

>  <SCORE.RESTR.norm>
0

>  <SCORE.SYSTEM>
0

>  <SCORE.SYSTEM.CONST>
0

>  <SCORE.SYSTEM.DIHEDRAL>
0

>  <SCORE.SYSTEM.SOLV>
0

>  <SCORE.SYSTEM.norm>
0

>  <SCORE.heavy>
19

>  <SCORE.norm>
-0.911574

>  <RMSD>
0.525

$$$$
ligand
 OpenBabel11021811483D
libRbt.so/2013.1/901 2013/11/27
 19 21  0  0  0  0  0  0  0  0999 V2000
   -6.4988   -7.2294   12.6260 C   0  0  0  0  0  0  0  0  0  0  0  0
   -5.1986   -6.9413   12.0907 O   0  0  0  0  0  0  0  0  0  0  0  0
   -7.5893   -6.7288   11.6762 C   0  0  1  0  0  0  0  0  0  0  0  0
   -7.4705   -5.3085   11.4675 O   0  0  0  0  0  0  0  0  0  0  0  0
   -7.4748   -7.3924   10.3151 C   0  0  1  0  0  0  0  0  0  0  0  0
   -8.4786   -8.4009   10.1454 O   0  0  0  0  0  0  0  0  0  0  0  0
   -7.6595   -6.2849    9.3005 C   0  0  0  0  0  0  0  0  0  0  0  0
   -7.4927   -4.9827   10.0700 C   0  0  2  0  0  0  0  0  0  0  0  0
   -4.9880   -0.3804    9.6985 N   0  0  0  0  0  0  0  0  0  0  0  0
   -6.2555   -0.6508   10.1115 C   0  0  1  0  0  0  0  0  0  0  0  0
   -7.0534    0.3720   10.5002 N   0  0  0  0  0  0  0  0  0  0  0  0
   -6.7406   -1.9220   10.1386 N   0  0  0  0  0  0  0  0  0  0  0  0
   -5.9817   -2.9848    9.7566 C   0  0  2  0  0  0  0  0  0  0  0  0
   -4.6847   -2.7702    9.3264 C   0  0  1  0  0  0  0  0  0  0  0  0
   -4.1669   -1.3784    9.3034 C   0  0  0  0  0  0  0  0  0  0  0  0
   -2.9985   -1.1340    8.9278 O   0  0  0  0  0  0  0  0  0  0  0  0
   -4.1525   -3.9649    9.0155 N   0  0  0  0  0  0  0  0  0  0  0  0
   -5.1014   -4.9034    9.2415 C   0  0  0  0  0  0  0  0  0  0  0  0
   -6.2179   -4.3036    9.6931 N   0  0  1  0  0  0  0  0  0  0  0  0
  1  2  1  0  0  0  0
  3  1  1  1  0  0  0
  3  4  1  0  0  0  0
  3  5  1  0  0  0  0
  5  6  1  6  0  0  0
  5  7  1  0  0  0  0
  7  8  1  0  0  0  0
  8  4  1  1  0  0  0
  8 19  1  0  0  0  0
  9 15  1  0  0  0  0
  9 10  1  0  0  0  0
 10 11  1  6  0  0  0
 10 12  1  0  0  0  0
 13 12  1  6  0  0  0
 13 14  1  0  0  0  0
 13 19  1  0  0  0  0
 14 15  1  1  0  0  0
 14 17  1  0  0  0  0
 15 16  2  0  0  0  0
 17 18  1  0  0  0  0
 19 18  1  1  0  0  0
M  END
>  <CHROM.1>
-59.12671430,-88.31900675,-6.13134742,-4.14271102,10.21227374,-1.93446169
0.28653550,-0.11620454

>  <Name>
ligand

>  <RI>
0

>  <Rbt.Current_Directory>
/home/itssahil/PROJECTS/Mol_Feturizer/New_Systems/rnas/3SKI

>  <Rbt.Executable>
rbdock ($Id: //depot/dev/client3/rdock/2013.1/src/exe/rbdock.cxx#4 $)

>  <Rbt.Library>
libRbt.so (2013.1, Build901 2013/11/27)

>  <Rbt.Parameter_File>
/export/apps/rDock/src/rDock_2013.1_src/data/scripts/dock_solv.prm

>  <Rbt.Receptor>
prm/pocket_docking_3.prm

>  <SCORE>
-17.3404

>  <SCORE.INTER>
-14.7317

>  <SCORE.INTER.CONST>
1

>  <SCORE.INTER.POLAR>
0

>  <SCORE.INTER.ROT>
2

>  <SCORE.INTER.SOLV>
18.0342

>  <SCORE.INTER.VDW>
-20.7659

>  <SCORE.INTER.norm>
-0.775352

>  <SCORE.INTRA>
-2.60867

>  <SCORE.INTRA.DIHEDRAL>
-5.08115

>  <SCORE.INTRA.DIHEDRAL.0>
6.26853

>  <SCORE.INTRA.POLAR>
0

>  <SCORE.INTRA.POLAR.0>
0

>  <SCORE.INTRA.REPUL>
0

>  <SCORE.INTRA.REPUL.0>
0

>  <SCORE.INTRA.SOLV>
0.255194

>  <SCORE.INTRA.SOLV.lig_0>
-38.4926

>  <SCORE.INTRA.VDW>
-0.195689

>  <SCORE.INTRA.VDW.0>
-0.59057

>  <SCORE.INTRA.norm>
-0.137298

>  <SCORE.RESTR>
0

>  <SCORE.RESTR.CAVITY>
0

>  <SCORE.RESTR.norm>
0

>  <SCORE.SYSTEM>
0

>  <SCORE.SYSTEM.CONST>
0

>  <SCORE.SYSTEM.DIHEDRAL>
0

>  <SCORE.SYSTEM.SOLV>
0

>  <SCORE.SYSTEM.norm>
0

>  <SCORE.heavy>
19

>  <SCORE.norm>
-0.912651

>  <RMSD>
0.533

$$$$
ligand
 OpenBabel11021811483D
libRbt.so/2013.1/901 2013/11/27
 19 21  0  0  0  0  0  0  0  0999 V2000
   -6.5924   -7.2325   12.6651 C   0  0  0  0  0  0  0  0  0  0  0  0
   -5.2697   -6.9062   12.2131 O   0  0  0  0  0  0  0  0  0  0  0  0
   -7.6338   -6.7741   11.6419 C   0  0  1  0  0  0  0  0  0  0  0  0
   -7.5224   -5.3583   11.4008 O   0  0  0  0  0  0  0  0  0  0  0  0
   -7.4335   -7.4723   10.3084 C   0  0  1  0  0  0  0  0  0  0  0  0
   -8.4124   -8.5000   10.1105 O   0  0  0  0  0  0  0  0  0  0  0  0
   -7.5751   -6.3956    9.2546 C   0  0  0  0  0  0  0  0  0  0  0  0
   -7.4697   -5.0707    9.9957 C   0  0  2  0  0  0  0  0  0  0  0  0
   -4.9676   -0.4573    9.7756 N   0  0  0  0  0  0  0  0  0  0  0  0
   -6.2477   -0.7367   10.1409 C   0  0  1  0  0  0  0  0  0  0  0  0
   -7.0616    0.2785   10.5164 N   0  0  0  0  0  0  0  0  0  0  0  0
   -6.7296   -2.0094   10.1334 N   0  0  0  0  0  0  0  0  0  0  0  0
   -5.9548   -3.0647    9.7626 C   0  0  2  0  0  0  0  0  0  0  0  0
   -4.6445   -2.8407    9.3803 C   0  0  1  0  0  0  0  0  0  0  0  0
   -4.1305   -1.4474    9.3948 C   0  0  0  0  0  0  0  0  0  0  0  0
   -2.9506   -1.1947    9.0631 O   0  0  0  0  0  0  0  0  0  0  0  0
   -4.0984   -4.0295    9.0711 N   0  0  0  0  0  0  0  0  0  0  0  0
   -5.0516   -4.9735    9.2510 C   0  0  0  0  0  0  0  0  0  0  0  0
   -6.1848   -4.3831    9.6725 N   0  0  1  0  0  0  0  0  0  0  0  0
  1  2  1  0  0  0  0
  3  1  1  1  0  0  0
  3  4  1  0  0  0  0
  3  5  1  0  0  0  0
  5  6  1  6  0  0  0
  5  7  1  0  0  0  0
  7  8  1  0  0  0  0
  8  4  1  1  0  0  0
  8 19  1  0  0  0  0
  9 15  1  0  0  0  0
  9 10  1  0  0  0  0
 10 11  1  6  0  0  0
 10 12  1  0  0  0  0
 13 12  1  6  0  0  0
 13 14  1  0  0  0  0
 13 19  1  0  0  0  0
 14 15  1  1  0  0  0
 14 17  1  0  0  0  0
 15 16  2  0  0  0  0
 17 18  1  0  0  0  0
 19 18  1  1  0  0  0
M  END
>  <CHROM.1>
-57.53291575,-85.53833679,-6.11805778,-4.20895306,10.23107066,-1.94323807
0.28571311,-0.10207537

>  <Name>
ligand

>  <RI>
0

>  <Rbt.Current_Directory>
/home/itssahil/PROJECTS/Mol_Feturizer/New_Systems/rnas/3SKI

>  <Rbt.Executable>
rbdock ($Id: //depot/dev/client3/rdock/2013.1/src/exe/rbdock.cxx#4 $)

>  <Rbt.Library>
libRbt.so (2013.1, Build901 2013/11/27)

>  <Rbt.Parameter_File>
/export/apps/rDock/src/rDock_2013.1_src/data/scripts/dock_solv.prm

>  <Rbt.Receptor>
prm/pocket_docking_4.prm

>  <SCORE>
-17.2735

>  <SCORE.INTER>
-14.7113

>  <SCORE.INTER.CONST>
1

>  <SCORE.INTER.POLAR>
0

>  <SCORE.INTER.ROT>
2

>  <SCORE.INTER.SOLV>
17.7617

>  <SCORE.INTER.VDW>
-20.6614

>  <SCORE.INTER.norm>
-0.774278

>  <SCORE.INTRA>
-2.56222

>  <SCORE.INTRA.DIHEDRAL>
-5.06097

>  <SCORE.INTRA.DIHEDRAL.0>
6.26853

>  <SCORE.INTRA.POLAR>
0

>  <SCORE.INTRA.POLAR.0>
0

>  <SCORE.INTRA.REPUL>
0

>  <SCORE.INTRA.REPUL.0>
0

>  <SCORE.INTRA.SOLV>
0.249645

>  <SCORE.INTRA.SOLV.lig_0>
-38.4926

>  <SCORE.INTRA.VDW>
-0.156552

>  <SCORE.INTRA.VDW.0>
-0.59057

>  <SCORE.INTRA.norm>
-0.134853

>  <SCORE.RESTR>
0

>  <SCORE.RESTR.CAVITY>
0

>  <SCORE.RESTR.norm>
0

>  <SCORE.SYSTEM>
0

>  <SCORE.SYSTEM.CONST>
0

>  <SCORE.SYSTEM.DIHEDRAL>
0

>  <SCORE.SYSTEM.SOLV>
0

>  <SCORE.SYSTEM.norm>
0

>  <SCORE.heavy>
19

>  <SCORE.norm>
-0.909131

>  <RMSD>
0.568

$$$$
ligand
 OpenBabel11021811483D
libRbt.so/2013.1/901 2013/11/27
 19 21  0  0  0  0  0  0  0  0999 V2000
   -5.9171   -7.3635   12.4945 C   0  0  0  0  0  0  0  0  0  0  0  0
   -5.6560   -6.9178   13.8336 O   0  0  0  0  0  0  0  0  0  0  0  0
   -7.1467   -6.6518   11.9258 C   0  0  1  0  0  0  0  0  0  0  0  0
   -6.9424   -5.2262   11.8973 O   0  0  0  0  0  0  0  0  0  0  0  0
   -7.4221   -7.0932   10.4992 C   0  0  1  0  0  0  0  0  0  0  0  0
   -8.5312   -7.9990   10.4431 O   0  0  0  0  0  0  0  0  0  0  0  0
   -7.7319   -5.8277    9.7294 C   0  0  0  0  0  0  0  0  0  0  0  0
   -7.2619   -4.6789   10.6097 C   0  0  2  0  0  0  0  0  0  0  0  0
   -4.8766   -0.1098    9.5964 N   0  0  0  0  0  0  0  0  0  0  0  0
   -6.0795   -0.3524   10.1833 C   0  0  1  0  0  0  0  0  0  0  0  0
   -6.8345    0.6941   10.5942 N   0  0  0  0  0  0  0  0  0  0  0  0
   -6.5426   -1.6195   10.3626 N   0  0  0  0  0  0  0  0  0  0  0  0
   -5.8250   -2.7054    9.9661 C   0  0  2  0  0  0  0  0  0  0  0  0
   -4.5945   -2.5196    9.3625 C   0  0  1  0  0  0  0  0  0  0  0  0
   -4.0998   -1.1319    9.1745 C   0  0  0  0  0  0  0  0  0  0  0  0
   -2.9902   -0.9127    8.6389 O   0  0  0  0  0  0  0  0  0  0  0  0
   -4.0914   -3.7325    9.0744 N   0  0  0  0  0  0  0  0  0  0  0  0
   -4.9937   -4.6543    9.4845 C   0  0  0  0  0  0  0  0  0  0  0  0
   -6.0521   -4.0259   10.0280 N   0  0  1  0  0  0  0  0  0  0  0  0
  1  2  1  0  0  0  0
  3  1  1  6  0  0  0
  3  4  1  0  0  0  0
  3  5  1  0  0  0  0
  5  6  1  1  0  0  0
  5  7  1  0  0  0  0
  7  8  1  0  0  0  0
  8  4  1  1  0  0  0
  8 19  1  0  0  0  0
  9 15  1  0  0  0  0
  9 10  1  0  0  0  0
 10 11  1  6  0  0  0
 10 12  1  0  0  0  0
 13 12  1  6  0  0  0
 13 14  1  0  0  0  0
 13 19  1  0  0  0  0
 14 15  1  1  0  0  0
 14 17  1  0  0  0  0
 15 16  2  0  0  0  0
 17 18  1  0  0  0  0
 19 18  1  1  0  0  0
M  END
>  <CHROM.1>
60.03780980,-103.82127121,-5.99819922,-3.91056928,10.46293023,-1.91414100
0.35967213,-0.19394997

>  <Name>
ligand

>  <RI>
0

>  <Rbt.Current_Directory>
/home/itssahil/PROJECTS/Mol_Feturizer/New_Systems/rnas/3SKI

>  <Rbt.Executable>
rbdock ($Id: //depot/dev/client3/rdock/2013.1/src/exe/rbdock.cxx#4 $)

>  <Rbt.Library>
libRbt.so (2013.1, Build901 2013/11/27)

>  <Rbt.Parameter_File>
/export/apps/rDock/src/rDock_2013.1_src/data/scripts/dock_solv.prm

>  <Rbt.Receptor>
prm/pocket_docking_3.prm

>  <SCORE>
-17.3058

>  <SCORE.INTER>
-14.4004

>  <SCORE.INTER.CONST>
1

>  <SCORE.INTER.POLAR>
0

>  <SCORE.INTER.ROT>
2

>  <SCORE.INTER.SOLV>
18.2536

>  <SCORE.INTER.VDW>
-20.6182

>  <SCORE.INTER.norm>
-0.757918

>  <SCORE.INTRA>
-2.90536

>  <SCORE.INTRA.DIHEDRAL>
-5.07938

>  <SCORE.INTRA.DIHEDRAL.0>
6.26853

>  <SCORE.INTRA.POLAR>
0

>  <SCORE.INTRA.POLAR.0>
0

>  <SCORE.INTRA.REPUL>
0

>  <SCORE.INTRA.REPUL.0>
0

>  <SCORE.INTRA.SOLV>
-0.234465

>  <SCORE.INTRA.SOLV.lig_0>
-38.4926

>  <SCORE.INTRA.VDW>
-0.248436

>  <SCORE.INTRA.VDW.0>
-0.59057

>  <SCORE.INTRA.norm>
-0.152914

>  <SCORE.RESTR>
0

>  <SCORE.RESTR.CAVITY>
0

>  <SCORE.RESTR.norm>
0

>  <SCORE.SYSTEM>
0

>  <SCORE.SYSTEM.CONST>
0

>  <SCORE.SYSTEM.DIHEDRAL>
0

>  <SCORE.SYSTEM.SOLV>
0

>  <SCORE.SYSTEM.norm>
0

>  <SCORE.heavy>
19

>  <SCORE.norm>
-0.910831

>  <RMSD>
0.571

$$$$
ligand
 OpenBabel11021811483D
libRbt.so/2013.1/901 2013/11/27
 19 21  0  0  0  0  0  0  0  0999 V2000
   -6.6024   -7.2483   12.6654 C   0  0  0  0  0  0  0  0  0  0  0  0
   -5.2829   -6.8968   12.2231 O   0  0  0  0  0  0  0  0  0  0  0  0
   -7.6463   -6.7931   11.6433 C   0  0  1  0  0  0  0  0  0  0  0  0
   -7.5358   -5.3780   11.3978 O   0  0  0  0  0  0  0  0  0  0  0  0
   -7.4489   -7.4952   10.3114 C   0  0  1  0  0  0  0  0  0  0  0  0
   -8.4280   -8.5237   10.1187 O   0  0  0  0  0  0  0  0  0  0  0  0
   -7.5932   -6.4215    9.2548 C   0  0  0  0  0  0  0  0  0  0  0  0
   -7.4864   -5.0946    9.9918 C   0  0  2  0  0  0  0  0  0  0  0  0
   -4.9835   -0.4821    9.7601 N   0  0  0  0  0  0  0  0  0  0  0  0
   -6.2624   -0.7608   10.1301 C   0  0  1  0  0  0  0  0  0  0  0  0
   -7.0746    0.2548   10.5079 N   0  0  0  0  0  0  0  0  0  0  0  0
   -6.7448   -2.0334   10.1251 N   0  0  0  0  0  0  0  0  0  0  0  0
   -5.9717   -3.0892    9.7522 C   0  0  2  0  0  0  0  0  0  0  0  0
   -4.6627   -2.8659    9.3651 C   0  0  1  0  0  0  0  0  0  0  0  0
   -4.1481   -1.4728    9.3769 C   0  0  0  0  0  0  0  0  0  0  0  0
   -2.9693   -1.2207    9.0408 O   0  0  0  0  0  0  0  0  0  0  0  0
   -4.1180   -4.0551    9.0546 N   0  0  0  0  0  0  0  0  0  0  0  0
   -5.0709   -4.9986    9.2385 C   0  0  0  0  0  0  0  0  0  0  0  0
   -6.2024   -4.4075    9.6636 N   0  0  1  0  0  0  0  0  0  0  0  0
  1  2  1  0  0  0  0
  3  1  1  1  0  0  0
  3  4  1  0  0  0  0
  3  5  1  0  0  0  0
  5  6  1  6  0  0  0
  5  7  1  0  0  0  0
  7  8  1  0  0  0  0
  8  4  1  1  0  0  0
  8 19  1  0  0  0  0
  9 15  1  0  0  0  0
  9 10  1  0  0  0  0
 10 11  1  6  0  0  0
 10 12  1  0  0  0  0
 13 12  1  6  0  0  0
 13 14  1  0  0  0  0
 13 19  1  0  0  0  0
 14 15  1  1  0  0  0
 14 17  1  0  0  0  0
 15 16  2  0  0  0  0
 17 18  1  0  0  0  0
 19 18  1  1  0  0  0
M  END
>  <CHROM.1>
-56.26983635,-85.38372563,-6.13387553,-4.23044228,10.22451441,-1.94435505
0.29199398,-0.10230773

>  <Name>
ligand

>  <RI>
0

>  <Rbt.Current_Directory>
/home/itssahil/PROJECTS/Mol_Feturizer/New_Systems/rnas/3SKI

>  <Rbt.Executable>
rbdock ($Id: //depot/dev/client3/rdock/2013.1/src/exe/rbdock.cxx#4 $)

>  <Rbt.Library>
libRbt.so (2013.1, Build901 2013/11/27)

>  <Rbt.Parameter_File>
/export/apps/rDock/src/rDock_2013.1_src/data/scripts/dock_solv.prm

>  <Rbt.Receptor>
prm/pocket_docking_2.prm

>  <SCORE>
-17.2953

>  <SCORE.INTER>
-14.7399

>  <SCORE.INTER.CONST>
1

>  <SCORE.INTER.POLAR>
0

>  <SCORE.INTER.ROT>
2

>  <SCORE.INTER.SOLV>
17.7589

>  <SCORE.INTER.VDW>
-20.6796

>  <SCORE.INTER.norm>
-0.775784

>  <SCORE.INTRA>
-2.55536

>  <SCORE.INTRA.DIHEDRAL>
-5.03233

>  <SCORE.INTRA.DIHEDRAL.0>
6.26853

>  <SCORE.INTRA.POLAR>
0

>  <SCORE.INTRA.POLAR.0>
0

>  <SCORE.INTRA.REPUL>
0

>  <SCORE.INTRA.REPUL.0>
0

>  <SCORE.INTRA.SOLV>
0.247075

>  <SCORE.INTRA.SOLV.lig_0>
-38.4926

>  <SCORE.INTRA.VDW>
-0.162735

>  <SCORE.INTRA.VDW.0>
-0.59057

>  <SCORE.INTRA.norm>
-0.134493

>  <SCORE.RESTR>
0

>  <SCORE.RESTR.CAVITY>
0

>  <SCORE.RESTR.norm>
0

>  <SCORE.SYSTEM>
0

>  <SCORE.SYSTEM.CONST>
0

>  <SCORE.SYSTEM.DIHEDRAL>
0

>  <SCORE.SYSTEM.SOLV>
0

>  <SCORE.SYSTEM.norm>
0

>  <SCORE.heavy>
19

>  <SCORE.norm>
-0.910277

>  <RMSD>
0.583

$$$$
ligand
 OpenBabel11021811483D
libRbt.so/2013.1/901 2013/11/27
 19 21  0  0  0  0  0  0  0  0999 V2000
   -6.6658   -7.2127   12.6163 C   0  0  0  0  0  0  0  0  0  0  0  0
   -5.3308   -6.7895   12.3021 O   0  0  0  0  0  0  0  0  0  0  0  0
   -7.6377   -6.7683   11.5210 C   0  0  1  0  0  0  0  0  0  0  0  0
   -7.5093   -5.3560   11.2683 O   0  0  0  0  0  0  0  0  0  0  0  0
   -7.3514   -7.4850   10.2132 C   0  0  1  0  0  0  0  0  0  0  0  0
   -8.3164   -8.5151    9.9659 O   0  0  0  0  0  0  0  0  0  0  0  0
   -7.4228   -6.4228    9.1377 C   0  0  0  0  0  0  0  0  0  0  0  0
   -7.3647   -5.0879    9.8658 C   0  0  2  0  0  0  0  0  0  0  0  0
   -4.7782   -0.5181   10.0072 N   0  0  0  0  0  0  0  0  0  0  0  0
   -6.0714   -0.7965   10.3242 C   0  0  1  0  0  0  0  0  0  0  0  0
   -6.8762    0.2070   10.7474 N   0  0  0  0  0  0  0  0  0  0  0  0
   -6.5750   -2.0567   10.2219 N   0  0  0  0  0  0  0  0  0  0  0  0
   -5.8100   -3.0999    9.7999 C   0  0  2  0  0  0  0  0  0  0  0  0
   -4.4873   -2.8761    9.4629 C   0  0  1  0  0  0  0  0  0  0  0  0
   -3.9497   -1.4968    9.5809 C   0  0  0  0  0  0  0  0  0  0  0  0
   -2.7580   -1.2452    9.2933 O   0  0  0  0  0  0  0  0  0  0  0  0
   -3.9547   -4.0522    9.0883 N   0  0  0  0  0  0  0  0  0  0  0  0
   -4.9282   -4.9878    9.1840 C   0  0  0  0  0  0  0  0  0  0  0  0
   -6.0607   -4.4049    9.6177 N   0  0  1  0  0  0  0  0  0  0  0  0
  1  2  1  0  0  0  0
  3  1  1  1  0  0  0
  3  4  1  0  0  0  0
  3  5  1  0  0  0  0
  5  6  1  6  0  0  0
  5  7  1  0  0  0  0
  7  8  1  0  0  0  0
  8  4  1  1  0  0  0
  8 19  1  0  0  0  0
  9 15  1  0  0  0  0
  9 10  1  0  0  0  0
 10 11  1  6  0  0  0
 10 12  1  0  0  0  0
 13 12  1  6  0  0  0
 13 14  1  0  0  0  0
 13 19  1  0  0  0  0
 14 15  1  1  0  0  0
 14 17  1  0  0  0  0
 15 16  2  0  0  0  0
 17 18  1  0  0  0  0
 19 18  1  1  0  0  0
M  END
>  <CHROM.1>
-52.50716578,-80.27998756,-6.01122725,-4.22822274,10.25445685,1.98615949
-0.34762306,3.12408018

>  <Name>
ligand

>  <RI>
0

>  <Rbt.Current_Directory>
/home/itssahil/PROJECTS/Mol_Feturizer/New_Systems/rnas/3SKI

>  <Rbt.Executable>
rbdock ($Id: //depot/dev/client3/rdock/2013.1/src/exe/rbdock.cxx#4 $)

>  <Rbt.Library>
libRbt.so (2013.1, Build901 2013/11/27)

>  <Rbt.Parameter_File>
/export/apps/rDock/src/rDock_2013.1_src/data/scripts/dock_solv.prm

>  <Rbt.Receptor>
prm/pocket_docking_2.prm

>  <SCORE>
-16.9876

>  <SCORE.INTER>
-14.5564

>  <SCORE.INTER.CONST>
1

>  <SCORE.INTER.POLAR>
0

>  <SCORE.INTER.ROT>
2

>  <SCORE.INTER.SOLV>
17.1864

>  <SCORE.INTER.VDW>
-20.3664

>  <SCORE.INTER.norm>
-0.766128

>  <SCORE.INTRA>
-2.43116

>  <SCORE.INTRA.DIHEDRAL>
-4.87907

>  <SCORE.INTRA.DIHEDRAL.0>
6.26853

>  <SCORE.INTRA.POLAR>
0

>  <SCORE.INTRA.POLAR.0>
0

>  <SCORE.INTRA.REPUL>
0

>  <SCORE.INTRA.REPUL.0>
0

>  <SCORE.INTRA.SOLV>
0.232849

>  <SCORE.INTRA.SOLV.lig_0>
-38.4926

>  <SCORE.INTRA.VDW>
-0.108049

>  <SCORE.INTRA.VDW.0>
-0.59057

>  <SCORE.INTRA.norm>
-0.127956

>  <SCORE.RESTR>
0

>  <SCORE.RESTR.CAVITY>
0

>  <SCORE.RESTR.norm>
0

>  <SCORE.SYSTEM>
0

>  <SCORE.SYSTEM.CONST>
0

>  <SCORE.SYSTEM.DIHEDRAL>
0

>  <SCORE.SYSTEM.SOLV>
0

>  <SCORE.SYSTEM.norm>
0

>  <SCORE.heavy>
19

>  <SCORE.norm>
-0.894084

>  <RMSD>
0.591

$$$$
ligand
 OpenBabel11021811483D
libRbt.so/2013.1/901 2013/11/27
 19 21  0  0  0  0  0  0  0  0999 V2000
   -6.1354   -7.3128   12.5600 C   0  0  0  0  0  0  0  0  0  0  0  0
   -6.1322   -6.6554   13.8359 O   0  0  0  0  0  0  0  0  0  0  0  0
   -7.2901   -6.7980   11.6978 C   0  0  1  0  0  0  0  0  0  0  0  0
   -7.2053   -5.3695   11.5328 O   0  0  0  0  0  0  0  0  0  0  0  0
   -7.2510   -7.4120   10.3095 C   0  0  1  0  0  0  0  0  0  0  0  0
   -8.2485   -8.4308   10.1662 O   0  0  0  0  0  0  0  0  0  0  0  0
   -7.5146   -6.2733    9.3483 C   0  0  0  0  0  0  0  0  0  0  0  0
   -7.3193   -4.9960   10.1519 C   0  0  2  0  0  0  0  0  0  0  0  0
   -4.9735   -0.3242    9.6375 N   0  0  0  0  0  0  0  0  0  0  0  0
   -6.2165   -0.6280   10.0991 C   0  0  1  0  0  0  0  0  0  0  0  0
   -7.0313    0.3747   10.5048 N   0  0  0  0  0  0  0  0  0  0  0  0
   -6.6606   -1.9130   10.1583 N   0  0  0  0  0  0  0  0  0  0  0  0
   -5.8832   -2.9568    9.7612 C   0  0  2  0  0  0  0  0  0  0  0  0
   -4.6098   -2.7080    9.2819 C   0  0  1  0  0  0  0  0  0  0  0  0
   -4.1366   -1.3014    9.2243 C   0  0  0  0  0  0  0  0  0  0  0  0
   -2.9905   -1.0260    8.8039 O   0  0  0  0  0  0  0  0  0  0  0  0
   -4.0522   -3.8896    8.9656 N   0  0  0  0  0  0  0  0  0  0  0  0
   -4.9628   -4.8538    9.2365 C   0  0  0  0  0  0  0  0  0  0  0  0
   -6.0805   -4.2829    9.7213 N   0  0  1  0  0  0  0  0  0  0  0  0
  1  2  1  0  0  0  0
  3  1  1  1  0  0  0
  3  4  1  0  0  0  0
  3  5  1  0  0  0  0
  5  6  1  1  0  0  0
  5  7  1  0  0  0  0
  7  8  1  0  0  0  0
  8  4  1  1  0  0  0
  8 19  1  0  0  0  0
  9 15  1  0  0  0  0
  9 10  1  0  0  0  0
 10 11  1  6  0  0  0
 10 12  1  0  0  0  0
 13 12  1  6  0  0  0
 13 14  1  0  0  0  0
 13 19  1  0  0  0  0
 14 15  1  1  0  0  0
 14 17  1  0  0  0  0
 15 16  2  0  0  0  0
 17 18  1  0  0  0  0
 19 18  1  1  0  0  0
M  END
>  <CHROM.1>
57.13142736,-91.52301132,-6.05917085,-4.11329304,10.31134835,2.05076972,-0.78856104
-3.07498064

>  <Name>
ligand

>  <RI>
0

>  <Rbt.Current_Directory>
/home/itssahil/PROJECTS/Mol_Feturizer/New_Systems/rnas/3SKI

>  <Rbt.Executable>
rbdock ($Id: //depot/dev/client3/rdock/2013.1/src/exe/rbdock.cxx#4 $)

>  <Rbt.Library>
libRbt.so (2013.1, Build901 2013/11/27)

>  <Rbt.Parameter_File>
/export/apps/rDock/src/rDock_2013.1_src/data/scripts/dock_solv.prm

>  <Rbt.Receptor>
prm/pocket_docking_3.prm

>  <SCORE>
-17.3642

>  <SCORE.INTER>
-14.7008

>  <SCORE.INTER.CONST>
1

>  <SCORE.INTER.POLAR>
0

>  <SCORE.INTER.ROT>
2

>  <SCORE.INTER.SOLV>
18.1859

>  <SCORE.INTER.VDW>
-20.7958

>  <SCORE.INTER.norm>
-0.773728

>  <SCORE.INTRA>
-2.66336

>  <SCORE.INTRA.DIHEDRAL>
-5.05551

>  <SCORE.INTRA.DIHEDRAL.0>
6.26853

>  <SCORE.INTRA.POLAR>
0

>  <SCORE.INTRA.POLAR.0>
0

>  <SCORE.INTRA.REPUL>
0

>  <SCORE.INTRA.REPUL.0>
0

>  <SCORE.INTRA.SOLV>
-0.217129

>  <SCORE.INTRA.SOLV.lig_0>
-38.4926

>  <SCORE.INTRA.VDW>
-0.0270386

>  <SCORE.INTRA.VDW.0>
-0.59057

>  <SCORE.INTRA.norm>
-0.140177

>  <SCORE.RESTR>
0

>  <SCORE.RESTR.CAVITY>
0

>  <SCORE.RESTR.norm>
0

>  <SCORE.SYSTEM>
0

>  <SCORE.SYSTEM.CONST>
0

>  <SCORE.SYSTEM.DIHEDRAL>
0

>  <SCORE.SYSTEM.SOLV>
0

>  <SCORE.SYSTEM.norm>
0

>  <SCORE.heavy>
19

>  <SCORE.norm>
-0.913905

>  <RMSD>
0.591

$$$$
ligand
 OpenBabel11021811483D
libRbt.so/2013.1/901 2013/11/27
 19 21  0  0  0  0  0  0  0  0999 V2000
   -6.4447   -7.3266   12.5873 C   0  0  0  0  0  0  0  0  0  0  0  0
   -5.1410   -7.0067   12.0791 O   0  0  0  0  0  0  0  0  0  0  0  0
   -7.5278   -6.8325   11.6257 C   0  0  1  0  0  0  0  0  0  0  0  0
   -7.4231   -5.4095   11.4281 O   0  0  0  0  0  0  0  0  0  0  0  0
   -7.3865   -7.4854   10.2620 C   0  0  1  0  0  0  0  0  0  0  0  0
   -8.3758   -8.5046   10.0716 O   0  0  0  0  0  0  0  0  0  0  0  0
   -7.5703   -6.3733    9.2523 C   0  0  0  0  0  0  0  0  0  0  0  0
   -7.4298   -5.0745   10.0326 C   0  0  2  0  0  0  0  0  0  0  0  0
   -4.9728   -0.4413    9.7331 N   0  0  0  0  0  0  0  0  0  0  0  0
   -6.2423   -0.7295   10.1273 C   0  0  1  0  0  0  0  0  0  0  0  0
   -7.0567    0.2808   10.5146 N   0  0  0  0  0  0  0  0  0  0  0  0
   -6.7133   -2.0063   10.1373 N   0  0  0  0  0  0  0  0  0  0  0  0
   -5.9376   -3.0571    9.7559 C   0  0  2  0  0  0  0  0  0  0  0  0
   -4.6378   -2.8242    9.3443 C   0  0  1  0  0  0  0  0  0  0  0  0
   -4.1355   -1.4265    9.3399 C   0  0  0  0  0  0  0  0  0  0  0  0
   -2.9652   -1.1657    8.9815 O   0  0  0  0  0  0  0  0  0  0  0  0
   -4.0881   -4.0101    9.0299 N   0  0  0  0  0  0  0  0  0  0  0  0
   -5.0291   -4.9611    9.2356 C   0  0  0  0  0  0  0  0  0  0  0  0
   -6.1580   -4.3778    9.6780 N   0  0  1  0  0  0  0  0  0  0  0  0
  1  2  1  0  0  0  0
  3  1  1  1  0  0  0
  3  4  1  0  0  0  0
  3  5  1  0  0  0  0
  5  6  1  6  0  0  0
  5  7  1  0  0  0  0
  7  8  1  0  0  0  0
  8  4  1  1  0  0  0
  8 19  1  0  0  0  0
  9 15  1  0  0  0  0
  9 10  1  0  0  0  0
 10 11  1  6  0  0  0
 10 12  1  0  0  0  0
 13 12  1  6  0  0  0
 13 14  1  0  0  0  0
 13 19  1  0  0  0  0
 14 15  1  1  0  0  0
 14 17  1  0  0  0  0
 15 16  2  0  0  0  0
 17 18  1  0  0  0  0
 19 18  1  1  0  0  0
M  END
>  <CHROM.1>
-58.50794222,-88.18277213,-6.07995525,-4.21891554,10.20166627,-1.92489093
0.27401852,-0.11044249

>  <Name>
ligand

>  <RI>
0

>  <Rbt.Current_Directory>
/home/itssahil/PROJECTS/Mol_Feturizer/New_Systems/rnas/3SKI

>  <Rbt.Executable>
rbdock ($Id: //depot/dev/client3/rdock/2013.1/src/exe/rbdock.cxx#4 $)

>  <Rbt.Library>
libRbt.so (2013.1, Build901 2013/11/27)

>  <Rbt.Parameter_File>
/export/apps/rDock/src/rDock_2013.1_src/data/scripts/dock_solv.prm

>  <Rbt.Receptor>
prm/pocket_docking_3.prm

>  <SCORE>
-17.3006

>  <SCORE.INTER>
-14.6912

>  <SCORE.INTER.CONST>
1

>  <SCORE.INTER.POLAR>
0

>  <SCORE.INTER.ROT>
2

>  <SCORE.INTER.SOLV>
17.8428

>  <SCORE.INTER.VDW>
-20.6751

>  <SCORE.INTER.norm>
-0.773222

>  <SCORE.INTRA>
-2.60939

>  <SCORE.INTRA.DIHEDRAL>
-5.07563

>  <SCORE.INTRA.DIHEDRAL.0>
6.26853

>  <SCORE.INTRA.POLAR>
0

>  <SCORE.INTRA.POLAR.0>
0

>  <SCORE.INTRA.REPUL>
0

>  <SCORE.INTRA.REPUL.0>
0

>  <SCORE.INTRA.SOLV>
0.254058

>  <SCORE.INTRA.SOLV.lig_0>
-38.4926

>  <SCORE.INTRA.VDW>
-0.198604

>  <SCORE.INTRA.VDW.0>
-0.59057

>  <SCORE.INTRA.norm>
-0.137336

>  <SCORE.RESTR>
0

>  <SCORE.RESTR.CAVITY>
0

>  <SCORE.RESTR.norm>
0

>  <SCORE.SYSTEM>
0

>  <SCORE.SYSTEM.CONST>
0

>  <SCORE.SYSTEM.DIHEDRAL>
0

>  <SCORE.SYSTEM.SOLV>
0

>  <SCORE.SYSTEM.norm>
0

>  <SCORE.heavy>
19

>  <SCORE.norm>
-0.910558

>  <RMSD>
0.594

$$$$
ligand
 OpenBabel11021811483D
libRbt.so/2013.1/901 2013/11/27
 19 21  0  0  0  0  0  0  0  0999 V2000
   -6.5956   -7.2118   12.6388 C   0  0  0  0  0  0  0  0  0  0  0  0
   -5.2630   -6.8741   12.2259 O   0  0  0  0  0  0  0  0  0  0  0  0
   -7.6074   -6.7918   11.5703 C   0  0  1  0  0  0  0  0  0  0  0  0
   -7.5159   -5.3781   11.3097 O   0  0  0  0  0  0  0  0  0  0  0  0
   -7.3435   -7.5071   10.2571 C   0  0  1  0  0  0  0  0  0  0  0  0
   -8.2933   -8.5581   10.0407 O   0  0  0  0  0  0  0  0  0  0  0  0
   -7.4677   -6.4506    9.1808 C   0  0  0  0  0  0  0  0  0  0  0  0
   -7.4169   -5.1121    9.9029 C   0  0  2  0  0  0  0  0  0  0  0  0
   -4.9743   -0.4629    9.7956 N   0  0  0  0  0  0  0  0  0  0  0  0
   -6.2578   -0.7644   10.1303 C   0  0  1  0  0  0  0  0  0  0  0  0
   -7.0931    0.2346   10.5020 N   0  0  0  0  0  0  0  0  0  0  0  0
   -6.7219   -2.0432   10.0961 N   0  0  0  0  0  0  0  0  0  0  0  0
   -5.9252   -3.0830    9.7278 C   0  0  2  0  0  0  0  0  0  0  0  0
   -4.6104   -2.8363    9.3760 C   0  0  1  0  0  0  0  0  0  0  0  0
   -4.1160   -1.4366    9.4195 C   0  0  0  0  0  0  0  0  0  0  0  0
   -2.9330   -1.1636    9.1158 O   0  0  0  0  0  0  0  0  0  0  0  0
   -4.0417   -4.0134    9.0627 N   0  0  0  0  0  0  0  0  0  0  0  0
   -4.9854   -4.9725    9.2103 C   0  0  0  0  0  0  0  0  0  0  0  0
   -6.1351   -4.4030    9.6156 N   0  0  1  0  0  0  0  0  0  0  0  0
  1  2  1  0  0  0  0
  3  1  1  1  0  0  0
  3  4  1  0  0  0  0
  3  5  1  0  0  0  0
  5  6  1  6  0  0  0
  5  7  1  0  0  0  0
  7  8  1  0  0  0  0
  8  4  1  1  0  0  0
  8 19  1  0  0  0  0
  9 15  1  0  0  0  0
  9 10  1  0  0  0  0
 10 11  1  6  0  0  0
 10 12  1  0  0  0  0
 13 12  1  6  0  0  0
 13 14  1  0  0  0  0
 13 19  1  0  0  0  0
 14 15  1  1  0  0  0
 14 17  1  0  0  0  0
 15 16  2  0  0  0  0
 17 18  1  0  0  0  0
 19 18  1  1  0  0  0
M  END
>  <CHROM.1>
-57.95597593,-83.55838059,-6.08460595,-4.22242322,10.20088406,-1.93694926
0.28995379,-0.09112339

>  <Name>
ligand

>  <RI>
0

>  <Rbt.Current_Directory>
/home/itssahil/PROJECTS/Mol_Feturizer/New_Systems/rnas/3SKI

>  <Rbt.Executable>
rbdock ($Id: //depot/dev/client3/rdock/2013.1/src/exe/rbdock.cxx#4 $)

>  <Rbt.Library>
libRbt.so (2013.1, Build901 2013/11/27)

>  <Rbt.Parameter_File>
/export/apps/rDock/src/rDock_2013.1_src/data/scripts/dock_solv.prm

>  <Rbt.Receptor>
prm/pocket_docking_2.prm

>  <SCORE>
-17.3452

>  <SCORE.INTER>
-14.8187

>  <SCORE.INTER.CONST>
1

>  <SCORE.INTER.POLAR>
0

>  <SCORE.INTER.ROT>
2

>  <SCORE.INTER.SOLV>
17.7821

>  <SCORE.INTER.VDW>
-20.7398

>  <SCORE.INTER.norm>
-0.779933

>  <SCORE.INTRA>
-2.52642

>  <SCORE.INTRA.DIHEDRAL>
-5.06749

>  <SCORE.INTRA.DIHEDRAL.0>
6.26853

>  <SCORE.INTRA.POLAR>
0

>  <SCORE.INTRA.POLAR.0>
0

>  <SCORE.INTRA.REPUL>
0

>  <SCORE.INTRA.REPUL.0>
0

>  <SCORE.INTRA.SOLV>
0.248291

>  <SCORE.INTRA.SOLV.lig_0>
-38.4926

>  <SCORE.INTRA.VDW>
-0.116823

>  <SCORE.INTRA.VDW.0>
-0.59057

>  <SCORE.INTRA.norm>
-0.13297

>  <SCORE.RESTR>
0

>  <SCORE.RESTR.CAVITY>
0

>  <SCORE.RESTR.norm>
0

>  <SCORE.SYSTEM>
0

>  <SCORE.SYSTEM.CONST>
0

>  <SCORE.SYSTEM.DIHEDRAL>
0

>  <SCORE.SYSTEM.SOLV>
0

>  <SCORE.SYSTEM.norm>
0

>  <SCORE.heavy>
19

>  <SCORE.norm>
-0.912903

>  <RMSD>
0.602

$$$$
ligand
 OpenBabel11021811483D
libRbt.so/2013.1/901 2013/11/27
 19 21  0  0  0  0  0  0  0  0999 V2000
   -6.6821   -7.2042   12.6408 C   0  0  0  0  0  0  0  0  0  0  0  0
   -5.3433   -6.8448   12.2682 O   0  0  0  0  0  0  0  0  0  0  0  0
   -7.6680   -6.7992   11.5427 C   0  0  1  0  0  0  0  0  0  0  0  0
   -7.5731   -5.3884   11.2677 O   0  0  0  0  0  0  0  0  0  0  0  0
   -7.3701   -7.5293   10.2449 C   0  0  1  0  0  0  0  0  0  0  0  0
   -8.3120   -8.5850   10.0174 O   0  0  0  0  0  0  0  0  0  0  0  0
   -7.4698   -6.4858    9.1535 C   0  0  0  0  0  0  0  0  0  0  0  0
   -7.4398   -5.1388    9.8607 C   0  0  2  0  0  0  0  0  0  0  0  0
   -4.9797   -0.4976    9.8502 N   0  0  0  0  0  0  0  0  0  0  0  0
   -6.2674   -0.7995   10.1678 C   0  0  1  0  0  0  0  0  0  0  0  0
   -7.1027    0.1966   10.5473 N   0  0  0  0  0  0  0  0  0  0  0  0
   -6.7357   -2.0759   10.1090 N   0  0  0  0  0  0  0  0  0  0  0  0
   -5.9392   -3.1127    9.7320 C   0  0  2  0  0  0  0  0  0  0  0  0
   -4.6203   -2.8654    9.3966 C   0  0  1  0  0  0  0  0  0  0  0  0
   -4.1213   -1.4684    9.4669 C   0  0  0  0  0  0  0  0  0  0  0  0
   -2.9345   -1.1951    9.1789 O   0  0  0  0  0  0  0  0  0  0  0  0
   -4.0528   -4.0396    9.0702 N   0  0  0  0  0  0  0  0  0  0  0  0
   -5.0013   -4.9973    9.1936 C   0  0  0  0  0  0  0  0  0  0  0  0
   -6.1528   -4.4300    9.5969 N   0  0  1  0  0  0  0  0  0  0  0  0
  1  2  1  0  0  0  0
  3  1  1  1  0  0  0
  3  4  1  0  0  0  0
  3  5  1  0  0  0  0
  5  6  1  6  0  0  0
  5  7  1  0  0  0  0
  7  8  1  0  0  0  0
  8  4  1  1  0  0  0
  8 19  1  0  0  0  0
  9 15  1  0  0  0  0
  9 10  1  0  0  0  0
 10 11  1  6  0  0  0
 10 12  1  0  0  0  0
 13 12  1  6  0  0  0
 13 14  1  0  0  0  0
 13 19  1  0  0  0  0
 14 15  1  1  0  0  0
 14 17  1  0  0  0  0
 15 16  2  0  0  0  0
 17 18  1  0  0  0  0
 19 18  1  1  0  0  0
M  END
>  <CHROM.1>
-56.84835974,-81.72257850,-6.11012050,-4.24454636,10.20760673,-1.94859099
0.30854655,-0.07107830

>  <Name>
ligand

>  <RI>
0

>  <Rbt.Current_Directory>
/home/itssahil/PROJECTS/Mol_Feturizer/New_Systems/rnas/3SKI

>  <Rbt.Executable>
rbdock ($Id: //depot/dev/client3/rdock/2013.1/src/exe/rbdock.cxx#4 $)

>  <Rbt.Library>
libRbt.so (2013.1, Build901 2013/11/27)

>  <Rbt.Parameter_File>
/export/apps/rDock/src/rDock_2013.1_src/data/scripts/dock_solv.prm

>  <Rbt.Receptor>
prm/pocket_docking_2.prm

>  <SCORE>
-17.3542

>  <SCORE.INTER>
-14.8438

>  <SCORE.INTER.CONST>
1

>  <SCORE.INTER.POLAR>
0

>  <SCORE.INTER.ROT>
2

>  <SCORE.INTER.SOLV>
17.6252

>  <SCORE.INTER.VDW>
-20.7043

>  <SCORE.INTER.norm>
-0.781254

>  <SCORE.INTRA>
-2.51042

>  <SCORE.INTRA.DIHEDRAL>
-5.04572

>  <SCORE.INTRA.DIHEDRAL.0>
6.26853

>  <SCORE.INTRA.POLAR>
0

>  <SCORE.INTRA.POLAR.0>
0

>  <SCORE.INTRA.REPUL>
0

>  <SCORE.INTRA.REPUL.0>
0

>  <SCORE.INTRA.SOLV>
0.244231

>  <SCORE.INTRA.SOLV.lig_0>
-38.4926

>  <SCORE.INTRA.VDW>
-0.109681

>  <SCORE.INTRA.VDW.0>
-0.59057

>  <SCORE.INTRA.norm>
-0.132128

>  <SCORE.RESTR>
0

>  <SCORE.RESTR.CAVITY>
0

>  <SCORE.RESTR.norm>
0

>  <SCORE.SYSTEM>
0

>  <SCORE.SYSTEM.CONST>
0

>  <SCORE.SYSTEM.DIHEDRAL>
0

>  <SCORE.SYSTEM.SOLV>
0

>  <SCORE.SYSTEM.norm>
0

>  <SCORE.heavy>
19

>  <SCORE.norm>
-0.913382

>  <RMSD>
0.610

$$$$
ligand
 OpenBabel11021811483D
libRbt.so/2013.1/901 2013/11/27
 19 21  0  0  0  0  0  0  0  0999 V2000
   -6.6482   -7.2349   12.6411 C   0  0  0  0  0  0  0  0  0  0  0  0
   -5.3099   -6.9083   12.2382 O   0  0  0  0  0  0  0  0  0  0  0  0
   -7.6476   -6.8163   11.5604 C   0  0  1  0  0  0  0  0  0  0  0  0
   -7.5521   -5.4031   11.2981 O   0  0  0  0  0  0  0  0  0  0  0  0
   -7.3693   -7.5343   10.2516 C   0  0  1  0  0  0  0  0  0  0  0  0
   -8.3173   -8.5850   10.0265 O   0  0  0  0  0  0  0  0  0  0  0  0
   -7.4805   -6.4798    9.1720 C   0  0  0  0  0  0  0  0  0  0  0  0
   -7.4370   -5.1399    9.8920 C   0  0  2  0  0  0  0  0  0  0  0  0
   -4.9825   -0.4962    9.8293 N   0  0  0  0  0  0  0  0  0  0  0  0
   -6.2690   -0.7964   10.1532 C   0  0  1  0  0  0  0  0  0  0  0  0
   -7.1046    0.2024   10.5249 N   0  0  0  0  0  0  0  0  0  0  0  0
   -6.7360   -2.0739   10.1082 N   0  0  0  0  0  0  0  0  0  0  0  0
   -5.9392   -3.1135    9.7394 C   0  0  2  0  0  0  0  0  0  0  0  0
   -4.6214   -2.8679    9.3982 C   0  0  1  0  0  0  0  0  0  0  0  0
   -4.1239   -1.4697    9.4534 C   0  0  0  0  0  0  0  0  0  0  0  0
   -2.9382   -1.1978    9.1597 O   0  0  0  0  0  0  0  0  0  0  0  0
   -4.0533   -4.0446    9.0819 N   0  0  0  0  0  0  0  0  0  0  0  0
   -5.0004   -5.0022    9.2173 C   0  0  0  0  0  0  0  0  0  0  0  0
   -6.1515   -4.4323    9.6179 N   0  0  1  0  0  0  0  0  0  0  0  0
  1  2  1  0  0  0  0
  3  1  1  1  0  0  0
  3  4  1  0  0  0  0
  3  5  1  0  0  0  0
  5  6  1  6  0  0  0
  5  7  1  0  0  0  0
  7  8  1  0  0  0  0
  8  4  1  1  0  0  0
  8 19  1  0  0  0  0
  9 15  1  0  0  0  0
  9 10  1  0  0  0  0
 10 11  1  6  0  0  0
 10 12  1  0  0  0  0
 13 12  1  6  0  0  0
 13 14  1  0  0  0  0
 13 19  1  0  0  0  0
 14 15  1  1  0  0  0
 14 17  1  0  0  0  0
 15 16  2  0  0  0  0
 17 18  1  0  0  0  0
 19 18  1  1  0  0  0
M  END
>  <CHROM.1>
-58.40501433,-83.03653025,-6.10531373,-4.25216926,10.21039599,-1.94153657
0.29009275,-0.08401140

>  <Name>
ligand

>  <RI>
0

>  <Rbt.Current_Directory>
/home/itssahil/PROJECTS/Mol_Feturizer/New_Systems/rnas/3SKI

>  <Rbt.Executable>
rbdock ($Id: //depot/dev/client3/rdock/2013.1/src/exe/rbdock.cxx#4 $)

>  <Rbt.Library>
libRbt.so (2013.1, Build901 2013/11/27)

>  <Rbt.Parameter_File>
/export/apps/rDock/src/rDock_2013.1_src/data/scripts/dock_solv.prm

>  <Rbt.Receptor>
prm/blind_docking_80.prm

>  <SCORE>
-17.3331

>  <SCORE.INTER>
-14.817

>  <SCORE.INTER.CONST>
1

>  <SCORE.INTER.POLAR>
0

>  <SCORE.INTER.ROT>
2

>  <SCORE.INTER.SOLV>
17.6641

>  <SCORE.INTER.VDW>
-20.6994

>  <SCORE.INTER.norm>
-0.779843

>  <SCORE.INTRA>
-2.51613

>  <SCORE.INTRA.DIHEDRAL>
-5.07338

>  <SCORE.INTRA.DIHEDRAL.0>
6.26853

>  <SCORE.INTRA.POLAR>
0

>  <SCORE.INTRA.POLAR.0>
0

>  <SCORE.INTRA.REPUL>
0

>  <SCORE.INTRA.REPUL.0>
0

>  <SCORE.INTRA.SOLV>
0.248506

>  <SCORE.INTRA.SOLV.lig_0>
-38.4926

>  <SCORE.INTRA.VDW>
-0.103693

>  <SCORE.INTRA.VDW.0>
-0.59057

>  <SCORE.INTRA.norm>
-0.132428

>  <SCORE.RESTR>
0

>  <SCORE.RESTR.CAVITY>
0

>  <SCORE.RESTR.norm>
0

>  <SCORE.SYSTEM>
0

>  <SCORE.SYSTEM.CONST>
0

>  <SCORE.SYSTEM.DIHEDRAL>
0

>  <SCORE.SYSTEM.SOLV>
0

>  <SCORE.SYSTEM.norm>
0

>  <SCORE.heavy>
19

>  <SCORE.norm>
-0.912271

>  <RMSD>
0.614

$$$$
ligand
 OpenBabel11021811483D
libRbt.so/2013.1/901 2013/11/27
 19 21  0  0  0  0  0  0  0  0999 V2000
   -6.5916   -7.2468   12.6215 C   0  0  0  0  0  0  0  0  0  0  0  0
   -5.2603   -6.9013   12.2111 O   0  0  0  0  0  0  0  0  0  0  0  0
   -7.6049   -6.8235   11.5557 C   0  0  1  0  0  0  0  0  0  0  0  0
   -7.5158   -5.4084   11.3016 O   0  0  0  0  0  0  0  0  0  0  0  0
   -7.3408   -7.5322   10.2390 C   0  0  1  0  0  0  0  0  0  0  0  0
   -8.2891   -8.5837   10.0183 O   0  0  0  0  0  0  0  0  0  0  0  0
   -7.4674   -6.4709    9.1677 C   0  0  0  0  0  0  0  0  0  0  0  0
   -7.4182   -5.1357    9.8960 C   0  0  2  0  0  0  0  0  0  0  0  0
   -4.9810   -0.4831    9.8148 N   0  0  0  0  0  0  0  0  0  0  0  0
   -6.2636   -0.7882   10.1498 C   0  0  1  0  0  0  0  0  0  0  0  0
   -7.0994    0.2074   10.5295 N   0  0  0  0  0  0  0  0  0  0  0  0
   -6.7263   -2.0674   10.1080 N   0  0  0  0  0  0  0  0  0  0  0  0
   -5.9291   -3.1038    9.7316 C   0  0  2  0  0  0  0  0  0  0  0  0
   -4.6153   -2.8533    9.3791 C   0  0  1  0  0  0  0  0  0  0  0  0
   -4.1223   -1.4533    9.4308 C   0  0  0  0  0  0  0  0  0  0  0  0
   -2.9402   -1.1770    9.1269 O   0  0  0  0  0  0  0  0  0  0  0  0
   -4.0457   -4.0277    9.0570 N   0  0  0  0  0  0  0  0  0  0  0  0
   -4.9881   -4.9888    9.2000 C   0  0  0  0  0  0  0  0  0  0  0  0
   -6.1377   -4.4232    9.6111 N   0  0  1  0  0  0  0  0  0  0  0  0
  1  2  1  0  0  0  0
  3  1  1  1  0  0  0
  3  4  1  0  0  0  0
  3  5  1  0  0  0  0
  5  6  1  6  0  0  0
  5  7  1  0  0  0  0
  7  8  1  0  0  0  0
  8  4  1  1  0  0  0
  8 19  1  0  0  0  0
  9 15  1  0  0  0  0
  9 10  1  0  0  0  0
 10 11  1  6  0  0  0
 10 12  1  0  0  0  0
 13 12  1  6  0  0  0
 13 14  1  0  0  0  0
 13 19  1  0  0  0  0
 14 15  1  1  0  0  0
 14 17  1  0  0  0  0
 15 16  2  0  0  0  0
 17 18  1  0  0  0  0
 19 18  1  1  0  0  0
M  END
>  <CHROM.1>
-57.77616736,-83.43276610,-6.08657415,-4.24533511,10.19903695,-1.93611511
0.29351720,-0.08479634

>  <Name>
ligand

>  <RI>
0

>  <Rbt.Current_Directory>
/home/itssahil/PROJECTS/Mol_Feturizer/New_Systems/rnas/3SKI

>  <Rbt.Executable>
rbdock ($Id: //depot/dev/client3/rdock/2013.1/src/exe/rbdock.cxx#4 $)

>  <Rbt.Library>
libRbt.so (2013.1, Build901 2013/11/27)

>  <Rbt.Parameter_File>
/export/apps/rDock/src/rDock_2013.1_src/data/scripts/dock_solv.prm

>  <Rbt.Receptor>
prm/pocket_docking_5.prm

>  <SCORE>
-17.3736

>  <SCORE.INTER>
-14.8492

>  <SCORE.INTER.CONST>
1

>  <SCORE.INTER.POLAR>
0

>  <SCORE.INTER.ROT>
2

>  <SCORE.INTER.SOLV>
17.705

>  <SCORE.INTER.VDW>
-20.7344

>  <SCORE.INTER.norm>
-0.781536

>  <SCORE.INTRA>
-2.5244

>  <SCORE.INTRA.DIHEDRAL>
-5.06462

>  <SCORE.INTRA.DIHEDRAL.0>
6.26853

>  <SCORE.INTRA.POLAR>
0

>  <SCORE.INTRA.POLAR.0>
0

>  <SCORE.INTRA.REPUL>
0

>  <SCORE.INTRA.REPUL.0>
0

>  <SCORE.INTRA.SOLV>
0.247835

>  <SCORE.INTRA.SOLV.lig_0>
-38.4926

>  <SCORE.INTRA.VDW>
-0.116005

>  <SCORE.INTRA.VDW.0>
-0.59057

>  <SCORE.INTRA.norm>
-0.132863

>  <SCORE.RESTR>
0

>  <SCORE.RESTR.CAVITY>
0

>  <SCORE.RESTR.norm>
0

>  <SCORE.SYSTEM>
0

>  <SCORE.SYSTEM.CONST>
0

>  <SCORE.SYSTEM.DIHEDRAL>
0

>  <SCORE.SYSTEM.SOLV>
0

>  <SCORE.SYSTEM.norm>
0

>  <SCORE.heavy>
19

>  <SCORE.norm>
-0.914399

>  <RMSD>
0.617

$$$$
ligand
 OpenBabel11021811483D
libRbt.so/2013.1/901 2013/11/27
 19 21  0  0  0  0  0  0  0  0999 V2000
   -5.9864   -7.0106   12.7718 C   0  0  0  0  0  0  0  0  0  0  0  0
   -5.8717   -6.4178   14.0739 O   0  0  0  0  0  0  0  0  0  0  0  0
   -7.1965   -6.4383   12.0301 C   0  0  1  0  0  0  0  0  0  0  0  0
   -7.0606   -5.0150   11.8553 O   0  0  0  0  0  0  0  0  0  0  0  0
   -7.3275   -7.0488   10.6459 C   0  0  1  0  0  0  0  0  0  0  0  0
   -8.3820   -8.0183   10.6060 O   0  0  0  0  0  0  0  0  0  0  0  0
   -7.6323   -5.8956    9.7147 C   0  0  0  0  0  0  0  0  0  0  0  0
   -7.2958   -4.6317   10.4925 C   0  0  2  0  0  0  0  0  0  0  0  0
   -4.8051   -0.0729    9.7133 N   0  0  0  0  0  0  0  0  0  0  0  0
   -6.0095   -0.3184   10.2960 C   0  0  1  0  0  0  0  0  0  0  0  0
   -6.7354    0.7218   10.7704 N   0  0  0  0  0  0  0  0  0  0  0  0
   -6.5026   -1.5817   10.4089 N   0  0  0  0  0  0  0  0  0  0  0  0
   -5.8150   -2.6612    9.9469 C   0  0  2  0  0  0  0  0  0  0  0  0
   -4.5845   -2.4722    9.3442 C   0  0  1  0  0  0  0  0  0  0  0  0
   -4.0569   -1.0887    9.2291 C   0  0  0  0  0  0  0  0  0  0  0  0
   -2.9460   -0.8672    8.6971 O   0  0  0  0  0  0  0  0  0  0  0  0
   -4.1136   -3.6791    8.9852 N   0  0  0  0  0  0  0  0  0  0  0  0
   -5.0356   -4.6000    9.3514 C   0  0  0  0  0  0  0  0  0  0  0  0
   -6.0742   -3.9772    9.9377 N   0  0  1  0  0  0  0  0  0  0  0  0
  1  2  1  0  0  0  0
  3  1  1  6  0  0  0
  3  4  1  0  0  0  0
  3  5  1  0  0  0  0
  5  6  1  1  0  0  0
  5  7  1  0  0  0  0
  7  8  1  0  0  0  0
  8  4  1  1  0  0  0
  8 19  1  0  0  0  0
  9 15  1  0  0  0  0
  9 10  1  0  0  0  0
 10 11  1  6  0  0  0
 10 12  1  0  0  0  0
 13 12  1  6  0  0  0
 13 14  1  0  0  0  0
 13 19  1  0  0  0  0
 14 15  1  1  0  0  0
 14 17  1  0  0  0  0
 15 16  2  0  0  0  0
 17 18  1  0  0  0  0
 19 18  1  1  0  0  0
M  END
>  <CHROM.1>
60.72153209,-92.02260495,-5.99152418,-3.81366580,10.51780733,2.12568259,-0.87543631
-3.02789256

>  <Name>
ligand

>  <RI>
0

>  <Rbt.Current_Directory>
/home/itssahil/PROJECTS/Mol_Feturizer/New_Systems/rnas/3SKI

>  <Rbt.Executable>
rbdock ($Id: //depot/dev/client3/rdock/2013.1/src/exe/rbdock.cxx#4 $)

>  <Rbt.Library>
libRbt.so (2013.1, Build901 2013/11/27)

>  <Rbt.Parameter_File>
/export/apps/rDock/src/rDock_2013.1_src/data/scripts/dock_solv.prm

>  <Rbt.Receptor>
prm/pocket_docking_8.prm

>  <SCORE>
-17.5183

>  <SCORE.INTER>
-14.8184

>  <SCORE.INTER.CONST>
1

>  <SCORE.INTER.POLAR>
0

>  <SCORE.INTER.ROT>
2

>  <SCORE.INTER.SOLV>
18.7962

>  <SCORE.INTER.VDW>
-21.0777

>  <SCORE.INTER.norm>
-0.779915

>  <SCORE.INTRA>
-2.69992

>  <SCORE.INTRA.DIHEDRAL>
-5.08199

>  <SCORE.INTRA.DIHEDRAL.0>
6.26853

>  <SCORE.INTRA.POLAR>
0

>  <SCORE.INTRA.POLAR.0>
0

>  <SCORE.INTRA.REPUL>
0

>  <SCORE.INTRA.REPUL.0>
0

>  <SCORE.INTRA.SOLV>
-0.23107

>  <SCORE.INTRA.SOLV.lig_0>
-38.4926

>  <SCORE.INTRA.VDW>
-0.0433901

>  <SCORE.INTRA.VDW.0>
-0.59057

>  <SCORE.INTRA.norm>
-0.142101

>  <SCORE.RESTR>
0

>  <SCORE.RESTR.CAVITY>
0

>  <SCORE.RESTR.norm>
0

>  <SCORE.SYSTEM>
0

>  <SCORE.SYSTEM.CONST>
0

>  <SCORE.SYSTEM.DIHEDRAL>
0

>  <SCORE.SYSTEM.SOLV>
0

>  <SCORE.SYSTEM.norm>
0

>  <SCORE.heavy>
19

>  <SCORE.norm>
-0.922016

>  <RMSD>
0.619

$$$$
ligand
 OpenBabel11021811483D
libRbt.so/2013.1/901 2013/11/27
 19 21  0  0  0  0  0  0  0  0999 V2000
   -6.6014   -7.2287   12.6297 C   0  0  0  0  0  0  0  0  0  0  0  0
   -5.2689   -6.8807   12.2250 O   0  0  0  0  0  0  0  0  0  0  0  0
   -7.6097   -6.8169   11.5548 C   0  0  1  0  0  0  0  0  0  0  0  0
   -7.5234   -5.4035   11.2900 O   0  0  0  0  0  0  0  0  0  0  0  0
   -7.3359   -7.5351   10.2452 C   0  0  1  0  0  0  0  0  0  0  0  0
   -8.2798   -8.5912   10.0274 O   0  0  0  0  0  0  0  0  0  0  0  0
   -7.4595   -6.4827    9.1649 C   0  0  0  0  0  0  0  0  0  0  0  0
   -7.4185   -5.1417    9.8829 C   0  0  2  0  0  0  0  0  0  0  0  0
   -4.9905   -0.4845    9.7939 N   0  0  0  0  0  0  0  0  0  0  0  0
   -6.2735   -0.7910   10.1257 C   0  0  1  0  0  0  0  0  0  0  0  0
   -7.1125    0.2042   10.4994 N   0  0  0  0  0  0  0  0  0  0  0  0
   -6.7335   -2.0712   10.0868 N   0  0  0  0  0  0  0  0  0  0  0  0
   -5.9330   -3.1073    9.7164 C   0  0  2  0  0  0  0  0  0  0  0  0
   -4.6185   -2.8553    9.3673 C   0  0  1  0  0  0  0  0  0  0  0  0
   -4.1285   -1.4542    9.4159 C   0  0  0  0  0  0  0  0  0  0  0  0
   -2.9460   -1.1765    9.1149 O   0  0  0  0  0  0  0  0  0  0  0  0
   -4.0456   -4.0296    9.0511 N   0  0  0  0  0  0  0  0  0  0  0  0
   -4.9865   -4.9921    9.1943 C   0  0  0  0  0  0  0  0  0  0  0  0
   -6.1386   -4.4276    9.5997 N   0  0  1  0  0  0  0  0  0  0  0  0
  1  2  1  0  0  0  0
  3  1  1  1  0  0  0
  3  4  1  0  0  0  0
  3  5  1  0  0  0  0
  5  6  1  6  0  0  0
  5  7  1  0  0  0  0
  7  8  1  0  0  0  0
  8  4  1  1  0  0  0
  8 19  1  0  0  0  0
  9 15  1  0  0  0  0
  9 10  1  0  0  0  0
 10 11  1  6  0  0  0
 10 12  1  0  0  0  0
 13 12  1  6  0  0  0
 13 14  1  0  0  0  0
 13 19  1  0  0  0  0
 14 15  1  1  0  0  0
 14 17  1  0  0  0  0
 15 16  2  0  0  0  0
 17 18  1  0  0  0  0
 19 18  1  1  0  0  0
M  END
>  <CHROM.1>
-57.69515945,-83.13235189,-6.09009486,-4.24535271,10.19080436,-1.93534136
0.29442365,-0.08837083

>  <Name>
ligand

>  <RI>
0

>  <Rbt.Current_Directory>
/home/itssahil/PROJECTS/Mol_Feturizer/New_Systems/rnas/3SKI

>  <Rbt.Executable>
rbdock ($Id: //depot/dev/client3/rdock/2013.1/src/exe/rbdock.cxx#4 $)

>  <Rbt.Library>
libRbt.so (2013.1, Build901 2013/11/27)

>  <Rbt.Parameter_File>
/export/apps/rDock/src/rDock_2013.1_src/data/scripts/dock_solv.prm

>  <Rbt.Receptor>
prm/pocket_docking_2.prm

>  <SCORE>
-17.3594

>  <SCORE.INTER>
-14.8402

>  <SCORE.INTER.CONST>
1

>  <SCORE.INTER.POLAR>
0

>  <SCORE.INTER.ROT>
2

>  <SCORE.INTER.SOLV>
17.778

>  <SCORE.INTER.VDW>
-20.7528

>  <SCORE.INTER.norm>
-0.781064

>  <SCORE.INTRA>
-2.51915

>  <SCORE.INTRA.DIHEDRAL>
-5.06317

>  <SCORE.INTRA.DIHEDRAL.0>
6.26853

>  <SCORE.INTRA.POLAR>
0

>  <SCORE.INTRA.POLAR.0>
0

>  <SCORE.INTRA.REPUL>
0

>  <SCORE.INTRA.REPUL.0>
0

>  <SCORE.INTRA.SOLV>
0.247364

>  <SCORE.INTRA.SOLV.lig_0>
-38.4926

>  <SCORE.INTRA.VDW>
-0.111249

>  <SCORE.INTRA.VDW.0>
-0.59057

>  <SCORE.INTRA.norm>
-0.132587

>  <SCORE.RESTR>
0

>  <SCORE.RESTR.CAVITY>
0

>  <SCORE.RESTR.norm>
0

>  <SCORE.SYSTEM>
0

>  <SCORE.SYSTEM.CONST>
0

>  <SCORE.SYSTEM.DIHEDRAL>
0

>  <SCORE.SYSTEM.SOLV>
0

>  <SCORE.SYSTEM.norm>
0

>  <SCORE.heavy>
19

>  <SCORE.norm>
-0.913651

>  <RMSD>
0.622

$$$$
ligand
 OpenBabel11021811483D
libRbt.so/2013.1/901 2013/11/27
 19 21  0  0  0  0  0  0  0  0999 V2000
   -6.7484   -7.1201   12.5444 C   0  0  0  0  0  0  0  0  0  0  0  0
   -6.9860   -8.5123   12.8004 O   0  0  0  0  0  0  0  0  0  0  0  0
   -7.7797   -6.5767   11.5530 C   0  0  1  0  0  0  0  0  0  0  0  0
   -7.6079   -5.1589   11.3649 O   0  0  0  0  0  0  0  0  0  0  0  0
   -7.6257   -7.2308   10.1913 C   0  0  1  0  0  0  0  0  0  0  0  0
   -8.6517   -8.2057    9.9668 O   0  0  0  0  0  0  0  0  0  0  0  0
   -7.7308   -6.1087    9.1814 C   0  0  0  0  0  0  0  0  0  0  0  0
   -7.5581   -4.8196    9.9713 C   0  0  2  0  0  0  0  0  0  0  0  0
   -4.8999   -0.2942    9.7533 N   0  0  0  0  0  0  0  0  0  0  0  0
   -6.1924   -0.5283   10.1064 C   0  0  1  0  0  0  0  0  0  0  0  0
   -6.9756    0.5157   10.4678 N   0  0  0  0  0  0  0  0  0  0  0  0
   -6.7168   -1.7841   10.1006 N   0  0  0  0  0  0  0  0  0  0  0  0
   -5.9741   -2.8670    9.7437 C   0  0  2  0  0  0  0  0  0  0  0  0
   -4.6531   -2.6893    9.3742 C   0  0  1  0  0  0  0  0  0  0  0  0
   -4.0926   -1.3141    9.3868 C   0  0  0  0  0  0  0  0  0  0  0  0
   -2.9015   -1.1030    9.0663 O   0  0  0  0  0  0  0  0  0  0  0  0
   -4.1441   -3.8976    9.0771 N   0  0  0  0  0  0  0  0  0  0  0  0
   -5.1304   -4.8080    9.2519 C   0  0  0  0  0  0  0  0  0  0  0  0
   -6.2474   -4.1773    9.6581 N   0  0  1  0  0  0  0  0  0  0  0  0
  1  2  1  0  0  0  0
  3  1  1  1  0  0  0
  3  4  1  0  0  0  0
  3  5  1  0  0  0  0
  5  6  1  6  0  0  0
  5  7  1  0  0  0  0
  7  8  1  0  0  0  0
  8  4  1  1  0  0  0
  8 19  1  0  0  0  0
  9 15  1  0  0  0  0
  9 10  1  0  0  0  0
 10 11  1  6  0  0  0
 10 12  1  0  0  0  0
 13 12  1  6  0  0  0
 13 14  1  0  0  0  0
 13 19  1  0  0  0  0
 14 15  1  1  0  0  0
 14 17  1  0  0  0  0
 15 16  2  0  0  0  0
 17 18  1  0  0  0  0
 19 18  1  1  0  0  0
M  END
>  <CHROM.1>
175.85474408,-88.44478212,-6.27557908,-4.12459638,10.22527438,-1.98788355
0.38776212,-0.07133208

>  <Name>
ligand

>  <RI>
0

>  <Rbt.Current_Directory>
/home/itssahil/PROJECTS/Mol_Feturizer/New_Systems/rnas/3SKI

>  <Rbt.Executable>
rbdock ($Id: //depot/dev/client3/rdock/2013.1/src/exe/rbdock.cxx#4 $)

>  <Rbt.Library>
libRbt.so (2013.1, Build901 2013/11/27)

>  <Rbt.Parameter_File>
/export/apps/rDock/src/rDock_2013.1_src/data/scripts/dock_solv.prm

>  <Rbt.Receptor>
prm/pocket_docking_2.prm

>  <SCORE>
-17.2634

>  <SCORE.INTER>
-14.771

>  <SCORE.INTER.CONST>
1

>  <SCORE.INTER.POLAR>
0

>  <SCORE.INTER.ROT>
2

>  <SCORE.INTER.SOLV>
17.9688

>  <SCORE.INTER.VDW>
-20.7703

>  <SCORE.INTER.norm>
-0.777424

>  <SCORE.INTRA>
-2.49235

>  <SCORE.INTRA.DIHEDRAL>
-5.02382

>  <SCORE.INTRA.DIHEDRAL.0>
6.26853

>  <SCORE.INTRA.POLAR>
0

>  <SCORE.INTRA.POLAR.0>
0

>  <SCORE.INTRA.REPUL>
0

>  <SCORE.INTRA.REPUL.0>
0

>  <SCORE.INTRA.SOLV>
-0.0207971

>  <SCORE.INTRA.SOLV.lig_0>
-38.4926

>  <SCORE.INTRA.VDW>
0.0299642

>  <SCORE.INTRA.VDW.0>
-0.59057

>  <SCORE.INTRA.norm>
-0.131176

>  <SCORE.RESTR>
0

>  <SCORE.RESTR.CAVITY>
0

>  <SCORE.RESTR.norm>
0

>  <SCORE.SYSTEM>
0

>  <SCORE.SYSTEM.CONST>
0

>  <SCORE.SYSTEM.DIHEDRAL>
0

>  <SCORE.SYSTEM.SOLV>
0

>  <SCORE.SYSTEM.norm>
0

>  <SCORE.heavy>
19

>  <SCORE.norm>
-0.9086

>  <RMSD>
0.623

$$$$
ligand
 OpenBabel11021811483D
libRbt.so/2013.1/901 2013/11/27
 19 21  0  0  0  0  0  0  0  0999 V2000
   -5.9004   -7.2043   12.6848 C   0  0  0  0  0  0  0  0  0  0  0  0
   -5.7010   -6.6797   14.0059 O   0  0  0  0  0  0  0  0  0  0  0  0
   -7.1251   -6.5578   12.0336 C   0  0  1  0  0  0  0  0  0  0  0  0
   -6.9592   -5.1299   11.9421 O   0  0  0  0  0  0  0  0  0  0  0  0
   -7.3299   -7.0761   10.6210 C   0  0  1  0  0  0  0  0  0  0  0  0
   -8.4104   -8.0160   10.5666 O   0  0  0  0  0  0  0  0  0  0  0  0
   -7.6430   -5.8593    9.7776 C   0  0  0  0  0  0  0  0  0  0  0  0
   -7.2411   -4.6556   10.6172 C   0  0  2  0  0  0  0  0  0  0  0  0
   -4.8832   -0.0729    9.6014 N   0  0  0  0  0  0  0  0  0  0  0  0
   -6.0944   -0.3218   10.1680 C   0  0  1  0  0  0  0  0  0  0  0  0
   -6.8676    0.7210   10.5536 N   0  0  0  0  0  0  0  0  0  0  0  0
   -6.5481   -1.5916   10.3518 N   0  0  0  0  0  0  0  0  0  0  0  0
   -5.8122   -2.6742    9.9803 C   0  0  2  0  0  0  0  0  0  0  0  0
   -4.5724   -2.4819    9.3981 C   0  0  1  0  0  0  0  0  0  0  0  0
   -4.0882   -1.0913    9.2049 C   0  0  0  0  0  0  0  0  0  0  0  0
   -2.9710   -0.8661    8.6881 O   0  0  0  0  0  0  0  0  0  0  0  0
   -4.0517   -3.6925    9.1322 N   0  0  0  0  0  0  0  0  0  0  0  0
   -4.9523   -4.6193    9.5348 C   0  0  0  0  0  0  0  0  0  0  0  0
   -6.0271   -3.9962   10.0517 N   0  0  1  0  0  0  0  0  0  0  0  0
  1  2  1  0  0  0  0
  3  1  1  6  0  0  0
  3  4  1  0  0  0  0
  3  5  1  0  0  0  0
  5  6  1  1  0  0  0
  5  7  1  0  0  0  0
  7  8  1  0  0  0  0
  8  4  1  1  0  0  0
  8 19  1  0  0  0  0
  9 15  1  0  0  0  0
  9 10  1  0  0  0  0
 10 11  1  6  0  0  0
 10 12  1  0  0  0  0
 13 12  1  6  0  0  0
 13 14  1  0  0  0  0
 13 19  1  0  0  0  0
 14 15  1  1  0  0  0
 14 17  1  0  0  0  0
 15 16  2  0  0  0  0
 17 18  1  0  0  0  0
 19 18  1  1  0  0  0
M  END
>  <CHROM.1>
59.64295192,-101.07280767,-5.97663635,-3.85802265,10.51860469,-1.92457489
0.45014901,-0.17714110

>  <Name>
ligand

>  <RI>
0

>  <Rbt.Current_Directory>
/home/itssahil/PROJECTS/Mol_Feturizer/New_Systems/rnas/3SKI

>  <Rbt.Executable>
rbdock ($Id: //depot/dev/client3/rdock/2013.1/src/exe/rbdock.cxx#4 $)

>  <Rbt.Library>
libRbt.so (2013.1, Build901 2013/11/27)

>  <Rbt.Parameter_File>
/export/apps/rDock/src/rDock_2013.1_src/data/scripts/dock_solv.prm

>  <Rbt.Receptor>
prm/pocket_docking_8.prm

>  <SCORE>
-17.5143

>  <SCORE.INTER>
-14.6555

>  <SCORE.INTER.CONST>
1

>  <SCORE.INTER.POLAR>
0

>  <SCORE.INTER.ROT>
2

>  <SCORE.INTER.SOLV>
18.5543

>  <SCORE.INTER.VDW>
-20.8884

>  <SCORE.INTER.norm>
-0.771343

>  <SCORE.INTRA>
-2.85881

>  <SCORE.INTRA.DIHEDRAL>
-5.08072

>  <SCORE.INTRA.DIHEDRAL.0>
6.26853

>  <SCORE.INTRA.POLAR>
0

>  <SCORE.INTRA.POLAR.0>
0

>  <SCORE.INTRA.REPUL>
0

>  <SCORE.INTRA.REPUL.0>
0

>  <SCORE.INTRA.SOLV>
-0.23245

>  <SCORE.INTRA.SOLV.lig_0>
-38.4926

>  <SCORE.INTRA.VDW>
-0.202219

>  <SCORE.INTRA.VDW.0>
-0.59057

>  <SCORE.INTRA.norm>
-0.150463

>  <SCORE.RESTR>
0

>  <SCORE.RESTR.CAVITY>
0

>  <SCORE.RESTR.norm>
0

>  <SCORE.SYSTEM>
0

>  <SCORE.SYSTEM.CONST>
0

>  <SCORE.SYSTEM.DIHEDRAL>
0

>  <SCORE.SYSTEM.SOLV>
0

>  <SCORE.SYSTEM.norm>
0

>  <SCORE.heavy>
19

>  <SCORE.norm>
-0.921807

>  <RMSD>
0.627

$$$$
ligand
 OpenBabel11021811483D
libRbt.so/2013.1/901 2013/11/27
 19 21  0  0  0  0  0  0  0  0999 V2000
   -6.5900   -7.2605   12.6308 C   0  0  0  0  0  0  0  0  0  0  0  0
   -5.2584   -6.9225   12.2150 O   0  0  0  0  0  0  0  0  0  0  0  0
   -7.6043   -6.8396   11.5651 C   0  0  1  0  0  0  0  0  0  0  0  0
   -7.5186   -5.4243   11.3109 O   0  0  0  0  0  0  0  0  0  0  0  0
   -7.3386   -7.5477   10.2483 C   0  0  1  0  0  0  0  0  0  0  0  0
   -8.2845   -8.6014   10.0277 O   0  0  0  0  0  0  0  0  0  0  0  0
   -7.4679   -6.4867    9.1770 C   0  0  0  0  0  0  0  0  0  0  0  0
   -7.4218   -5.1514    9.9053 C   0  0  2  0  0  0  0  0  0  0  0  0
   -5.0027   -0.4899    9.8004 N   0  0  0  0  0  0  0  0  0  0  0  0
   -6.2853   -0.7976   10.1326 C   0  0  1  0  0  0  0  0  0  0  0  0
   -7.1265    0.1973   10.5019 N   0  0  0  0  0  0  0  0  0  0  0  0
   -6.7428   -2.0789   10.0981 N   0  0  0  0  0  0  0  0  0  0  0  0
   -5.9400   -3.1148    9.7322 C   0  0  2  0  0  0  0  0  0  0  0  0
   -4.6258   -2.8616    9.3830 C   0  0  1  0  0  0  0  0  0  0  0  0
   -4.1386   -1.4593    9.4267 C   0  0  0  0  0  0  0  0  0  0  0  0
   -2.9564   -1.1805    9.1254 O   0  0  0  0  0  0  0  0  0  0  0  0
   -4.0504   -4.0360    9.0716 N   0  0  0  0  0  0  0  0  0  0  0  0
   -4.9896   -4.9998    9.2178 C   0  0  0  0  0  0  0  0  0  0  0  0
   -6.1430   -4.4359    9.6203 N   0  0  1  0  0  0  0  0  0  0  0  0
  1  2  1  0  0  0  0
  3  1  1  1  0  0  0
  3  4  1  0  0  0  0
  3  5  1  0  0  0  0
  5  6  1  6  0  0  0
  5  7  1  0  0  0  0
  7  8  1  0  0  0  0
  8  4  1  1  0  0  0
  8 19  1  0  0  0  0
  9 15  1  0  0  0  0
  9 10  1  0  0  0  0
 10 11  1  6  0  0  0
 10 12  1  0  0  0  0
 13 12  1  6  0  0  0
 13 14  1  0  0  0  0
 13 19  1  0  0  0  0
 14 15  1  1  0  0  0
 14 17  1  0  0  0  0
 15 16  2  0  0  0  0
 17 18  1  0  0  0  0
 19 18  1  1  0  0  0
M  END
>  <CHROM.1>
-58.28323677,-83.90934264,-6.09416279,-4.25760641,10.20124975,-1.93056400
0.28226023,-0.09353561

>  <Name>
ligand

>  <RI>
0

>  <Rbt.Current_Directory>
/home/itssahil/PROJECTS/Mol_Feturizer/New_Systems/rnas/3SKI

>  <Rbt.Executable>
rbdock ($Id: //depot/dev/client3/rdock/2013.1/src/exe/rbdock.cxx#4 $)

>  <Rbt.Library>
libRbt.so (2013.1, Build901 2013/11/27)

>  <Rbt.Parameter_File>
/export/apps/rDock/src/rDock_2013.1_src/data/scripts/dock_solv.prm

>  <Rbt.Receptor>
prm/pocket_docking_3.prm

>  <SCORE>
-17.3761

>  <SCORE.INTER>
-14.8442

>  <SCORE.INTER.CONST>
1

>  <SCORE.INTER.POLAR>
0

>  <SCORE.INTER.ROT>
2

>  <SCORE.INTER.SOLV>
17.7796

>  <SCORE.INTER.VDW>
-20.756

>  <SCORE.INTER.norm>
-0.781273

>  <SCORE.INTRA>
-2.53193

>  <SCORE.INTRA.DIHEDRAL>
-5.07215

>  <SCORE.INTRA.DIHEDRAL.0>
6.26853

>  <SCORE.INTRA.POLAR>
0

>  <SCORE.INTRA.POLAR.0>
0

>  <SCORE.INTRA.REPUL>
0

>  <SCORE.INTRA.REPUL.0>
0

>  <SCORE.INTRA.SOLV>
0.249239

>  <SCORE.INTRA.SOLV.lig_0>
-38.4926

>  <SCORE.INTRA.VDW>
-0.12047

>  <SCORE.INTRA.VDW.0>
-0.59057

>  <SCORE.INTRA.norm>
-0.133259

>  <SCORE.RESTR>
0

>  <SCORE.RESTR.CAVITY>
0

>  <SCORE.RESTR.norm>
0

>  <SCORE.SYSTEM>
0

>  <SCORE.SYSTEM.CONST>
0

>  <SCORE.SYSTEM.DIHEDRAL>
0

>  <SCORE.SYSTEM.SOLV>
0

>  <SCORE.SYSTEM.norm>
0

>  <SCORE.heavy>
19

>  <SCORE.norm>
-0.914532

>  <RMSD>
0.628

$$$$
ligand
 OpenBabel11021811483D
libRbt.so/2013.1/901 2013/11/27
 19 21  0  0  0  0  0  0  0  0999 V2000
   -5.9282   -7.1436   12.7309 C   0  0  0  0  0  0  0  0  0  0  0  0
   -5.8137   -6.6456   14.0722 O   0  0  0  0  0  0  0  0  0  0  0  0
   -7.1485   -6.5333   12.0379 C   0  0  1  0  0  0  0  0  0  0  0  0
   -7.0001   -5.1063   11.9085 O   0  0  0  0  0  0  0  0  0  0  0  0
   -7.3186   -7.0945   10.6372 C   0  0  1  0  0  0  0  0  0  0  0  0
   -8.3850   -8.0507   10.5892 O   0  0  0  0  0  0  0  0  0  0  0  0
   -7.6315   -5.9069    9.7532 C   0  0  0  0  0  0  0  0  0  0  0  0
   -7.2624   -4.6741   10.5653 C   0  0  2  0  0  0  0  0  0  0  0  0
   -4.8745   -0.0924    9.6175 N   0  0  0  0  0  0  0  0  0  0  0  0
   -6.0844   -0.3420   10.1867 C   0  0  1  0  0  0  0  0  0  0  0  0
   -6.8471    0.6997   10.5955 N   0  0  0  0  0  0  0  0  0  0  0  0
   -6.5469   -1.6113   10.3505 N   0  0  0  0  0  0  0  0  0  0  0  0
   -5.8218   -2.6928    9.9554 C   0  0  2  0  0  0  0  0  0  0  0  0
   -4.5838   -2.4997    9.3693 C   0  0  1  0  0  0  0  0  0  0  0  0
   -4.0899   -1.1096    9.1981 C   0  0  0  0  0  0  0  0  0  0  0  0
   -2.9740   -0.8839    8.6787 O   0  0  0  0  0  0  0  0  0  0  0  0
   -4.0743   -3.7093    9.0787 N   0  0  0  0  0  0  0  0  0  0  0  0
   -4.9798   -4.6361    9.4701 C   0  0  0  0  0  0  0  0  0  0  0  0
   -6.0466   -4.0142   10.0044 N   0  0  1  0  0  0  0  0  0  0  0  0
  1  2  1  0  0  0  0
  3  1  1  6  0  0  0
  3  4  1  0  0  0  0
  3  5  1  0  0  0  0
  5  6  1  1  0  0  0
  5  7  1  0  0  0  0
  7  8  1  0  0  0  0
  8  4  1  1  0  0  0
  8 19  1  0  0  0  0
  9 15  1  0  0  0  0
  9 10  1  0  0  0  0
 10 11  1  6  0  0  0
 10 12  1  0  0  0  0
 13 12  1  6  0  0  0
 13 14  1  0  0  0  0
 13 19  1  0  0  0  0
 14 15  1  1  0  0  0
 14 17  1  0  0  0  0
 15 16  2  0  0  0  0
 17 18  1  0  0  0  0
 19 18  1  1  0  0  0
M  END
>  <CHROM.1>
63.50354213,-97.79239269,-5.98967769,-3.86692882,10.51375546,-1.97596714
0.63319507,-0.09173073

>  <Name>
ligand

>  <RI>
0

>  <Rbt.Current_Directory>
/home/itssahil/PROJECTS/Mol_Feturizer/New_Systems/rnas/3SKI

>  <Rbt.Executable>
rbdock ($Id: //depot/dev/client3/rdock/2013.1/src/exe/rbdock.cxx#4 $)

>  <Rbt.Library>
libRbt.so (2013.1, Build901 2013/11/27)

>  <Rbt.Parameter_File>
/export/apps/rDock/src/rDock_2013.1_src/data/scripts/dock_solv.prm

>  <Rbt.Receptor>
prm/pocket_docking_3.prm

>  <SCORE>
-17.6042

>  <SCORE.INTER>
-14.7922

>  <SCORE.INTER.CONST>
1

>  <SCORE.INTER.POLAR>
0

>  <SCORE.INTER.ROT>
2

>  <SCORE.INTER.SOLV>
18.5916

>  <SCORE.INTER.VDW>
-20.992

>  <SCORE.INTER.norm>
-0.778538

>  <SCORE.INTRA>
-2.81196

>  <SCORE.INTRA.DIHEDRAL>
-5.03712

>  <SCORE.INTRA.DIHEDRAL.0>
6.26853

>  <SCORE.INTRA.POLAR>
0

>  <SCORE.INTRA.POLAR.0>
0

>  <SCORE.INTRA.REPUL>
0

>  <SCORE.INTRA.REPUL.0>
0

>  <SCORE.INTRA.SOLV>
-0.244959

>  <SCORE.INTRA.SOLV.lig_0>
-38.4926

>  <SCORE.INTRA.VDW>
-0.170921

>  <SCORE.INTRA.VDW.0>
-0.59057

>  <SCORE.INTRA.norm>
-0.147998

>  <SCORE.RESTR>
0

>  <SCORE.RESTR.CAVITY>
0

>  <SCORE.RESTR.norm>
0

>  <SCORE.SYSTEM>
0

>  <SCORE.SYSTEM.CONST>
0

>  <SCORE.SYSTEM.DIHEDRAL>
0

>  <SCORE.SYSTEM.SOLV>
0

>  <SCORE.SYSTEM.norm>
0

>  <SCORE.heavy>
19

>  <SCORE.norm>
-0.926536

>  <RMSD>
0.630

$$$$
ligand
 OpenBabel11021811483D
libRbt.so/2013.1/901 2013/11/27
 19 21  0  0  0  0  0  0  0  0999 V2000
   -6.0662   -7.9172   12.0025 C   0  0  0  0  0  0  0  0  0  0  0  0
   -5.9083   -7.5876   13.3905 O   0  0  0  0  0  0  0  0  0  0  0  0
   -7.2679   -7.1762   11.4119 C   0  0  1  0  0  0  0  0  0  0  0  0
   -7.0872   -5.7507   11.5127 O   0  0  0  0  0  0  0  0  0  0  0  0
   -7.4406   -7.5025    9.9389 C   0  0  1  0  0  0  0  0  0  0  0  0
   -8.5274   -8.4140    9.7350 O   0  0  0  0  0  0  0  0  0  0  0  0
   -7.7211   -6.1820    9.2550 C   0  0  0  0  0  0  0  0  0  0  0  0
   -7.3306   -5.1036   10.2551 C   0  0  2  0  0  0  0  0  0  0  0  0
   -4.9965   -0.4305    9.7009 N   0  0  0  0  0  0  0  0  0  0  0  0
   -6.2350   -0.7342   10.1743 C   0  0  1  0  0  0  0  0  0  0  0  0
   -7.0480    0.2690   10.5826 N   0  0  0  0  0  0  0  0  0  0  0  0
   -6.6766   -2.0196   10.2427 N   0  0  0  0  0  0  0  0  0  0  0  0
   -5.9010   -3.0639    9.8435 C   0  0  2  0  0  0  0  0  0  0  0  0
   -4.6321   -2.8152    9.3524 C   0  0  1  0  0  0  0  0  0  0  0  0
   -4.1616   -1.4082    9.2848 C   0  0  0  0  0  0  0  0  0  0  0  0
   -3.0196   -1.1328    8.8535 O   0  0  0  0  0  0  0  0  0  0  0  0
   -4.0754   -3.9974    9.0364 N   0  0  0  0  0  0  0  0  0  0  0  0
   -4.9822   -4.9618    9.3191 C   0  0  0  0  0  0  0  0  0  0  0  0
   -6.0966   -4.3905    9.8110 N   0  0  1  0  0  0  0  0  0  0  0  0
  1  2  1  0  0  0  0
  3  1  1  6  0  0  0
  3  4  1  0  0  0  0
  3  5  1  0  0  0  0
  5  6  1  1  0  0  0
  5  7  1  0  0  0  0
  7  8  1  0  0  0  0
  8  4  1  1  0  0  0
  8 19  1  0  0  0  0
  9 15  1  0  0  0  0
  9 10  1  0  0  0  0
 10 11  1  6  0  0  0
 10 12  1  0  0  0  0
 13 12  1  6  0  0  0
 13 14  1  0  0  0  0
 13 19  1  0  0  0  0
 14 15  1  1  0  0  0
 14 17  1  0  0  0  0
 15 16  2  0  0  0  0
 17 18  1  0  0  0  0
 19 18  1  1  0  0  0
M  END
>  <CHROM.1>
60.48194043,-105.43779579,-6.08318987,-4.30878051,10.23470724,-1.89751062
0.22639055,-0.14891535

>  <Name>
ligand

>  <RI>
0

>  <Rbt.Current_Directory>
/home/itssahil/PROJECTS/Mol_Feturizer/New_Systems/rnas/3SKI

>  <Rbt.Executable>
rbdock ($Id: //depot/dev/client3/rdock/2013.1/src/exe/rbdock.cxx#4 $)

>  <Rbt.Library>
libRbt.so (2013.1, Build901 2013/11/27)

>  <Rbt.Parameter_File>
/export/apps/rDock/src/rDock_2013.1_src/data/scripts/dock_solv.prm

>  <Rbt.Receptor>
prm/pocket_docking_2.prm

>  <SCORE>
-17.0462

>  <SCORE.INTER>
-14.1148

>  <SCORE.INTER.CONST>
1

>  <SCORE.INTER.POLAR>
0

>  <SCORE.INTER.ROT>
2

>  <SCORE.INTER.SOLV>
17.1992

>  <SCORE.INTER.VDW>
-20.0762

>  <SCORE.INTER.norm>
-0.742882

>  <SCORE.INTRA>
-2.9314

>  <SCORE.INTRA.DIHEDRAL>
-5.07727

>  <SCORE.INTRA.DIHEDRAL.0>
6.26853

>  <SCORE.INTRA.POLAR>
0

>  <SCORE.INTRA.POLAR.0>
0

>  <SCORE.INTRA.REPUL>
0

>  <SCORE.INTRA.REPUL.0>
0

>  <SCORE.INTRA.SOLV>
-0.235831

>  <SCORE.INTRA.SOLV.lig_0>
-38.4926

>  <SCORE.INTRA.VDW>
-0.274851

>  <SCORE.INTRA.VDW.0>
-0.59057

>  <SCORE.INTRA.norm>
-0.154284

>  <SCORE.RESTR>
0

>  <SCORE.RESTR.CAVITY>
0

>  <SCORE.RESTR.norm>
0

>  <SCORE.SYSTEM>
0

>  <SCORE.SYSTEM.CONST>
0

>  <SCORE.SYSTEM.DIHEDRAL>
0

>  <SCORE.SYSTEM.SOLV>
0

>  <SCORE.SYSTEM.norm>
0

>  <SCORE.heavy>
19

>  <SCORE.norm>
-0.897166

>  <RMSD>
0.632

$$$$
ligand
 OpenBabel11021811483D
libRbt.so/2013.1/901 2013/11/27
 19 21  0  0  0  0  0  0  0  0999 V2000
   -6.6766   -7.0768   12.6278 C   0  0  0  0  0  0  0  0  0  0  0  0
   -6.8922   -8.4654   12.9200 O   0  0  0  0  0  0  0  0  0  0  0  0
   -7.7121   -6.5775   11.6176 C   0  0  1  0  0  0  0  0  0  0  0  0
   -7.5625   -5.1627   11.3918 O   0  0  0  0  0  0  0  0  0  0  0  0
   -7.5410   -7.2657   10.2748 C   0  0  1  0  0  0  0  0  0  0  0  0
   -8.5499   -8.2631   10.0726 O   0  0  0  0  0  0  0  0  0  0  0  0
   -7.6597   -6.1732    9.2344 C   0  0  0  0  0  0  0  0  0  0  0  0
   -7.5118   -4.8605    9.9898 C   0  0  2  0  0  0  0  0  0  0  0  0
   -4.9014   -0.3088    9.7434 N   0  0  0  0  0  0  0  0  0  0  0  0
   -6.1886   -0.5555   10.1076 C   0  0  1  0  0  0  0  0  0  0  0  0
   -6.9792    0.4811   10.4743 N   0  0  0  0  0  0  0  0  0  0  0  0
   -6.7002   -1.8165   10.1079 N   0  0  0  0  0  0  0  0  0  0  0  0
   -5.9497   -2.8923    9.7463 C   0  0  2  0  0  0  0  0  0  0  0  0
   -4.6337   -2.7018    9.3655 C   0  0  1  0  0  0  0  0  0  0  0  0
   -4.0870   -1.3210    9.3715 C   0  0  0  0  0  0  0  0  0  0  0  0
   -2.9008   -1.0984    9.0407 O   0  0  0  0  0  0  0  0  0  0  0  0
   -4.1149   -3.9053    9.0657 N   0  0  0  0  0  0  0  0  0  0  0  0
   -5.0905   -4.8254    9.2500 C   0  0  0  0  0  0  0  0  0  0  0  0
   -6.2104   -4.2055    9.6647 N   0  0  1  0  0  0  0  0  0  0  0  0
  1  2  1  0  0  0  0
  3  1  1  1  0  0  0
  3  4  1  0  0  0  0
  3  5  1  0  0  0  0
  5  6  1  6  0  0  0
  5  7  1  0  0  0  0
  7  8  1  0  0  0  0
  8  4  1  1  0  0  0
  8 19  1  0  0  0  0
  9 15  1  0  0  0  0
  9 10  1  0  0  0  0
 10 11  1  6  0  0  0
 10 12  1  0  0  0  0
 13 12  1  6  0  0  0
 13 14  1  0  0  0  0
 13 19  1  0  0  0  0
 14 15  1  1  0  0  0
 14 17  1  0  0  0  0
 15 16  2  0  0  0  0
 17 18  1  0  0  0  0
 19 18  1  1  0  0  0
M  END
>  <CHROM.1>
175.88216813,-86.75687660,-6.23476239,-4.14057076,10.25371769,-1.98384204
0.42410006,-0.07286647

>  <Name>
ligand

>  <RI>
0

>  <Rbt.Current_Directory>
/home/itssahil/PROJECTS/Mol_Feturizer/New_Systems/rnas/3SKI

>  <Rbt.Executable>
rbdock ($Id: //depot/dev/client3/rdock/2013.1/src/exe/rbdock.cxx#4 $)

>  <Rbt.Library>
libRbt.so (2013.1, Build901 2013/11/27)

>  <Rbt.Parameter_File>
/export/apps/rDock/src/rDock_2013.1_src/data/scripts/dock_solv.prm

>  <Rbt.Receptor>
prm/pocket_docking_2.prm

>  <SCORE>
-17.2789

>  <SCORE.INTER>
-14.8171

>  <SCORE.INTER.CONST>
1

>  <SCORE.INTER.POLAR>
0

>  <SCORE.INTER.ROT>
2

>  <SCORE.INTER.SOLV>
17.9657

>  <SCORE.INTER.VDW>
-20.7999

>  <SCORE.INTER.norm>
-0.779845

>  <SCORE.INTRA>
-2.46183

>  <SCORE.INTRA.DIHEDRAL>
-5.02445

>  <SCORE.INTRA.DIHEDRAL.0>
6.26853

>  <SCORE.INTRA.POLAR>
0

>  <SCORE.INTRA.POLAR.0>
0

>  <SCORE.INTRA.REPUL>
0

>  <SCORE.INTRA.REPUL.0>
0

>  <SCORE.INTRA.SOLV>
-0.0194383

>  <SCORE.INTRA.SOLV.lig_0>
-38.4926

>  <SCORE.INTRA.VDW>
0.0601163

>  <SCORE.INTRA.VDW.0>
-0.59057

>  <SCORE.INTRA.norm>
-0.12957

>  <SCORE.RESTR>
0

>  <SCORE.RESTR.CAVITY>
0

>  <SCORE.RESTR.norm>
0

>  <SCORE.SYSTEM>
0

>  <SCORE.SYSTEM.CONST>
0

>  <SCORE.SYSTEM.DIHEDRAL>
0

>  <SCORE.SYSTEM.SOLV>
0

>  <SCORE.SYSTEM.norm>
0

>  <SCORE.heavy>
19

>  <SCORE.norm>
-0.909415

>  <RMSD>
0.635

$$$$
ligand
 OpenBabel11021811483D
libRbt.so/2013.1/901 2013/11/27
 19 21  0  0  0  0  0  0  0  0999 V2000
   -6.1237   -7.3245   12.6295 C   0  0  0  0  0  0  0  0  0  0  0  0
   -6.1261   -6.6446   13.8936 O   0  0  0  0  0  0  0  0  0  0  0  0
   -7.2815   -6.8332   11.7577 C   0  0  1  0  0  0  0  0  0  0  0  0
   -7.2123   -5.4059   11.5758 O   0  0  0  0  0  0  0  0  0  0  0  0
   -7.2311   -7.4634   10.3770 C   0  0  1  0  0  0  0  0  0  0  0  0
   -8.2167   -8.4950   10.2431 O   0  0  0  0  0  0  0  0  0  0  0  0
   -7.5046   -6.3394    9.4014 C   0  0  0  0  0  0  0  0  0  0  0  0
   -7.3262   -5.0503   10.1901 C   0  0  2  0  0  0  0  0  0  0  0  0
   -5.0160   -0.3620    9.6657 N   0  0  0  0  0  0  0  0  0  0  0  0
   -6.2549   -0.6746   10.1321 C   0  0  1  0  0  0  0  0  0  0  0  0
   -7.0754    0.3224   10.5406 N   0  0  0  0  0  0  0  0  0  0  0  0
   -6.6896   -1.9627   10.1933 N   0  0  0  0  0  0  0  0  0  0  0  0
   -5.9063   -3.0010    9.7934 C   0  0  2  0  0  0  0  0  0  0  0  0
   -4.6365   -2.7432    9.3093 C   0  0  1  0  0  0  0  0  0  0  0  0
   -4.1736   -1.3333    9.2495 C   0  0  0  0  0  0  0  0  0  0  0  0
   -3.0312   -1.0498    8.8247 O   0  0  0  0  0  0  0  0  0  0  0  0
   -4.0717   -3.9209    8.9911 N   0  0  0  0  0  0  0  0  0  0  0  0
   -4.9743   -4.8915    9.2657 C   0  0  0  0  0  0  0  0  0  0  0  0
   -6.0942   -4.3285    9.7547 N   0  0  1  0  0  0  0  0  0  0  0  0
  1  2  1  0  0  0  0
  3  1  1  1  0  0  0
  3  4  1  0  0  0  0
  3  5  1  0  0  0  0
  5  6  1  1  0  0  0
  5  7  1  0  0  0  0
  7  8  1  0  0  0  0
  8  4  1  1  0  0  0
  8 19  1  0  0  0  0
  9 15  1  0  0  0  0
  9 10  1  0  0  0  0
 10 11  1  6  0  0  0
 10 12  1  0  0  0  0
 13 12  1  6  0  0  0
 13 14  1  0  0  0  0
 13 19  1  0  0  0  0
 14 15  1  1  0  0  0
 14 17  1  0  0  0  0
 15 16  2  0  0  0  0
 17 18  1  0  0  0  0
 19 18  1  1  0  0  0
M  END
>  <CHROM.1>
56.70921647,-90.70580982,-6.07177299,-4.15206713,10.35356883,2.05351496,-0.81365557
-3.06942890

>  <Name>
ligand

>  <RI>
0

>  <Rbt.Current_Directory>
/home/itssahil/PROJECTS/Mol_Feturizer/New_Systems/rnas/3SKI

>  <Rbt.Executable>
rbdock ($Id: //depot/dev/client3/rdock/2013.1/src/exe/rbdock.cxx#4 $)

>  <Rbt.Library>
libRbt.so (2013.1, Build901 2013/11/27)

>  <Rbt.Parameter_File>
/export/apps/rDock/src/rDock_2013.1_src/data/scripts/dock_solv.prm

>  <Rbt.Receptor>
prm/blind_docking_20.prm

>  <SCORE>
-17.36

>  <SCORE.INTER>
-14.7182

>  <SCORE.INTER.CONST>
1

>  <SCORE.INTER.POLAR>
0

>  <SCORE.INTER.ROT>
2

>  <SCORE.INTER.SOLV>
18.1853

>  <SCORE.INTER.VDW>
-20.8072

>  <SCORE.INTER.norm>
-0.774641

>  <SCORE.INTRA>
-2.64185

>  <SCORE.INTRA.DIHEDRAL>
-5.04636

>  <SCORE.INTRA.DIHEDRAL.0>
6.26853

>  <SCORE.INTRA.POLAR>
0

>  <SCORE.INTRA.POLAR.0>
0

>  <SCORE.INTRA.REPUL>
0

>  <SCORE.INTRA.REPUL.0>
0

>  <SCORE.INTRA.SOLV>
-0.214967

>  <SCORE.INTRA.SOLV.lig_0>
-38.4926

>  <SCORE.INTRA.VDW>
-0.0111839

>  <SCORE.INTRA.VDW.0>
-0.59057

>  <SCORE.INTRA.norm>
-0.139045

>  <SCORE.RESTR>
0

>  <SCORE.RESTR.CAVITY>
0

>  <SCORE.RESTR.norm>
0

>  <SCORE.SYSTEM>
0

>  <SCORE.SYSTEM.CONST>
0

>  <SCORE.SYSTEM.DIHEDRAL>
0

>  <SCORE.SYSTEM.SOLV>
0

>  <SCORE.SYSTEM.norm>
0

>  <SCORE.heavy>
19

>  <SCORE.norm>
-0.913686

>  <RMSD>
0.636

$$$$
ligand
 OpenBabel11021811483D
libRbt.so/2013.1/901 2013/11/27
 19 21  0  0  0  0  0  0  0  0999 V2000
   -5.9574   -7.0218   12.8169 C   0  0  0  0  0  0  0  0  0  0  0  0
   -5.8258   -6.3814   14.0947 O   0  0  0  0  0  0  0  0  0  0  0  0
   -7.1692   -6.4671   12.0648 C   0  0  1  0  0  0  0  0  0  0  0  0
   -7.0475   -5.0435   11.8820 O   0  0  0  0  0  0  0  0  0  0  0  0
   -7.2855   -7.0875   10.6837 C   0  0  1  0  0  0  0  0  0  0  0  0
   -8.3293   -8.0685   10.6436 O   0  0  0  0  0  0  0  0  0  0  0  0
   -7.5972   -5.9433    9.7436 C   0  0  0  0  0  0  0  0  0  0  0  0
   -7.2788   -4.6712   10.5154 C   0  0  2  0  0  0  0  0  0  0  0  0
   -4.8128   -0.0948    9.7615 N   0  0  0  0  0  0  0  0  0  0  0  0
   -6.0154   -0.3500   10.3435 C   0  0  1  0  0  0  0  0  0  0  0  0
   -6.7465    0.6835   10.8245 N   0  0  0  0  0  0  0  0  0  0  0  0
   -6.5018   -1.6166   10.4493 N   0  0  0  0  0  0  0  0  0  0  0  0
   -5.8088   -2.6897    9.9805 C   0  0  2  0  0  0  0  0  0  0  0  0
   -4.5797   -2.4906    9.3781 C   0  0  1  0  0  0  0  0  0  0  0  0
   -4.0595   -1.1037    9.2707 C   0  0  0  0  0  0  0  0  0  0  0  0
   -2.9502   -0.8732    8.7393 O   0  0  0  0  0  0  0  0  0  0  0  0
   -4.1028   -3.6929    9.0117 N   0  0  0  0  0  0  0  0  0  0  0  0
   -5.0197   -4.6208    9.3730 C   0  0  0  0  0  0  0  0  0  0  0  0
   -6.0611   -4.0069    9.9637 N   0  0  1  0  0  0  0  0  0  0  0  0
  1  2  1  0  0  0  0
  3  1  1  6  0  0  0
  3  4  1  0  0  0  0
  3  5  1  0  0  0  0
  5  6  1  1  0  0  0
  5  7  1  0  0  0  0
  7  8  1  0  0  0  0
  8  4  1  1  0  0  0
  8 19  1  0  0  0  0
  9 15  1  0  0  0  0
  9 10  1  0  0  0  0
 10 11  1  6  0  0  0
 10 12  1  0  0  0  0
 13 12  1  6  0  0  0
 13 14  1  0  0  0  0
 13 19  1  0  0  0  0
 14 15  1  1  0  0  0
 14 17  1  0  0  0  0
 15 16  2  0  0  0  0
 17 18  1  0  0  0  0
 19 18  1  1  0  0  0
M  END
>  <CHROM.1>
58.43435168,-91.17797791,-5.97604130,-3.83779536,10.55300372,2.13243411,-0.89482484
-3.01250959

>  <Name>
ligand

>  <RI>
0

>  <Rbt.Current_Directory>
/home/itssahil/PROJECTS/Mol_Feturizer/New_Systems/rnas/3SKI

>  <Rbt.Executable>
rbdock ($Id: //depot/dev/client3/rdock/2013.1/src/exe/rbdock.cxx#4 $)

>  <Rbt.Library>
libRbt.so (2013.1, Build901 2013/11/27)

>  <Rbt.Parameter_File>
/export/apps/rDock/src/rDock_2013.1_src/data/scripts/dock_solv.prm

>  <Rbt.Receptor>
prm/pocket_docking_3.prm

>  <SCORE>
-17.4889

>  <SCORE.INTER>
-14.8162

>  <SCORE.INTER.CONST>
1

>  <SCORE.INTER.POLAR>
0

>  <SCORE.INTER.ROT>
2

>  <SCORE.INTER.SOLV>
18.7956

>  <SCORE.INTER.VDW>
-21.076

>  <SCORE.INTER.norm>
-0.779802

>  <SCORE.INTRA>
-2.67262

>  <SCORE.INTRA.DIHEDRAL>
-5.07591

>  <SCORE.INTRA.DIHEDRAL.0>
6.26853

>  <SCORE.INTRA.POLAR>
0

>  <SCORE.INTRA.POLAR.0>
0

>  <SCORE.INTRA.REPUL>
0

>  <SCORE.INTRA.REPUL.0>
0

>  <SCORE.INTRA.SOLV>
-0.221885

>  <SCORE.INTRA.SOLV.lig_0>
-38.4926

>  <SCORE.INTRA.VDW>
-0.0237225

>  <SCORE.INTRA.VDW.0>
-0.59057

>  <SCORE.INTRA.norm>
-0.140664

>  <SCORE.RESTR>
0

>  <SCORE.RESTR.CAVITY>
0

>  <SCORE.RESTR.norm>
0

>  <SCORE.SYSTEM>
0

>  <SCORE.SYSTEM.CONST>
0

>  <SCORE.SYSTEM.DIHEDRAL>
0

>  <SCORE.SYSTEM.SOLV>
0

>  <SCORE.SYSTEM.norm>
0

>  <SCORE.heavy>
19

>  <SCORE.norm>
-0.920466

>  <RMSD>
0.647

$$$$
ligand
 OpenBabel11021811483D
libRbt.so/2013.1/901 2013/11/27
 19 21  0  0  0  0  0  0  0  0999 V2000
   -6.6658   -7.2176   12.6620 C   0  0  0  0  0  0  0  0  0  0  0  0
   -5.3257   -6.8734   12.2802 O   0  0  0  0  0  0  0  0  0  0  0  0
   -7.6505   -6.8357   11.5546 C   0  0  1  0  0  0  0  0  0  0  0  0
   -7.5685   -5.4274   11.2633 O   0  0  0  0  0  0  0  0  0  0  0  0
   -7.3390   -7.5780   10.2670 C   0  0  1  0  0  0  0  0  0  0  0  0
   -8.2691   -8.6459   10.0477 O   0  0  0  0  0  0  0  0  0  0  0  0
   -7.4440   -6.5486    9.1628 C   0  0  0  0  0  0  0  0  0  0  0  0
   -7.4310   -5.1931    9.8541 C   0  0  2  0  0  0  0  0  0  0  0  0
   -5.0019   -0.5355    9.8549 N   0  0  0  0  0  0  0  0  0  0  0  0
   -6.2861   -0.8476   10.1769 C   0  0  1  0  0  0  0  0  0  0  0  0
   -7.1263    0.1411   10.5650 N   0  0  0  0  0  0  0  0  0  0  0  0
   -6.7462   -2.1268   10.1140 N   0  0  0  0  0  0  0  0  0  0  0  0
   -5.9445   -3.1564    9.7284 C   0  0  2  0  0  0  0  0  0  0  0  0
   -4.6288   -2.8987    9.3883 C   0  0  1  0  0  0  0  0  0  0  0  0
   -4.1388   -1.4987    9.4631 C   0  0  0  0  0  0  0  0  0  0  0  0
   -2.9552   -1.2161    9.1711 O   0  0  0  0  0  0  0  0  0  0  0  0
   -4.0550   -4.0674    9.0536 N   0  0  0  0  0  0  0  0  0  0  0  0
   -4.9965   -5.0321    9.1767 C   0  0  0  0  0  0  0  0  0  0  0  0
   -6.1499   -4.4744    9.5879 N   0  0  1  0  0  0  0  0  0  0  0  0
  1  2  1  0  0  0  0
  3  1  1  1  0  0  0
  3  4  1  0  0  0  0
  3  5  1  0  0  0  0
  5  6  1  6  0  0  0
  5  7  1  0  0  0  0
  7  8  1  0  0  0  0
  8  4  1  1  0  0  0
  8 19  1  0  0  0  0
  9 15  1  0  0  0  0
  9 10  1  0  0  0  0
 10 11  1  6  0  0  0
 10 12  1  0  0  0  0
 13 12  1  6  0  0  0
 13 14  1  0  0  0  0
 13 19  1  0  0  0  0
 14 15  1  1  0  0  0
 14 17  1  0  0  0  0
 15 16  2  0  0  0  0
 17 18  1  0  0  0  0
 19 18  1  1  0  0  0
M  END
>  <CHROM.1>
-57.99997870,-80.61104328,-6.10733560,-4.28509689,10.21148751,1.94468946
-0.32796718,3.07428165

>  <Name>
ligand

>  <RI>
0

>  <Rbt.Current_Directory>
/home/itssahil/PROJECTS/Mol_Feturizer/New_Systems/rnas/3SKI

>  <Rbt.Executable>
rbdock ($Id: //depot/dev/client3/rdock/2013.1/src/exe/rbdock.cxx#4 $)

>  <Rbt.Library>
libRbt.so (2013.1, Build901 2013/11/27)

>  <Rbt.Parameter_File>
/export/apps/rDock/src/rDock_2013.1_src/data/scripts/dock_solv.prm

>  <Rbt.Receptor>
prm/pocket_docking_2.prm

>  <SCORE>
-17.3287

>  <SCORE.INTER>
-14.8356

>  <SCORE.INTER.CONST>
1

>  <SCORE.INTER.POLAR>
0

>  <SCORE.INTER.ROT>
2

>  <SCORE.INTER.SOLV>
17.5567

>  <SCORE.INTER.VDW>
-20.676

>  <SCORE.INTER.norm>
-0.780823

>  <SCORE.INTRA>
-2.49309

>  <SCORE.INTRA.DIHEDRAL>
-5.06703

>  <SCORE.INTRA.DIHEDRAL.0>
6.26853

>  <SCORE.INTRA.POLAR>
0

>  <SCORE.INTRA.POLAR.0>
0

>  <SCORE.INTRA.REPUL>
0

>  <SCORE.INTRA.REPUL.0>
0

>  <SCORE.INTRA.SOLV>
0.245127

>  <SCORE.INTRA.SOLV.lig_0>
-38.4926

>  <SCORE.INTRA.VDW>
-0.0821339

>  <SCORE.INTRA.VDW.0>
-0.59057

>  <SCORE.INTRA.norm>
-0.131215

>  <SCORE.RESTR>
0

>  <SCORE.RESTR.CAVITY>
0

>  <SCORE.RESTR.norm>
0

>  <SCORE.SYSTEM>
0

>  <SCORE.SYSTEM.CONST>
0

>  <SCORE.SYSTEM.DIHEDRAL>
0

>  <SCORE.SYSTEM.SOLV>
0

>  <SCORE.SYSTEM.norm>
0

>  <SCORE.heavy>
19

>  <SCORE.norm>
-0.912038

>  <RMSD>
0.654

$$$$
ligand
 OpenBabel11021811483D
libRbt.so/2013.1/901 2013/11/27
 19 21  0  0  0  0  0  0  0  0999 V2000
   -5.9277   -7.2924   12.7335 C   0  0  0  0  0  0  0  0  0  0  0  0
   -5.7296   -6.7824   14.0605 O   0  0  0  0  0  0  0  0  0  0  0  0
   -7.1590   -6.6478   12.0929 C   0  0  1  0  0  0  0  0  0  0  0  0
   -6.9885   -5.2217   11.9830 O   0  0  0  0  0  0  0  0  0  0  0  0
   -7.3866   -7.1809   10.6894 C   0  0  1  0  0  0  0  0  0  0  0  0
   -8.4717   -8.1166   10.6612 O   0  0  0  0  0  0  0  0  0  0  0  0
   -7.7068   -5.9723    9.8370 C   0  0  0  0  0  0  0  0  0  0  0  0
   -7.2877   -4.7610   10.6571 C   0  0  2  0  0  0  0  0  0  0  0  0
   -4.8763   -0.2036    9.6531 N   0  0  0  0  0  0  0  0  0  0  0  0
   -6.0743   -0.4411   10.2520 C   0  0  1  0  0  0  0  0  0  0  0  0
   -6.8157    0.6082   10.6802 N   0  0  0  0  0  0  0  0  0  0  0  0
   -6.5458   -1.7057   10.4265 N   0  0  0  0  0  0  0  0  0  0  0  0
   -5.8420   -2.7943   10.0129 C   0  0  2  0  0  0  0  0  0  0  0  0
   -4.6170   -2.6136    9.3964 C   0  0  1  0  0  0  0  0  0  0  0  0
   -4.1130   -1.2286    9.2139 C   0  0  0  0  0  0  0  0  0  0  0  0
   -3.0079   -1.0141    8.6671 O   0  0  0  0  0  0  0  0  0  0  0  0
   -4.1274   -3.8282    9.0926 N   0  0  0  0  0  0  0  0  0  0  0  0
   -5.0326   -4.7459    9.5058 C   0  0  0  0  0  0  0  0  0  0  0  0
   -6.0793   -4.1133   10.0667 N   0  0  1  0  0  0  0  0  0  0  0  0
  1  2  1  0  0  0  0
  3  1  1  6  0  0  0
  3  4  1  0  0  0  0
  3  5  1  0  0  0  0
  5  6  1  1  0  0  0
  5  7  1  0  0  0  0
  7  8  1  0  0  0  0
  8  4  1  1  0  0  0
  8 19  1  0  0  0  0
  9 15  1  0  0  0  0
  9 10  1  0  0  0  0
 10 11  1  6  0  0  0
 10 12  1  0  0  0  0
 13 12  1  6  0  0  0
 13 14  1  0  0  0  0
 13 19  1  0  0  0  0
 14 15  1  1  0  0  0
 14 17  1  0  0  0  0
 15 16  2  0  0  0  0
 17 18  1  0  0  0  0
 19 18  1  1  0  0  0
M  END
>  <CHROM.1>
61.32072305,-98.97555830,-6.00883320,-3.97287275,10.55973588,-1.96552187
0.59220040,-0.11281677

>  <Name>
ligand

>  <RI>
0

>  <Rbt.Current_Directory>
/home/itssahil/PROJECTS/Mol_Feturizer/New_Systems/rnas/3SKI

>  <Rbt.Executable>
rbdock ($Id: //depot/dev/client3/rdock/2013.1/src/exe/rbdock.cxx#4 $)

>  <Rbt.Library>
libRbt.so (2013.1, Build901 2013/11/27)

>  <Rbt.Parameter_File>
/export/apps/rDock/src/rDock_2013.1_src/data/scripts/dock_solv.prm

>  <Rbt.Receptor>
prm/pocket_docking_2.prm

>  <SCORE>
-17.3546

>  <SCORE.INTER>
-14.5334

>  <SCORE.INTER.CONST>
1

>  <SCORE.INTER.POLAR>
0

>  <SCORE.INTER.ROT>
2

>  <SCORE.INTER.SOLV>
18.3885

>  <SCORE.INTER.VDW>
-20.7518

>  <SCORE.INTER.norm>
-0.764916

>  <SCORE.INTRA>
-2.82545

>  <SCORE.INTRA.DIHEDRAL>
-5.07534

>  <SCORE.INTRA.DIHEDRAL.0>
6.26853

>  <SCORE.INTRA.POLAR>
0

>  <SCORE.INTRA.POLAR.0>
0

>  <SCORE.INTRA.REPUL>
0

>  <SCORE.INTRA.REPUL.0>
0

>  <SCORE.INTRA.SOLV>
-0.237521

>  <SCORE.INTRA.SOLV.lig_0>
-38.4926

>  <SCORE.INTRA.VDW>
-0.169026

>  <SCORE.INTRA.VDW.0>
-0.59057

>  <SCORE.INTRA.norm>
-0.148708

>  <SCORE.RESTR>
0.00427916

>  <SCORE.RESTR.CAVITY>
0.00427916

>  <SCORE.RESTR.norm>
0.000225219

>  <SCORE.SYSTEM>
0

>  <SCORE.SYSTEM.CONST>
0

>  <SCORE.SYSTEM.DIHEDRAL>
0

>  <SCORE.SYSTEM.SOLV>
0

>  <SCORE.SYSTEM.norm>
0

>  <SCORE.heavy>
19

>  <SCORE.norm>
-0.913399

>  <RMSD>
0.657

$$$$
ligand
 OpenBabel11021811483D
libRbt.so/2013.1/901 2013/11/27
 19 21  0  0  0  0  0  0  0  0999 V2000
   -5.8010   -7.3403   12.5849 C   0  0  0  0  0  0  0  0  0  0  0  0
   -5.5471   -6.9183   13.9332 O   0  0  0  0  0  0  0  0  0  0  0  0
   -7.0519   -6.6499   12.0367 C   0  0  1  0  0  0  0  0  0  0  0  0
   -6.8644   -5.2226   11.9843 O   0  0  0  0  0  0  0  0  0  0  0  0
   -7.3564   -7.1136   10.6232 C   0  0  1  0  0  0  0  0  0  0  0  0
   -8.4561   -8.0322   10.6058 O   0  0  0  0  0  0  0  0  0  0  0  0
   -7.6989   -5.8622    9.8443 C   0  0  0  0  0  0  0  0  0  0  0  0
   -7.2209   -4.6964   10.6976 C   0  0  2  0  0  0  0  0  0  0  0  0
   -4.8629   -0.1192    9.6575 N   0  0  0  0  0  0  0  0  0  0  0  0
   -6.0426   -0.3672   10.2877 C   0  0  1  0  0  0  0  0  0  0  0  0
   -6.7776    0.6751   10.7430 N   0  0  0  0  0  0  0  0  0  0  0  0
   -6.5023   -1.6356   10.4667 N   0  0  0  0  0  0  0  0  0  0  0  0
   -5.8043   -2.7175   10.0267 C   0  0  2  0  0  0  0  0  0  0  0  0
   -4.5978   -2.5260    9.3778 C   0  0  1  0  0  0  0  0  0  0  0  0
   -4.1065   -1.1370    9.1906 C   0  0  0  0  0  0  0  0  0  0  0  0
   -3.0182   -0.9128    8.6150 O   0  0  0  0  0  0  0  0  0  0  0  0
   -4.1102   -3.7359    9.0526 N   0  0  0  0  0  0  0  0  0  0  0  0
   -4.9986   -4.6613    9.4846 C   0  0  0  0  0  0  0  0  0  0  0  0
   -6.0328   -4.0381   10.0783 N   0  0  1  0  0  0  0  0  0  0  0  0
  1  2  1  0  0  0  0
  3  1  1  6  0  0  0
  3  4  1  0  0  0  0
  3  5  1  0  0  0  0
  5  6  1  1  0  0  0
  5  7  1  0  0  0  0
  7  8  1  0  0  0  0
  8  4  1  1  0  0  0
  8 19  1  0  0  0  0
  9 15  1  0  0  0  0
  9 10  1  0  0  0  0
 10 11  1  6  0  0  0
 10 12  1  0  0  0  0
 13 12  1  6  0  0  0
 13 14  1  0  0  0  0
 13 19  1  0  0  0  0
 14 15  1  1  0  0  0
 14 17  1  0  0  0  0
 15 16  2  0  0  0  0
 17 18  1  0  0  0  0
 19 18  1  1  0  0  0
M  END
>  <CHROM.1>
62.60706497,-101.82720876,-5.95788169,-3.92013585,10.53737782,-1.92385751
0.48821440,-0.15747845

>  <Name>
ligand

>  <RI>
0

>  <Rbt.Current_Directory>
/home/itssahil/PROJECTS/Mol_Feturizer/New_Systems/rnas/3SKI

>  <Rbt.Executable>
rbdock ($Id: //depot/dev/client3/rdock/2013.1/src/exe/rbdock.cxx#4 $)

>  <Rbt.Library>
libRbt.so (2013.1, Build901 2013/11/27)

>  <Rbt.Parameter_File>
/export/apps/rDock/src/rDock_2013.1_src/data/scripts/dock_solv.prm

>  <Rbt.Receptor>
prm/pocket_docking_3.prm

>  <SCORE>
-17.3953

>  <SCORE.INTER>
-14.5065

>  <SCORE.INTER.CONST>
1

>  <SCORE.INTER.POLAR>
0

>  <SCORE.INTER.ROT>
2

>  <SCORE.INTER.SOLV>
18.4179

>  <SCORE.INTER.VDW>
-20.7436

>  <SCORE.INTER.norm>
-0.763502

>  <SCORE.INTRA>
-2.88881

>  <SCORE.INTRA.DIHEDRAL>
-5.05517

>  <SCORE.INTRA.DIHEDRAL.0>
6.26853

>  <SCORE.INTRA.POLAR>
0

>  <SCORE.INTRA.POLAR.0>
0

>  <SCORE.INTRA.REPUL>
0

>  <SCORE.INTRA.REPUL.0>
0

>  <SCORE.INTRA.SOLV>
-0.244055

>  <SCORE.INTRA.SOLV.lig_0>
-38.4926

>  <SCORE.INTRA.VDW>
-0.239196

>  <SCORE.INTRA.VDW.0>
-0.59057

>  <SCORE.INTRA.norm>
-0.152043

>  <SCORE.RESTR>
0

>  <SCORE.RESTR.CAVITY>
0

>  <SCORE.RESTR.norm>
0

>  <SCORE.SYSTEM>
0

>  <SCORE.SYSTEM.CONST>
0

>  <SCORE.SYSTEM.DIHEDRAL>
0

>  <SCORE.SYSTEM.SOLV>
0

>  <SCORE.SYSTEM.norm>
0

>  <SCORE.heavy>
19

>  <SCORE.norm>
-0.915544

>  <RMSD>
0.659

$$$$
ligand
 OpenBabel11021811483D
libRbt.so/2013.1/901 2013/11/27
 19 21  0  0  0  0  0  0  0  0999 V2000
   -6.5875   -7.2216   12.6681 C   0  0  0  0  0  0  0  0  0  0  0  0
   -5.2490   -6.8789   12.2794 O   0  0  0  0  0  0  0  0  0  0  0  0
   -7.5778   -6.8352   11.5673 C   0  0  1  0  0  0  0  0  0  0  0  0
   -7.4953   -5.4262   11.2794 O   0  0  0  0  0  0  0  0  0  0  0  0
   -7.2748   -7.5745   10.2760 C   0  0  1  0  0  0  0  0  0  0  0  0
   -8.2078   -8.6404   10.0591 O   0  0  0  0  0  0  0  0  0  0  0  0
   -7.3845   -6.5420    9.1752 C   0  0  0  0  0  0  0  0  0  0  0  0
   -7.3654   -5.1883    9.8701 C   0  0  2  0  0  0  0  0  0  0  0  0
   -4.9542   -0.5224    9.7838 N   0  0  0  0  0  0  0  0  0  0  0  0
   -6.2400   -0.8320   10.1017 C   0  0  1  0  0  0  0  0  0  0  0  0
   -7.0874    0.1621   10.4592 N   0  0  0  0  0  0  0  0  0  0  0  0
   -6.6946   -2.1141   10.0645 N   0  0  0  0  0  0  0  0  0  0  0  0
   -5.8857   -3.1492    9.7101 C   0  0  2  0  0  0  0  0  0  0  0  0
   -4.5680   -2.8942    9.3757 C   0  0  1  0  0  0  0  0  0  0  0  0
   -4.0839   -1.4909    9.4222 C   0  0  0  0  0  0  0  0  0  0  0  0
   -2.8989   -1.2104    9.1341 O   0  0  0  0  0  0  0  0  0  0  0  0
   -3.9867   -4.0681    9.0734 N   0  0  0  0  0  0  0  0  0  0  0  0
   -4.9257   -5.0334    9.2106 C   0  0  0  0  0  0  0  0  0  0  0  0
   -6.0848   -4.4709    9.5985 N   0  0  1  0  0  0  0  0  0  0  0  0
  1  2  1  0  0  0  0
  3  1  1  1  0  0  0
  3  4  1  0  0  0  0
  3  5  1  0  0  0  0
  5  6  1  6  0  0  0
  5  7  1  0  0  0  0
  7  8  1  0  0  0  0
  8  4  1  1  0  0  0
  8 19  1  0  0  0  0
  9 15  1  0  0  0  0
  9 10  1  0  0  0  0
 10 11  1  6  0  0  0
 10 12  1  0  0  0  0
 13 12  1  6  0  0  0
 13 14  1  0  0  0  0
 13 19  1  0  0  0  0
 14 15  1  1  0  0  0
 14 17  1  0  0  0  0
 15 16  2  0  0  0  0
 17 18  1  0  0  0  0
 19 18  1  1  0  0  0
M  END
>  <CHROM.1>
-58.01904072,-82.34545388,-6.04548765,-4.27989051,10.19799972,-1.93497508
0.29280662,-0.09426526

>  <Name>
ligand

>  <RI>
0

>  <Rbt.Current_Directory>
/home/itssahil/PROJECTS/Mol_Feturizer/New_Systems/rnas/3SKI

>  <Rbt.Executable>
rbdock ($Id: //depot/dev/client3/rdock/2013.1/src/exe/rbdock.cxx#4 $)

>  <Rbt.Library>
libRbt.so (2013.1, Build901 2013/11/27)

>  <Rbt.Parameter_File>
/export/apps/rDock/src/rDock_2013.1_src/data/scripts/dock_solv.prm

>  <Rbt.Receptor>
prm/pocket_docking_3.prm

>  <SCORE>
-17.2729

>  <SCORE.INTER>
-14.7678

>  <SCORE.INTER.CONST>
1

>  <SCORE.INTER.POLAR>
0

>  <SCORE.INTER.ROT>
2

>  <SCORE.INTER.SOLV>
17.6772

>  <SCORE.INTER.VDW>
-20.671

>  <SCORE.INTER.norm>
-0.777254

>  <SCORE.INTRA>
-2.50512

>  <SCORE.INTRA.DIHEDRAL>
-5.06802

>  <SCORE.INTRA.DIHEDRAL.0>
6.26853

>  <SCORE.INTRA.POLAR>
0

>  <SCORE.INTRA.POLAR.0>
0

>  <SCORE.INTRA.REPUL>
0

>  <SCORE.INTRA.REPUL.0>
0

>  <SCORE.INTRA.SOLV>
0.247083

>  <SCORE.INTRA.SOLV.lig_0>
-38.4926

>  <SCORE.INTRA.VDW>
-0.0946543

>  <SCORE.INTRA.VDW.0>
-0.59057

>  <SCORE.INTRA.norm>
-0.131849

>  <SCORE.RESTR>
0

>  <SCORE.RESTR.CAVITY>
0

>  <SCORE.RESTR.norm>
0

>  <SCORE.SYSTEM>
0

>  <SCORE.SYSTEM.CONST>
0

>  <SCORE.SYSTEM.DIHEDRAL>
0

>  <SCORE.SYSTEM.SOLV>
0

>  <SCORE.SYSTEM.norm>
0

>  <SCORE.heavy>
19

>  <SCORE.norm>
-0.909102

>  <RMSD>
0.664

$$$$
ligand
 OpenBabel11021811483D
libRbt.so/2013.1/901 2013/11/27
 19 21  0  0  0  0  0  0  0  0999 V2000
   -6.6605   -7.1626   12.6948 C   0  0  0  0  0  0  0  0  0  0  0  0
   -5.3200   -6.8401   12.2957 O   0  0  0  0  0  0  0  0  0  0  0  0
   -7.6480   -6.8103   11.5802 C   0  0  1  0  0  0  0  0  0  0  0  0
   -7.5759   -5.4076   11.2601 O   0  0  0  0  0  0  0  0  0  0  0  0
   -7.3316   -7.5765   10.3079 C   0  0  1  0  0  0  0  0  0  0  0  0
   -8.2544   -8.6551   10.1108 O   0  0  0  0  0  0  0  0  0  0  0  0
   -7.4440   -6.5707    9.1829 C   0  0  0  0  0  0  0  0  0  0  0  0
   -7.4403   -5.2013    9.8464 C   0  0  2  0  0  0  0  0  0  0  0  0
   -5.0217   -0.5383    9.8237 N   0  0  0  0  0  0  0  0  0  0  0  0
   -6.3010   -0.8537   10.1615 C   0  0  1  0  0  0  0  0  0  0  0  0
   -7.1384    0.1325   10.5617 N   0  0  0  0  0  0  0  0  0  0  0  0
   -6.7591   -2.1339   10.1024 N   0  0  0  0  0  0  0  0  0  0  0  0
   -5.9601   -3.1611    9.7050 C   0  0  2  0  0  0  0  0  0  0  0  0
   -4.6494   -2.8999    9.3487 C   0  0  1  0  0  0  0  0  0  0  0  0
   -4.1615   -1.4989    9.4195 C   0  0  0  0  0  0  0  0  0  0  0  0
   -2.9824   -1.2132    9.1129 O   0  0  0  0  0  0  0  0  0  0  0  0
   -4.0772   -4.0668    9.0049 N   0  0  0  0  0  0  0  0  0  0  0  0
   -5.0150   -5.0338    9.1384 C   0  0  0  0  0  0  0  0  0  0  0  0
   -6.1643   -4.4793    9.5651 N   0  0  1  0  0  0  0  0  0  0  0  0
  1  2  1  0  0  0  0
  3  1  1  1  0  0  0
  3  4  1  0  0  0  0
  3  5  1  0  0  0  0
  5  6  1  6  0  0  0
  5  7  1  0  0  0  0
  7  8  1  0  0  0  0
  8  4  1  1  0  0  0
  8 19  1  0  0  0  0
  9 15  1  0  0  0  0
  9 10  1  0  0  0  0
 10 11  1  6  0  0  0
 10 12  1  0  0  0  0
 13 12  1  6  0  0  0
 13 14  1  0  0  0  0
 13 19  1  0  0  0  0
 14 15  1  1  0  0  0
 14 17  1  0  0  0  0
 15 16  2  0  0  0  0
 17 18  1  0  0  0  0
 19 18  1  1  0  0  0
M  END
>  <CHROM.1>
-59.07538236,-79.13803603,-6.11650847,-4.28139453,10.20463061,1.94667697
-0.36176164,3.07695594

>  <Name>
ligand

>  <RI>
0

>  <Rbt.Current_Directory>
/home/itssahil/PROJECTS/Mol_Feturizer/New_Systems/rnas/3SKI

>  <Rbt.Executable>
rbdock ($Id: //depot/dev/client3/rdock/2013.1/src/exe/rbdock.cxx#4 $)

>  <Rbt.Library>
libRbt.so (2013.1, Build901 2013/11/27)

>  <Rbt.Parameter_File>
/export/apps/rDock/src/rDock_2013.1_src/data/scripts/dock_solv.prm

>  <Rbt.Receptor>
prm/pocket_docking_3.prm

>  <SCORE>
-17.2808

>  <SCORE.INTER>
-14.8155

>  <SCORE.INTER.CONST>
1

>  <SCORE.INTER.POLAR>
0

>  <SCORE.INTER.ROT>
2

>  <SCORE.INTER.SOLV>
17.6259

>  <SCORE.INTER.VDW>
-20.6856

>  <SCORE.INTER.norm>
-0.779765

>  <SCORE.INTRA>
-2.46525

>  <SCORE.INTRA.DIHEDRAL>
-5.07806

>  <SCORE.INTRA.DIHEDRAL.0>
6.26853

>  <SCORE.INTRA.POLAR>
0

>  <SCORE.INTRA.POLAR.0>
0

>  <SCORE.INTRA.REPUL>
0

>  <SCORE.INTRA.REPUL.0>
0

>  <SCORE.INTRA.SOLV>
0.245301

>  <SCORE.INTRA.SOLV.lig_0>
-38.4926

>  <SCORE.INTRA.VDW>
-0.0488716

>  <SCORE.INTRA.VDW.0>
-0.59057

>  <SCORE.INTRA.norm>
-0.12975

>  <SCORE.RESTR>
0

>  <SCORE.RESTR.CAVITY>
0

>  <SCORE.RESTR.norm>
0

>  <SCORE.SYSTEM>
0

>  <SCORE.SYSTEM.CONST>
0

>  <SCORE.SYSTEM.DIHEDRAL>
0

>  <SCORE.SYSTEM.SOLV>
0

>  <SCORE.SYSTEM.norm>
0

>  <SCORE.heavy>
19

>  <SCORE.norm>
-0.909515

>  <RMSD>
0.667

$$$$
ligand
 OpenBabel11021811483D
libRbt.so/2013.1/901 2013/11/27
 19 21  0  0  0  0  0  0  0  0999 V2000
   -6.4753   -7.0232   12.7695 C   0  0  0  0  0  0  0  0  0  0  0  0
   -6.6428   -8.4098   13.1004 O   0  0  0  0  0  0  0  0  0  0  0  0
   -7.5561   -6.5763   11.7826 C   0  0  1  0  0  0  0  0  0  0  0  0
   -7.4532   -5.1638   11.5195 O   0  0  0  0  0  0  0  0  0  0  0  0
   -7.4093   -7.2915   10.4511 C   0  0  1  0  0  0  0  0  0  0  0  0
   -8.3961   -8.3203   10.3050 O   0  0  0  0  0  0  0  0  0  0  0  0
   -7.5916   -6.2278    9.3903 C   0  0  0  0  0  0  0  0  0  0  0  0
   -7.4560   -4.8939   10.1100 C   0  0  2  0  0  0  0  0  0  0  0  0
   -4.9841   -0.2801    9.6680 N   0  0  0  0  0  0  0  0  0  0  0  0
   -6.2518   -0.5526   10.0791 C   0  0  1  0  0  0  0  0  0  0  0  0
   -7.0595    0.4710   10.4450 N   0  0  0  0  0  0  0  0  0  0  0  0
   -6.7274   -1.8268   10.1268 N   0  0  0  0  0  0  0  0  0  0  0  0
   -5.9584   -2.8905    9.7682 C   0  0  2  0  0  0  0  0  0  0  0  0
   -4.6608   -2.6738    9.3410 C   0  0  1  0  0  0  0  0  0  0  0  0
   -4.1535   -1.2787    9.2954 C   0  0  0  0  0  0  0  0  0  0  0  0
   -2.9849   -1.0322    8.9216 O   0  0  0  0  0  0  0  0  0  0  0  0
   -4.1179   -3.8698    9.0547 N   0  0  0  0  0  0  0  0  0  0  0  0
   -5.0609   -4.8113    9.2927 C   0  0  0  0  0  0  0  0  0  0  0  0
   -6.1843   -4.2120    9.7275 N   0  0  1  0  0  0  0  0  0  0  0  0
  1  2  1  0  0  0  0
  3  1  1  1  0  0  0
  3  4  1  0  0  0  0
  3  5  1  0  0  0  0
  5  6  1  6  0  0  0
  5  7  1  0  0  0  0
  7  8  1  0  0  0  0
  8  4  1  1  0  0  0
  8 19  1  0  0  0  0
  9 15  1  0  0  0  0
  9 10  1  0  0  0  0
 10 11  1  6  0  0  0
 10 12  1  0  0  0  0
 13 12  1  6  0  0  0
 13 14  1  0  0  0  0
 13 19  1  0  0  0  0
 14 15  1  1  0  0  0
 14 17  1  0  0  0  0
 15 16  2  0  0  0  0
 17 18  1  0  0  0  0
 19 18  1  1  0  0  0
M  END
>  <CHROM.1>
175.88105967,-86.87271056,-6.19213857,-4.13350973,10.31371827,-1.94946662
0.45093190,-0.11269117

>  <Name>
ligand

>  <RI>
0

>  <Rbt.Current_Directory>
/home/itssahil/PROJECTS/Mol_Feturizer/New_Systems/rnas/3SKI

>  <Rbt.Executable>
rbdock ($Id: //depot/dev/client3/rdock/2013.1/src/exe/rbdock.cxx#4 $)

>  <Rbt.Library>
libRbt.so (2013.1, Build901 2013/11/27)

>  <Rbt.Parameter_File>
/export/apps/rDock/src/rDock_2013.1_src/data/scripts/dock_solv.prm

>  <Rbt.Receptor>
prm/pocket_docking_2.prm

>  <SCORE>
-17.3341

>  <SCORE.INTER>
-14.8702

>  <SCORE.INTER.CONST>
1

>  <SCORE.INTER.POLAR>
0

>  <SCORE.INTER.ROT>
2

>  <SCORE.INTER.SOLV>
18.2404

>  <SCORE.INTER.VDW>
-20.927

>  <SCORE.INTER.norm>
-0.782643

>  <SCORE.INTRA>
-2.46391

>  <SCORE.INTRA.DIHEDRAL>
-5.02443

>  <SCORE.INTRA.DIHEDRAL.0>
6.26853

>  <SCORE.INTRA.POLAR>
0

>  <SCORE.INTRA.POLAR.0>
0

>  <SCORE.INTRA.REPUL>
0

>  <SCORE.INTRA.REPUL.0>
0

>  <SCORE.INTRA.SOLV>
-0.0195277

>  <SCORE.INTRA.SOLV.lig_0>
-38.4926

>  <SCORE.INTRA.VDW>
0.0580691

>  <SCORE.INTRA.VDW.0>
-0.59057

>  <SCORE.INTRA.norm>
-0.129679

>  <SCORE.RESTR>
0

>  <SCORE.RESTR.CAVITY>
0

>  <SCORE.RESTR.norm>
0

>  <SCORE.SYSTEM>
0

>  <SCORE.SYSTEM.CONST>
0

>  <SCORE.SYSTEM.DIHEDRAL>
0

>  <SCORE.SYSTEM.SOLV>
0

>  <SCORE.SYSTEM.norm>
0

>  <SCORE.heavy>
19

>  <SCORE.norm>
-0.912323

>  <RMSD>
0.671

$$$$
ligand
 OpenBabel11021811483D
libRbt.so/2013.1/901 2013/11/27
 19 21  0  0  0  0  0  0  0  0999 V2000
   -6.6109   -7.1994   12.6931 C   0  0  0  0  0  0  0  0  0  0  0  0
   -5.2736   -6.8606   12.2968 O   0  0  0  0  0  0  0  0  0  0  0  0
   -7.6030   -6.8378   11.5856 C   0  0  1  0  0  0  0  0  0  0  0  0
   -7.5355   -5.4316   11.2803 O   0  0  0  0  0  0  0  0  0  0  0  0
   -7.2890   -7.5897   10.3042 C   0  0  1  0  0  0  0  0  0  0  0  0
   -8.2097   -8.6684   10.0987 O   0  0  0  0  0  0  0  0  0  0  0  0
   -7.4078   -6.5722    9.1904 C   0  0  0  0  0  0  0  0  0  0  0  0
   -7.4052   -5.2099    9.8684 C   0  0  2  0  0  0  0  0  0  0  0  0
   -5.0114   -0.5342    9.8455 N   0  0  0  0  0  0  0  0  0  0  0  0
   -6.2903   -0.8557   10.1790 C   0  0  1  0  0  0  0  0  0  0  0  0
   -7.1345    0.1268   10.5740 N   0  0  0  0  0  0  0  0  0  0  0  0
   -6.7413   -2.1384   10.1208 N   0  0  0  0  0  0  0  0  0  0  0  0
   -5.9353   -3.1622    9.7285 C   0  0  2  0  0  0  0  0  0  0  0  0
   -4.6247   -2.8947    9.3767 C   0  0  1  0  0  0  0  0  0  0  0  0
   -4.1446   -1.4910    9.4465 C   0  0  0  0  0  0  0  0  0  0  0  0
   -2.9658   -1.1996    9.1439 O   0  0  0  0  0  0  0  0  0  0  0  0
   -4.0450   -4.0593    9.0375 N   0  0  0  0  0  0  0  0  0  0  0  0
   -4.9782   -5.0309    9.1693 C   0  0  0  0  0  0  0  0  0  0  0  0
   -6.1320   -4.4817    9.5905 N   0  0  1  0  0  0  0  0  0  0  0  0
  1  2  1  0  0  0  0
  3  1  1  1  0  0  0
  3  4  1  0  0  0  0
  3  5  1  0  0  0  0
  5  6  1  6  0  0  0
  5  7  1  0  0  0  0
  7  8  1  0  0  0  0
  8  4  1  1  0  0  0
  8 19  1  0  0  0  0
  9 15  1  0  0  0  0
  9 10  1  0  0  0  0
 10 11  1  6  0  0  0
 10 12  1  0  0  0  0
 13 12  1  6  0  0  0
 13 14  1  0  0  0  0
 13 19  1  0  0  0  0
 14 15  1  1  0  0  0
 14 17  1  0  0  0  0
 15 16  2  0  0  0  0
 17 18  1  0  0  0  0
 19 18  1  1  0  0  0
M  END
>  <CHROM.1>
-58.67078225,-79.98859328,-6.08629291,-4.28808402,10.22033449,1.93807352
-0.34490762,3.07163442

>  <Name>
ligand

>  <RI>
0

>  <Rbt.Current_Directory>
/home/itssahil/PROJECTS/Mol_Feturizer/New_Systems/rnas/3SKI

>  <Rbt.Executable>
rbdock ($Id: //depot/dev/client3/rdock/2013.1/src/exe/rbdock.cxx#4 $)

>  <Rbt.Library>
libRbt.so (2013.1, Build901 2013/11/27)

>  <Rbt.Parameter_File>
/export/apps/rDock/src/rDock_2013.1_src/data/scripts/dock_solv.prm

>  <Rbt.Receptor>
prm/pocket_docking_3.prm

>  <SCORE>
-17.3747

>  <SCORE.INTER>
-14.8938

>  <SCORE.INTER.CONST>
1

>  <SCORE.INTER.POLAR>
0

>  <SCORE.INTER.ROT>
2

>  <SCORE.INTER.SOLV>
17.5885

>  <SCORE.INTER.VDW>
-20.7254

>  <SCORE.INTER.norm>
-0.783885

>  <SCORE.INTRA>
-2.48092

>  <SCORE.INTRA.DIHEDRAL>
-5.07505

>  <SCORE.INTRA.DIHEDRAL.0>
6.26853

>  <SCORE.INTRA.POLAR>
0

>  <SCORE.INTRA.POLAR.0>
0

>  <SCORE.INTRA.REPUL>
0

>  <SCORE.INTRA.REPUL.0>
0

>  <SCORE.INTRA.SOLV>
0.24559

>  <SCORE.INTRA.SOLV.lig_0>
-38.4926

>  <SCORE.INTRA.VDW>
-0.0661949

>  <SCORE.INTRA.VDW.0>
-0.59057

>  <SCORE.INTRA.norm>
-0.130575

>  <SCORE.RESTR>
0

>  <SCORE.RESTR.CAVITY>
0

>  <SCORE.RESTR.norm>
0

>  <SCORE.SYSTEM>
0

>  <SCORE.SYSTEM.CONST>
0

>  <SCORE.SYSTEM.DIHEDRAL>
0

>  <SCORE.SYSTEM.SOLV>
0

>  <SCORE.SYSTEM.norm>
0

>  <SCORE.heavy>
19

>  <SCORE.norm>
-0.91446

>  <RMSD>
0.676

$$$$
ligand
 OpenBabel11021811483D
libRbt.so/2013.1/901 2013/11/27
 19 21  0  0  0  0  0  0  0  0999 V2000
   -6.4704   -7.2960   12.7226 C   0  0  0  0  0  0  0  0  0  0  0  0
   -5.1604   -6.9498   12.2489 O   0  0  0  0  0  0  0  0  0  0  0  0
   -7.5332   -6.8788   11.7037 C   0  0  1  0  0  0  0  0  0  0  0  0
   -7.4609   -5.4640   11.4423 O   0  0  0  0  0  0  0  0  0  0  0  0
   -7.3277   -7.5900   10.3779 C   0  0  1  0  0  0  0  0  0  0  0  0
   -8.2815   -8.6452   10.2038 O   0  0  0  0  0  0  0  0  0  0  0  0
   -7.5074   -6.5319    9.3111 C   0  0  0  0  0  0  0  0  0  0  0  0
   -7.4293   -5.1947   10.0331 C   0  0  2  0  0  0  0  0  0  0  0  0
   -5.0274   -0.5293    9.7921 N   0  0  0  0  0  0  0  0  0  0  0  0
   -6.2936   -0.8373   10.1822 C   0  0  1  0  0  0  0  0  0  0  0  0
   -7.1200    0.1583   10.5817 N   0  0  0  0  0  0  0  0  0  0  0  0
   -6.7493   -2.1197   10.1761 N   0  0  0  0  0  0  0  0  0  0  0  0
   -5.9611   -3.1564    9.7820 C   0  0  2  0  0  0  0  0  0  0  0  0
   -4.6640   -2.9029    9.3738 C   0  0  1  0  0  0  0  0  0  0  0  0
   -4.1784   -1.4995    9.3871 C   0  0  0  0  0  0  0  0  0  0  0  0
   -3.0112   -1.2203    9.0324 O   0  0  0  0  0  0  0  0  0  0  0  0
   -4.1003   -4.0782    9.0450 N   0  0  0  0  0  0  0  0  0  0  0  0
   -5.0299   -5.0428    9.2385 C   0  0  0  0  0  0  0  0  0  0  0  0
   -6.1658   -4.4786    9.6876 N   0  0  1  0  0  0  0  0  0  0  0  0
  1  2  1  0  0  0  0
  3  1  1  1  0  0  0
  3  4  1  0  0  0  0
  3  5  1  0  0  0  0
  5  6  1  6  0  0  0
  5  7  1  0  0  0  0
  7  8  1  0  0  0  0
  8  4  1  1  0  0  0
  8 19  1  0  0  0  0
  9 15  1  0  0  0  0
  9 10  1  0  0  0  0
 10 11  1  6  0  0  0
 10 12  1  0  0  0  0
 13 12  1  6  0  0  0
 13 14  1  0  0  0  0
 13 19  1  0  0  0  0
 14 15  1  1  0  0  0
 14 17  1  0  0  0  0
 15 16  2  0  0  0  0
 17 18  1  0  0  0  0
 19 18  1  1  0  0  0
M  END
>  <CHROM.1>
-57.91014971,-84.17412333,-6.09178370,-4.29779351,10.26182153,-1.92333217
0.32240619,-0.10202110

>  <Name>
ligand

>  <RI>
0

>  <Rbt.Current_Directory>
/home/itssahil/PROJECTS/Mol_Feturizer/New_Systems/rnas/3SKI

>  <Rbt.Executable>
rbdock ($Id: //depot/dev/client3/rdock/2013.1/src/exe/rbdock.cxx#4 $)

>  <Rbt.Library>
libRbt.so (2013.1, Build901 2013/11/27)

>  <Rbt.Parameter_File>
/export/apps/rDock/src/rDock_2013.1_src/data/scripts/dock_solv.prm

>  <Rbt.Receptor>
prm/pocket_docking_3.prm

>  <SCORE>
-17.3173

>  <SCORE.INTER>
-14.7799

>  <SCORE.INTER.CONST>
1

>  <SCORE.INTER.POLAR>
0

>  <SCORE.INTER.ROT>
2

>  <SCORE.INTER.SOLV>
17.6503

>  <SCORE.INTER.VDW>
-20.67

>  <SCORE.INTER.norm>
-0.777888

>  <SCORE.INTRA>
-2.53743

>  <SCORE.INTRA.DIHEDRAL>
-5.06697

>  <SCORE.INTRA.DIHEDRAL.0>
6.26853

>  <SCORE.INTRA.POLAR>
0

>  <SCORE.INTRA.POLAR.0>
0

>  <SCORE.INTRA.REPUL>
0

>  <SCORE.INTRA.REPUL.0>
0

>  <SCORE.INTRA.SOLV>
0.248872

>  <SCORE.INTRA.SOLV.lig_0>
-38.4926

>  <SCORE.INTRA.VDW>
-0.12838

>  <SCORE.INTRA.VDW.0>
-0.59057

>  <SCORE.INTRA.norm>
-0.133549

>  <SCORE.RESTR>
0

>  <SCORE.RESTR.CAVITY>
0

>  <SCORE.RESTR.norm>
0

>  <SCORE.SYSTEM>
0

>  <SCORE.SYSTEM.CONST>
0

>  <SCORE.SYSTEM.DIHEDRAL>
0

>  <SCORE.SYSTEM.SOLV>
0

>  <SCORE.SYSTEM.norm>
0

>  <SCORE.heavy>
19

>  <SCORE.norm>
-0.911437

>  <RMSD>
0.678

$$$$
ligand
 OpenBabel11021811483D
libRbt.so/2013.1/901 2013/11/27
 19 21  0  0  0  0  0  0  0  0999 V2000
   -7.3508   -7.6367   11.4641 C   0  0  0  0  0  0  0  0  0  0  0  0
   -7.0154   -7.5629   12.8577 O   0  0  0  0  0  0  0  0  0  0  0  0
   -8.3819   -6.5639   11.1064 C   0  0  1  0  0  0  0  0  0  0  0  0
   -7.8706   -5.2489   11.3969 O   0  0  0  0  0  0  0  0  0  0  0  0
   -8.7138   -6.5978    9.6250 C   0  0  1  0  0  0  0  0  0  0  0  0
   -9.9922   -7.2031    9.3952 O   0  0  0  0  0  0  0  0  0  0  0  0
   -8.7219   -5.1540    9.1718 C   0  0  0  0  0  0  0  0  0  0  0  0
   -8.0330   -4.3666   10.2767 C   0  0  2  0  0  0  0  0  0  0  0  0
   -4.8860   -0.1867    9.8104 N   0  0  0  0  0  0  0  0  0  0  0  0
   -6.1506   -0.2734   10.3036 C   0  0  1  0  0  0  0  0  0  0  0  0
   -6.7569    0.8476   10.7617 N   0  0  0  0  0  0  0  0  0  0  0  0
   -6.8208   -1.4572   10.3432 N   0  0  0  0  0  0  0  0  0  0  0  0
   -6.2587   -2.6120    9.8938 C   0  0  2  0  0  0  0  0  0  0  0  0
   -4.9746   -2.5843    9.3805 C   0  0  1  0  0  0  0  0  0  0  0  0
   -4.2536   -1.2864    9.3448 C   0  0  0  0  0  0  0  0  0  0  0  0
   -3.0882   -1.2113    8.8951 O   0  0  0  0  0  0  0  0  0  0  0  0
   -4.6516   -3.8371    9.0153 N   0  0  0  0  0  0  0  0  0  0  0  0
   -5.7158   -4.6273    9.2899 C   0  0  0  0  0  0  0  0  0  0  0  0
   -6.6966   -3.8779    9.8254 N   0  0  1  0  0  0  0  0  0  0  0  0
  1  2  1  0  0  0  0
  3  1  1  6  0  0  0
  3  4  1  0  0  0  0
  3  5  1  0  0  0  0
  5  6  1  1  0  0  0
  5  7  1  0  0  0  0
  7  8  1  0  0  0  0
  8  4  1  1  0  0  0
  8 19  1  0  0  0  0
  9 15  1  0  0  0  0
  9 10  1  0  0  0  0
 10 11  1  6  0  0  0
 10 12  1  0  0  0  0
 13 12  1  6  0  0  0
 13 14  1  0  0  0  0
 13 19  1  0  0  0  0
 14 15  1  1  0  0  0
 14 17  1  0  0  0  0
 15 16  2  0  0  0  0
 17 18  1  0  0  0  0
 19 18  1  1  0  0  0
M  END
>  <CHROM.1>
59.20223670,-113.69082942,-6.68520304,-3.84063705,10.14501479,-2.07196173
0.12429198,-0.10408321

>  <Name>
ligand

>  <RI>
0

>  <Rbt.Current_Directory>
/home/itssahil/PROJECTS/Mol_Feturizer/New_Systems/rnas/3SKI

>  <Rbt.Executable>
rbdock ($Id: //depot/dev/client3/rdock/2013.1/src/exe/rbdock.cxx#4 $)

>  <Rbt.Library>
libRbt.so (2013.1, Build901 2013/11/27)

>  <Rbt.Parameter_File>
/export/apps/rDock/src/rDock_2013.1_src/data/scripts/dock_solv.prm

>  <Rbt.Receptor>
prm/pocket_docking_2.prm

>  <SCORE>
-17.0447

>  <SCORE.INTER>
-13.9885

>  <SCORE.INTER.CONST>
1

>  <SCORE.INTER.POLAR>
0

>  <SCORE.INTER.ROT>
2

>  <SCORE.INTER.SOLV>
18.2376

>  <SCORE.INTER.VDW>
-20.3382

>  <SCORE.INTER.norm>
-0.736237

>  <SCORE.INTRA>
-3.0562

>  <SCORE.INTRA.DIHEDRAL>
-5.06937

>  <SCORE.INTRA.DIHEDRAL.0>
6.26853

>  <SCORE.INTRA.POLAR>
0

>  <SCORE.INTRA.POLAR.0>
0

>  <SCORE.INTRA.REPUL>
0

>  <SCORE.INTRA.REPUL.0>
0

>  <SCORE.INTRA.SOLV>
-0.229596

>  <SCORE.INTRA.SOLV.lig_0>
-38.4926

>  <SCORE.INTRA.VDW>
-0.406717

>  <SCORE.INTRA.VDW.0>
-0.59057

>  <SCORE.INTRA.norm>
-0.160853

>  <SCORE.RESTR>
0

>  <SCORE.RESTR.CAVITY>
0

>  <SCORE.RESTR.norm>
0

>  <SCORE.SYSTEM>
0

>  <SCORE.SYSTEM.CONST>
0

>  <SCORE.SYSTEM.DIHEDRAL>
0

>  <SCORE.SYSTEM.SOLV>
0

>  <SCORE.SYSTEM.norm>
0

>  <SCORE.heavy>
19

>  <SCORE.norm>
-0.897089

>  <RMSD>
0.679

$$$$
ligand
 OpenBabel11021811483D
libRbt.so/2013.1/901 2013/11/27
 19 21  0  0  0  0  0  0  0  0999 V2000
   -6.5945   -7.2235   12.6752 C   0  0  0  0  0  0  0  0  0  0  0  0
   -5.2564   -6.8935   12.2743 O   0  0  0  0  0  0  0  0  0  0  0  0
   -7.5885   -6.8505   11.5732 C   0  0  1  0  0  0  0  0  0  0  0  0
   -7.5162   -5.4427   11.2769 O   0  0  0  0  0  0  0  0  0  0  0  0
   -7.2815   -7.5952   10.2859 C   0  0  1  0  0  0  0  0  0  0  0  0
   -8.2073   -8.6688   10.0761 O   0  0  0  0  0  0  0  0  0  0  0  0
   -7.3995   -6.5699    9.1792 C   0  0  0  0  0  0  0  0  0  0  0  0
   -7.3893   -5.2122    9.8661 C   0  0  2  0  0  0  0  0  0  0  0  0
   -4.9900   -0.5394    9.8216 N   0  0  0  0  0  0  0  0  0  0  0  0
   -6.2708   -0.8572   10.1513 C   0  0  1  0  0  0  0  0  0  0  0  0
   -7.1157    0.1291   10.5354 N   0  0  0  0  0  0  0  0  0  0  0  0
   -6.7230   -2.1397   10.1000 N   0  0  0  0  0  0  0  0  0  0  0  0
   -5.9164   -3.1671    9.7188 C   0  0  2  0  0  0  0  0  0  0  0  0
   -4.6038   -2.9036    9.3712 C   0  0  1  0  0  0  0  0  0  0  0  0
   -4.1224   -1.5000    9.4334 C   0  0  0  0  0  0  0  0  0  0  0  0
   -2.9419   -1.2121    9.1343 O   0  0  0  0  0  0  0  0  0  0  0  0
   -4.0239   -4.0712    9.0429 N   0  0  0  0  0  0  0  0  0  0  0  0
   -4.9588   -5.0408    9.1772 C   0  0  0  0  0  0  0  0  0  0  0  0
   -6.1139   -4.4874    9.5891 N   0  0  1  0  0  0  0  0  0  0  0  0
  1  2  1  0  0  0  0
  3  1  1  1  0  0  0
  3  4  1  0  0  0  0
  3  5  1  0  0  0  0
  5  6  1  6  0  0  0
  5  7  1  0  0  0  0
  7  8  1  0  0  0  0
  8  4  1  1  0  0  0
  8 19  1  0  0  0  0
  9 15  1  0  0  0  0
  9 10  1  0  0  0  0
 10 11  1  6  0  0  0
 10 12  1  0  0  0  0
 13 12  1  6  0  0  0
 13 14  1  0  0  0  0
 13 19  1  0  0  0  0
 14 15  1  1  0  0  0
 14 17  1  0  0  0  0
 15 16  2  0  0  0  0
 17 18  1  0  0  0  0
 19 18  1  1  0  0  0
M  END
>  <CHROM.1>
-58.94974925,-80.90310166,-6.06934832,-4.29650109,10.20710063,1.93588281
-0.32591869,3.06335022

>  <Name>
ligand

>  <RI>
0

>  <Rbt.Current_Directory>
/home/itssahil/PROJECTS/Mol_Feturizer/New_Systems/rnas/3SKI

>  <Rbt.Executable>
rbdock ($Id: //depot/dev/client3/rdock/2013.1/src/exe/rbdock.cxx#4 $)

>  <Rbt.Library>
libRbt.so (2013.1, Build901 2013/11/27)

>  <Rbt.Parameter_File>
/export/apps/rDock/src/rDock_2013.1_src/data/scripts/dock_solv.prm

>  <Rbt.Receptor>
prm/pocket_docking_4.prm

>  <SCORE>
-17.372

>  <SCORE.INTER>
-14.8778

>  <SCORE.INTER.CONST>
1

>  <SCORE.INTER.POLAR>
0

>  <SCORE.INTER.ROT>
2

>  <SCORE.INTER.SOLV>
17.5805

>  <SCORE.INTER.VDW>
-20.712

>  <SCORE.INTER.norm>
-0.783041

>  <SCORE.INTRA>
-2.49425

>  <SCORE.INTRA.DIHEDRAL>
-5.07796

>  <SCORE.INTRA.DIHEDRAL.0>
6.26853

>  <SCORE.INTRA.POLAR>
0

>  <SCORE.INTRA.POLAR.0>
0

>  <SCORE.INTRA.REPUL>
0

>  <SCORE.INTRA.REPUL.0>
0

>  <SCORE.INTRA.SOLV>
0.247076

>  <SCORE.INTRA.SOLV.lig_0>
-38.4926

>  <SCORE.INTRA.VDW>
-0.0788126

>  <SCORE.INTRA.VDW.0>
-0.59057

>  <SCORE.INTRA.norm>
-0.131277

>  <SCORE.RESTR>
0

>  <SCORE.RESTR.CAVITY>
0

>  <SCORE.RESTR.norm>
0

>  <SCORE.SYSTEM>
0

>  <SCORE.SYSTEM.CONST>
0

>  <SCORE.SYSTEM.DIHEDRAL>
0

>  <SCORE.SYSTEM.SOLV>
0

>  <SCORE.SYSTEM.norm>
0

>  <SCORE.heavy>
19

>  <SCORE.norm>
-0.914317

>  <RMSD>
0.679

$$$$
ligand
 OpenBabel11021811483D
libRbt.so/2013.1/901 2013/11/27
 19 21  0  0  0  0  0  0  0  0999 V2000
   -6.4968   -7.1261   12.7411 C   0  0  0  0  0  0  0  0  0  0  0  0
   -6.7485   -8.4881   13.1176 O   0  0  0  0  0  0  0  0  0  0  0  0
   -7.5642   -6.6385   11.7588 C   0  0  1  0  0  0  0  0  0  0  0  0
   -7.4365   -5.2221   11.5295 O   0  0  0  0  0  0  0  0  0  0  0  0
   -7.4210   -7.3247   10.4118 C   0  0  1  0  0  0  0  0  0  0  0  0
   -8.4236   -8.3334   10.2361 O   0  0  0  0  0  0  0  0  0  0  0  0
   -7.5795   -6.2337    9.3752 C   0  0  0  0  0  0  0  0  0  0  0  0
   -7.4264   -4.9194   10.1267 C   0  0  2  0  0  0  0  0  0  0  0  0
   -4.9268   -0.3236    9.6541 N   0  0  0  0  0  0  0  0  0  0  0  0
   -6.2073   -0.5831   10.0326 C   0  0  1  0  0  0  0  0  0  0  0  0
   -7.0223    0.4507   10.3501 N   0  0  0  0  0  0  0  0  0  0  0  0
   -6.6884   -1.8546   10.0952 N   0  0  0  0  0  0  0  0  0  0  0  0
   -5.9124   -2.9284    9.7846 C   0  0  2  0  0  0  0  0  0  0  0  0
   -4.6017   -2.7250    9.3922 C   0  0  1  0  0  0  0  0  0  0  0  0
   -4.0886   -1.3327    9.3300 C   0  0  0  0  0  0  0  0  0  0  0  0
   -2.9084   -1.0980    8.9863 O   0  0  0  0  0  0  0  0  0  0  0  0
   -4.0544   -3.9288    9.1501 N   0  0  0  0  0  0  0  0  0  0  0  0
   -5.0073   -4.8620    9.3810 C   0  0  0  0  0  0  0  0  0  0  0  0
   -6.1414   -4.2499    9.7674 N   0  0  1  0  0  0  0  0  0  0  0  0
  1  2  1  0  0  0  0
  3  1  1  1  0  0  0
  3  4  1  0  0  0  0
  3  5  1  0  0  0  0
  5  6  1  6  0  0  0
  5  7  1  0  0  0  0
  7  8  1  0  0  0  0
  8  4  1  1  0  0  0
  8 19  1  0  0  0  0
  9 15  1  0  0  0  0
  9 10  1  0  0  0  0
 10 11  1  6  0  0  0
 10 12  1  0  0  0  0
 13 12  1  6  0  0  0
 13 14  1  0  0  0  0
 13 19  1  0  0  0  0
 14 15  1  1  0  0  0
 14 17  1  0  0  0  0
 15 16  2  0  0  0  0
 17 18  1  0  0  0  0
 19 18  1  1  0  0  0
M  END
>  <CHROM.1>
171.49090805,-89.97801492,-6.16941571,-4.17901934,10.31683966,-1.94869303
0.38222598,-0.13483276

>  <Name>
ligand

>  <RI>
0

>  <Rbt.Current_Directory>
/home/itssahil/PROJECTS/Mol_Feturizer/New_Systems/rnas/3SKI

>  <Rbt.Executable>
rbdock ($Id: //depot/dev/client3/rdock/2013.1/src/exe/rbdock.cxx#4 $)

>  <Rbt.Library>
libRbt.so (2013.1, Build901 2013/11/27)

>  <Rbt.Parameter_File>
/export/apps/rDock/src/rDock_2013.1_src/data/scripts/dock_solv.prm

>  <Rbt.Receptor>
prm/pocket_docking_2.prm

>  <SCORE>
-17.2349

>  <SCORE.INTER>
-14.7752

>  <SCORE.INTER.CONST>
1

>  <SCORE.INTER.POLAR>
0

>  <SCORE.INTER.ROT>
2

>  <SCORE.INTER.SOLV>
18.1659

>  <SCORE.INTER.VDW>
-20.8387

>  <SCORE.INTER.norm>
-0.77764

>  <SCORE.INTRA>
-2.45974

>  <SCORE.INTRA.DIHEDRAL>
-4.82977

>  <SCORE.INTRA.DIHEDRAL.0>
6.26853

>  <SCORE.INTRA.POLAR>
0

>  <SCORE.INTRA.POLAR.0>
0

>  <SCORE.INTRA.REPUL>
0

>  <SCORE.INTRA.REPUL.0>
0

>  <SCORE.INTRA.SOLV>
-0.0441859

>  <SCORE.INTRA.SOLV.lig_0>
-38.4926

>  <SCORE.INTRA.VDW>
-0.0227623

>  <SCORE.INTRA.VDW.0>
-0.59057

>  <SCORE.INTRA.norm>
-0.12946

>  <SCORE.RESTR>
0

>  <SCORE.RESTR.CAVITY>
0

>  <SCORE.RESTR.norm>
0

>  <SCORE.SYSTEM>
0

>  <SCORE.SYSTEM.CONST>
0

>  <SCORE.SYSTEM.DIHEDRAL>
0

>  <SCORE.SYSTEM.SOLV>
0

>  <SCORE.SYSTEM.norm>
0

>  <SCORE.heavy>
19

>  <SCORE.norm>
-0.9071

>  <RMSD>
0.684

$$$$
ligand
 OpenBabel11021811483D
libRbt.so/2013.1/901 2013/11/27
 19 21  0  0  0  0  0  0  0  0999 V2000
   -6.5815   -7.1978   12.6594 C   0  0  0  0  0  0  0  0  0  0  0  0
   -6.7880   -8.5890   12.9459 O   0  0  0  0  0  0  0  0  0  0  0  0
   -7.6386   -6.6936   11.6744 C   0  0  1  0  0  0  0  0  0  0  0  0
   -7.5074   -5.2740   11.4688 O   0  0  0  0  0  0  0  0  0  0  0  0
   -7.4826   -7.3587   10.3182 C   0  0  1  0  0  0  0  0  0  0  0  0
   -8.4843   -8.3634   10.1166 O   0  0  0  0  0  0  0  0  0  0  0  0
   -7.6298   -6.2513    9.2974 C   0  0  0  0  0  0  0  0  0  0  0  0
   -7.4830   -4.9492   10.0711 C   0  0  2  0  0  0  0  0  0  0  0  0
   -4.9564   -0.3546    9.7556 N   0  0  0  0  0  0  0  0  0  0  0  0
   -6.2386   -0.6194   10.1245 C   0  0  1  0  0  0  0  0  0  0  0  0
   -7.0478    0.4079   10.4765 N   0  0  0  0  0  0  0  0  0  0  0  0
   -6.7271   -1.8894   10.1437 N   0  0  0  0  0  0  0  0  0  0  0  0
   -5.9572   -2.9566    9.7973 C   0  0  2  0  0  0  0  0  0  0  0  0
   -4.6451   -2.7477    9.4126 C   0  0  1  0  0  0  0  0  0  0  0  0
   -4.1238   -1.3571    9.3978 C   0  0  0  0  0  0  0  0  0  0  0  0
   -2.9421   -1.1178    9.0629 O   0  0  0  0  0  0  0  0  0  0  0  0
   -4.1047   -3.9458    9.1302 N   0  0  0  0  0  0  0  0  0  0  0  0
   -5.0631   -4.8807    9.3288 C   0  0  0  0  0  0  0  0  0  0  0  0
   -6.1939   -4.2753    9.7353 N   0  0  1  0  0  0  0  0  0  0  0  0
  1  2  1  0  0  0  0
  3  1  1  1  0  0  0
  3  4  1  0  0  0  0
  3  5  1  0  0  0  0
  5  6  1  6  0  0  0
  5  7  1  0  0  0  0
  7  8  1  0  0  0  0
  8  4  1  1  0  0  0
  8 19  1  0  0  0  0
  9 15  1  0  0  0  0
  9 10  1  0  0  0  0
 10 11  1  6  0  0  0
 10 12  1  0  0  0  0
 13 12  1  6  0  0  0
 13 14  1  0  0  0  0
 13 19  1  0  0  0  0
 14 15  1  1  0  0  0
 14 17  1  0  0  0  0
 15 16  2  0  0  0  0
 17 18  1  0  0  0  0
 19 18  1  1  0  0  0
M  END
>  <CHROM.1>
175.15781905,-88.77622247,-6.21902381,-4.21623708,10.29826044,-1.95591479
0.39113268,-0.09945741

>  <Name>
ligand

>  <RI>
0

>  <Rbt.Current_Directory>
/home/itssahil/PROJECTS/Mol_Feturizer/New_Systems/rnas/3SKI

>  <Rbt.Executable>
rbdock ($Id: //depot/dev/client3/rdock/2013.1/src/exe/rbdock.cxx#4 $)

>  <Rbt.Library>
libRbt.so (2013.1, Build901 2013/11/27)

>  <Rbt.Parameter_File>
/export/apps/rDock/src/rDock_2013.1_src/data/scripts/dock_solv.prm

>  <Rbt.Receptor>
prm/pocket_docking_4.prm

>  <SCORE>
-17.2997

>  <SCORE.INTER>
-14.806

>  <SCORE.INTER.CONST>
1

>  <SCORE.INTER.POLAR>
0

>  <SCORE.INTER.ROT>
2

>  <SCORE.INTER.SOLV>
17.9447

>  <SCORE.INTER.VDW>
-20.7855

>  <SCORE.INTER.norm>
-0.779261

>  <SCORE.INTRA>
-2.4937

>  <SCORE.INTRA.DIHEDRAL>
-5.00165

>  <SCORE.INTRA.DIHEDRAL.0>
6.26853

>  <SCORE.INTRA.POLAR>
0

>  <SCORE.INTRA.POLAR.0>
0

>  <SCORE.INTRA.REPUL>
0

>  <SCORE.INTRA.REPUL.0>
0

>  <SCORE.INTRA.SOLV>
-0.0245589

>  <SCORE.INTRA.SOLV.lig_0>
-38.4926

>  <SCORE.INTRA.VDW>
0.0194099

>  <SCORE.INTRA.VDW.0>
-0.59057

>  <SCORE.INTRA.norm>
-0.131247

>  <SCORE.RESTR>
0

>  <SCORE.RESTR.CAVITY>
0

>  <SCORE.RESTR.norm>
0

>  <SCORE.SYSTEM>
0

>  <SCORE.SYSTEM.CONST>
0

>  <SCORE.SYSTEM.DIHEDRAL>
0

>  <SCORE.SYSTEM.SOLV>
0

>  <SCORE.SYSTEM.norm>
0

>  <SCORE.heavy>
19

>  <SCORE.norm>
-0.910508

>  <RMSD>
0.685

$$$$
ligand
 OpenBabel11021811483D
libRbt.so/2013.1/901 2013/11/27
 19 21  0  0  0  0  0  0  0  0999 V2000
   -6.6331   -7.2926   12.6444 C   0  0  0  0  0  0  0  0  0  0  0  0
   -5.3007   -6.9388   12.2445 O   0  0  0  0  0  0  0  0  0  0  0  0
   -7.6383   -6.8943   11.5615 C   0  0  1  0  0  0  0  0  0  0  0  0
   -7.5539   -5.4836   11.2821 O   0  0  0  0  0  0  0  0  0  0  0  0
   -7.3581   -7.6258   10.2606 C   0  0  1  0  0  0  0  0  0  0  0  0
   -8.2990   -8.6861   10.0505 O   0  0  0  0  0  0  0  0  0  0  0  0
   -7.4799   -6.5851    9.1687 C   0  0  0  0  0  0  0  0  0  0  0  0
   -7.4443   -5.2365    9.8726 C   0  0  2  0  0  0  0  0  0  0  0  0
   -5.0052   -0.5846    9.8110 N   0  0  0  0  0  0  0  0  0  0  0  0
   -6.2864   -0.8913   10.1497 C   0  0  1  0  0  0  0  0  0  0  0  0
   -7.1200    0.1022   10.5397 N   0  0  0  0  0  0  0  0  0  0  0  0
   -6.7499   -2.1699   10.1017 N   0  0  0  0  0  0  0  0  0  0  0  0
   -5.9549   -3.2042    9.7148 C   0  0  2  0  0  0  0  0  0  0  0  0
   -4.6426   -2.9520    9.3580 C   0  0  1  0  0  0  0  0  0  0  0  0
   -4.1487   -1.5526    9.4167 C   0  0  0  0  0  0  0  0  0  0  0  0
   -2.9678   -1.2749    9.1093 O   0  0  0  0  0  0  0  0  0  0  0  0
   -4.0751   -4.1246    9.0257 N   0  0  0  0  0  0  0  0  0  0  0  0
   -5.0173   -5.0861    9.1666 C   0  0  0  0  0  0  0  0  0  0  0  0
   -6.1648   -4.5228    9.5866 N   0  0  1  0  0  0  0  0  0  0  0  0
  1  2  1  0  0  0  0
  3  1  1  1  0  0  0
  3  4  1  0  0  0  0
  3  5  1  0  0  0  0
  5  6  1  6  0  0  0
  5  7  1  0  0  0  0
  7  8  1  0  0  0  0
  8  4  1  1  0  0  0
  8 19  1  0  0  0  0
  9 15  1  0  0  0  0
  9 10  1  0  0  0  0
 10 11  1  6  0  0  0
 10 12  1  0  0  0  0
 13 12  1  6  0  0  0
 13 14  1  0  0  0  0
 13 19  1  0  0  0  0
 14 15  1  1  0  0  0
 14 17  1  0  0  0  0
 15 16  2  0  0  0  0
 17 18  1  0  0  0  0
 19 18  1  1  0  0  0
M  END
>  <CHROM.1>
-57.34948733,-81.75869381,-6.11314713,-4.33638424,10.19534532,-1.94228466
0.32280282,-0.07590934

>  <Name>
ligand

>  <RI>
0

>  <Rbt.Current_Directory>
/home/itssahil/PROJECTS/Mol_Feturizer/New_Systems/rnas/3SKI

>  <Rbt.Executable>
rbdock ($Id: //depot/dev/client3/rdock/2013.1/src/exe/rbdock.cxx#4 $)

>  <Rbt.Library>
libRbt.so (2013.1, Build901 2013/11/27)

>  <Rbt.Parameter_File>
/export/apps/rDock/src/rDock_2013.1_src/data/scripts/dock_solv.prm

>  <Rbt.Receptor>
prm/pocket_docking_2.prm

>  <SCORE>
-17.2485

>  <SCORE.INTER>
-14.7363

>  <SCORE.INTER.CONST>
1

>  <SCORE.INTER.POLAR>
0

>  <SCORE.INTER.ROT>
2

>  <SCORE.INTER.SOLV>
17.491

>  <SCORE.INTER.VDW>
-20.5879

>  <SCORE.INTER.norm>
-0.775596

>  <SCORE.INTRA>
-2.51219

>  <SCORE.INTRA.DIHEDRAL>
-5.05638

>  <SCORE.INTRA.DIHEDRAL.0>
6.26853

>  <SCORE.INTRA.POLAR>
0

>  <SCORE.INTRA.POLAR.0>
0

>  <SCORE.INTRA.REPUL>
0

>  <SCORE.INTRA.REPUL.0>
0

>  <SCORE.INTRA.SOLV>
0.245222

>  <SCORE.INTRA.SOLV.lig_0>
-38.4926

>  <SCORE.INTRA.VDW>
-0.10661

>  <SCORE.INTRA.VDW.0>
-0.59057

>  <SCORE.INTRA.norm>
-0.13222

>  <SCORE.RESTR>
0

>  <SCORE.RESTR.CAVITY>
0

>  <SCORE.RESTR.norm>
0

>  <SCORE.SYSTEM>
0

>  <SCORE.SYSTEM.CONST>
0

>  <SCORE.SYSTEM.DIHEDRAL>
0

>  <SCORE.SYSTEM.SOLV>
0

>  <SCORE.SYSTEM.norm>
0

>  <SCORE.heavy>
19

>  <SCORE.norm>
-0.907817

>  <RMSD>
0.686

$$$$
ligand
 OpenBabel11021811483D
libRbt.so/2013.1/901 2013/11/27
 19 21  0  0  0  0  0  0  0  0999 V2000
   -6.0764   -7.2714   12.7010 C   0  0  0  0  0  0  0  0  0  0  0  0
   -6.1089   -6.5737   13.9549 O   0  0  0  0  0  0  0  0  0  0  0  0
   -7.2395   -6.8251   11.8122 C   0  0  1  0  0  0  0  0  0  0  0  0
   -7.1947   -5.4025   11.5907 O   0  0  0  0  0  0  0  0  0  0  0  0
   -7.1731   -7.4926   10.4499 C   0  0  1  0  0  0  0  0  0  0  0  0
   -8.1400   -8.5448   10.3419 O   0  0  0  0  0  0  0  0  0  0  0  0
   -7.4628   -6.4013    9.4424 C   0  0  0  0  0  0  0  0  0  0  0  0
   -7.3099   -5.0878   10.1952 C   0  0  2  0  0  0  0  0  0  0  0  0
   -5.0133   -0.3888    9.7071 N   0  0  0  0  0  0  0  0  0  0  0  0
   -6.2401   -0.7112   10.1981 C   0  0  1  0  0  0  0  0  0  0  0  0
   -7.0501    0.2769   10.6470 N   0  0  0  0  0  0  0  0  0  0  0  0
   -6.6732   -2.0006   10.2443 N   0  0  0  0  0  0  0  0  0  0  0  0
   -5.9002   -3.0303    9.8042 C   0  0  2  0  0  0  0  0  0  0  0  0
   -4.6430   -2.7622    9.2936 C   0  0  1  0  0  0  0  0  0  0  0  0
   -4.1817   -1.3512    9.2506 C   0  0  0  0  0  0  0  0  0  0  0  0
   -3.0503   -1.0587    8.8030 O   0  0  0  0  0  0  0  0  0  0  0  0
   -4.0864   -3.9331    8.9378 N   0  0  0  0  0  0  0  0  0  0  0  0
   -4.9819   -4.9094    9.2154 C   0  0  0  0  0  0  0  0  0  0  0  0
   -6.0892   -4.3568    9.7436 N   0  0  1  0  0  0  0  0  0  0  0  0
  1  2  1  0  0  0  0
  3  1  1  1  0  0  0
  3  4  1  0  0  0  0
  3  5  1  0  0  0  0
  5  6  1  1  0  0  0
  5  7  1  0  0  0  0
  7  8  1  0  0  0  0
  8  4  1  1  0  0  0
  8 19  1  0  0  0  0
  9 15  1  0  0  0  0
  9 10  1  0  0  0  0
 10 11  1  6  0  0  0
 10 12  1  0  0  0  0
 13 12  1  6  0  0  0
 13 14  1  0  0  0  0
 13 19  1  0  0  0  0
 14 15  1  1  0  0  0
 14 17  1  0  0  0  0
 15 16  2  0  0  0  0
 17 18  1  0  0  0  0
 19 18  1  1  0  0  0
M  END
>  <CHROM.1>
57.72101730,-87.35815003,-6.05373033,-4.16812831,10.38337814,2.10793083,-0.90619106
-3.00045499

>  <Name>
ligand

>  <RI>
0

>  <Rbt.Current_Directory>
/home/itssahil/PROJECTS/Mol_Feturizer/New_Systems/rnas/3SKI

>  <Rbt.Executable>
rbdock ($Id: //depot/dev/client3/rdock/2013.1/src/exe/rbdock.cxx#4 $)

>  <Rbt.Library>
libRbt.so (2013.1, Build901 2013/11/27)

>  <Rbt.Parameter_File>
/export/apps/rDock/src/rDock_2013.1_src/data/scripts/dock_solv.prm

>  <Rbt.Receptor>
prm/pocket_docking_2.prm

>  <SCORE>
-17.3533

>  <SCORE.INTER>
-14.7584

>  <SCORE.INTER.CONST>
1

>  <SCORE.INTER.POLAR>
0

>  <SCORE.INTER.ROT>
2

>  <SCORE.INTER.SOLV>
18.1011

>  <SCORE.INTER.VDW>
-20.806

>  <SCORE.INTER.norm>
-0.776758

>  <SCORE.INTRA>
-2.59486

>  <SCORE.INTRA.DIHEDRAL>
-5.06618

>  <SCORE.INTRA.DIHEDRAL.0>
6.26853

>  <SCORE.INTRA.POLAR>
0

>  <SCORE.INTRA.POLAR.0>
0

>  <SCORE.INTRA.REPUL>
0

>  <SCORE.INTRA.REPUL.0>
0

>  <SCORE.INTRA.SOLV>
-0.216527

>  <SCORE.INTRA.SOLV.lig_0>
-38.4926

>  <SCORE.INTRA.VDW>
0.0465002

>  <SCORE.INTRA.VDW.0>
-0.59057

>  <SCORE.INTRA.norm>
-0.136571

>  <SCORE.RESTR>
0

>  <SCORE.RESTR.CAVITY>
0

>  <SCORE.RESTR.norm>
0

>  <SCORE.SYSTEM>
0

>  <SCORE.SYSTEM.CONST>
0

>  <SCORE.SYSTEM.DIHEDRAL>
0

>  <SCORE.SYSTEM.SOLV>
0

>  <SCORE.SYSTEM.norm>
0

>  <SCORE.heavy>
19

>  <SCORE.norm>
-0.91333

>  <RMSD>
0.688

$$$$
ligand
 OpenBabel11021811483D
libRbt.so/2013.1/901 2013/11/27
 19 21  0  0  0  0  0  0  0  0999 V2000
   -6.5624   -7.2227   12.6873 C   0  0  0  0  0  0  0  0  0  0  0  0
   -5.2303   -6.8891   12.2699 O   0  0  0  0  0  0  0  0  0  0  0  0
   -7.5707   -6.8559   11.5961 C   0  0  1  0  0  0  0  0  0  0  0  0
   -7.5089   -5.4480   11.2977 O   0  0  0  0  0  0  0  0  0  0  0  0
   -7.2743   -7.6003   10.3062 C   0  0  1  0  0  0  0  0  0  0  0  0
   -8.1968   -8.6789   10.1079 O   0  0  0  0  0  0  0  0  0  0  0  0
   -7.4100   -6.5768    9.1999 C   0  0  0  0  0  0  0  0  0  0  0  0
   -7.3990   -5.2183    9.8854 C   0  0  2  0  0  0  0  0  0  0  0  0
   -5.0207   -0.5351    9.8213 N   0  0  0  0  0  0  0  0  0  0  0  0
   -6.2957   -0.8592   10.1671 C   0  0  1  0  0  0  0  0  0  0  0  0
   -7.1396    0.1223   10.5650 N   0  0  0  0  0  0  0  0  0  0  0  0
   -6.7430   -2.1436   10.1185 N   0  0  0  0  0  0  0  0  0  0  0  0
   -5.9371   -3.1665    9.7239 C   0  0  2  0  0  0  0  0  0  0  0  0
   -4.6303   -2.8964    9.3597 C   0  0  1  0  0  0  0  0  0  0  0  0
   -4.1542   -1.4909    9.4191 C   0  0  0  0  0  0  0  0  0  0  0  0
   -2.9790   -1.1970    9.1052 O   0  0  0  0  0  0  0  0  0  0  0  0
   -4.0498   -4.0606    9.0207 N   0  0  0  0  0  0  0  0  0  0  0  0
   -4.9786   -5.0346    9.1648 C   0  0  0  0  0  0  0  0  0  0  0  0
   -6.1306   -4.4873    9.5934 N   0  0  1  0  0  0  0  0  0  0  0  0
  1  2  1  0  0  0  0
  3  1  1  1  0  0  0
  3  4  1  0  0  0  0
  3  5  1  0  0  0  0
  5  6  1  6  0  0  0
  5  7  1  0  0  0  0
  7  8  1  0  0  0  0
  8  4  1  1  0  0  0
  8 19  1  0  0  0  0
  9 15  1  0  0  0  0
  9 10  1  0  0  0  0
 10 11  1  6  0  0  0
 10 12  1  0  0  0  0
 13 12  1  6  0  0  0
 13 14  1  0  0  0  0
 13 19  1  0  0  0  0
 14 15  1  1  0  0  0
 14 17  1  0  0  0  0
 15 16  2  0  0  0  0
 17 18  1  0  0  0  0
 19 18  1  1  0  0  0
M  END
>  <CHROM.1>
-59.08374757,-80.66429549,-6.07899400,-4.29620366,10.21395548,1.93103330
-0.34222648,3.06435697

>  <Name>
ligand

>  <RI>
0

>  <Rbt.Current_Directory>
/home/itssahil/PROJECTS/Mol_Feturizer/New_Systems/rnas/3SKI

>  <Rbt.Executable>
rbdock ($Id: //depot/dev/client3/rdock/2013.1/src/exe/rbdock.cxx#4 $)

>  <Rbt.Library>
libRbt.so (2013.1, Build901 2013/11/27)

>  <Rbt.Parameter_File>
/export/apps/rDock/src/rDock_2013.1_src/data/scripts/dock_solv.prm

>  <Rbt.Receptor>
prm/pocket_docking_4.prm

>  <SCORE>
-17.3882

>  <SCORE.INTER>
-14.8987

>  <SCORE.INTER.CONST>
1

>  <SCORE.INTER.POLAR>
0

>  <SCORE.INTER.ROT>
2

>  <SCORE.INTER.SOLV>
17.6316

>  <SCORE.INTER.VDW>
-20.743

>  <SCORE.INTER.norm>
-0.784143

>  <SCORE.INTRA>
-2.48952

>  <SCORE.INTRA.DIHEDRAL>
-5.07885

>  <SCORE.INTRA.DIHEDRAL.0>
6.26853

>  <SCORE.INTRA.POLAR>
0

>  <SCORE.INTRA.POLAR.0>
0

>  <SCORE.INTRA.REPUL>
0

>  <SCORE.INTRA.REPUL.0>
0

>  <SCORE.INTRA.SOLV>
0.247029

>  <SCORE.INTRA.SOLV.lig_0>
-38.4926

>  <SCORE.INTRA.VDW>
-0.0736066

>  <SCORE.INTRA.VDW.0>
-0.59057

>  <SCORE.INTRA.norm>
-0.131027

>  <SCORE.RESTR>
0

>  <SCORE.RESTR.CAVITY>
0

>  <SCORE.RESTR.norm>
0

>  <SCORE.SYSTEM>
0

>  <SCORE.SYSTEM.CONST>
0

>  <SCORE.SYSTEM.DIHEDRAL>
0

>  <SCORE.SYSTEM.SOLV>
0

>  <SCORE.SYSTEM.norm>
0

>  <SCORE.heavy>
19

>  <SCORE.norm>
-0.91517

>  <RMSD>
0.688

$$$$
ligand
 OpenBabel11021811483D
libRbt.so/2013.1/901 2013/11/27
 19 21  0  0  0  0  0  0  0  0999 V2000
   -7.5170   -7.3725   11.7789 C   0  0  0  0  0  0  0  0  0  0  0  0
   -6.2155   -7.1941   11.2005 O   0  0  0  0  0  0  0  0  0  0  0  0
   -8.5103   -6.3783   11.1733 C   0  0  1  0  0  0  0  0  0  0  0  0
   -8.0498   -5.0252   11.3519 O   0  0  0  0  0  0  0  0  0  0  0  0
   -8.6674   -6.6043    9.6799 C   0  0  1  0  0  0  0  0  0  0  0  0
   -9.9042   -7.2649    9.3841 O   0  0  0  0  0  0  0  0  0  0  0  0
   -8.6376   -5.2286    9.0502 C   0  0  0  0  0  0  0  0  0  0  0  0
   -8.0899   -4.2932   10.1182 C   0  0  2  0  0  0  0  0  0  0  0  0
   -4.8618   -0.1615    9.7989 N   0  0  0  0  0  0  0  0  0  0  0  0
   -6.1633   -0.2211   10.1898 C   0  0  1  0  0  0  0  0  0  0  0  0
   -6.7901    0.9184   10.5674 N   0  0  0  0  0  0  0  0  0  0  0  0
   -6.8497   -1.3962   10.2061 N   0  0  0  0  0  0  0  0  0  0  0  0
   -6.2680   -2.5688    9.8345 C   0  0  2  0  0  0  0  0  0  0  0  0
   -4.9463   -2.5689    9.4266 C   0  0  1  0  0  0  0  0  0  0  0  0
   -4.2081   -1.2803    9.4154 C   0  0  0  0  0  0  0  0  0  0  0  0
   -3.0092   -1.2300    9.0600 O   0  0  0  0  0  0  0  0  0  0  0  0
   -4.6110   -3.8347    9.1221 N   0  0  0  0  0  0  0  0  0  0  0  0
   -5.7040   -4.6056    9.3301 C   0  0  0  0  0  0  0  0  0  0  0  0
   -6.7152   -3.8314    9.7642 N   0  0  1  0  0  0  0  0  0  0  0  0
  1  2  1  0  0  0  0
  3  1  1  6  0  0  0
  3  4  1  0  0  0  0
  3  5  1  0  0  0  0
  5  6  1  1  0  0  0
  5  7  1  0  0  0  0
  7  8  1  0  0  0  0
  8  4  1  1  0  0  0
  8 19  1  0  0  0  0
  9 15  1  0  0  0  0
  9 10  1  0  0  0  0
 10 11  1  6  0  0  0
 10 12  1  0  0  0  0
 13 12  1  6  0  0  0
 13 14  1  0  0  0  0
 13 19  1  0  0  0  0
 14 15  1  1  0  0  0
 14 17  1  0  0  0  0
 15 16  2  0  0  0  0
 17 18  1  0  0  0  0
 19 18  1  1  0  0  0
M  END
>  <CHROM.1>
-56.81515977,-107.45479549,-6.64620443,-3.76908356,10.04201546,-2.08527561
0.14621015,-0.03947690

>  <Name>
ligand

>  <RI>
0

>  <Rbt.Current_Directory>
/home/itssahil/PROJECTS/Mol_Feturizer/New_Systems/rnas/3SKI

>  <Rbt.Executable>
rbdock ($Id: //depot/dev/client3/rdock/2013.1/src/exe/rbdock.cxx#4 $)

>  <Rbt.Library>
libRbt.so (2013.1, Build901 2013/11/27)

>  <Rbt.Parameter_File>
/export/apps/rDock/src/rDock_2013.1_src/data/scripts/dock_solv.prm

>  <Rbt.Receptor>
prm/pocket_docking_7.prm

>  <SCORE>
-17.0506

>  <SCORE.INTER>
-14.1068

>  <SCORE.INTER.CONST>
1

>  <SCORE.INTER.POLAR>
0

>  <SCORE.INTER.ROT>
2

>  <SCORE.INTER.SOLV>
18.0002

>  <SCORE.INTER.VDW>
-20.338

>  <SCORE.INTER.norm>
-0.742466

>  <SCORE.INTRA>
-2.94373

>  <SCORE.INTRA.DIHEDRAL>
-5.03906

>  <SCORE.INTRA.DIHEDRAL.0>
6.26853

>  <SCORE.INTRA.POLAR>
0

>  <SCORE.INTRA.POLAR.0>
0

>  <SCORE.INTRA.REPUL>
0

>  <SCORE.INTRA.REPUL.0>
0

>  <SCORE.INTRA.SOLV>
0.272207

>  <SCORE.INTRA.SOLV.lig_0>
-38.4926

>  <SCORE.INTRA.VDW>
-0.560307

>  <SCORE.INTRA.VDW.0>
-0.59057

>  <SCORE.INTRA.norm>
-0.154933

>  <SCORE.RESTR>
0

>  <SCORE.RESTR.CAVITY>
0

>  <SCORE.RESTR.norm>
0

>  <SCORE.SYSTEM>
0

>  <SCORE.SYSTEM.CONST>
0

>  <SCORE.SYSTEM.DIHEDRAL>
0

>  <SCORE.SYSTEM.SOLV>
0

>  <SCORE.SYSTEM.norm>
0

>  <SCORE.heavy>
19

>  <SCORE.norm>
-0.897399

>  <RMSD>
0.689

$$$$
ligand
 OpenBabel11021811483D
libRbt.so/2013.1/901 2013/11/27
 19 21  0  0  0  0  0  0  0  0999 V2000
   -6.4896   -7.1320   12.7370 C   0  0  0  0  0  0  0  0  0  0  0  0
   -6.6692   -8.5216   13.0487 O   0  0  0  0  0  0  0  0  0  0  0  0
   -7.5623   -6.6638   11.7512 C   0  0  1  0  0  0  0  0  0  0  0  0
   -7.4503   -5.2479   11.5110 O   0  0  0  0  0  0  0  0  0  0  0  0
   -7.4117   -7.3587   10.4094 C   0  0  1  0  0  0  0  0  0  0  0  0
   -8.4032   -8.3796   10.2416 O   0  0  0  0  0  0  0  0  0  0  0  0
   -7.5822   -6.2774    9.3646 C   0  0  0  0  0  0  0  0  0  0  0  0
   -7.4435   -4.9558   10.1059 C   0  0  2  0  0  0  0  0  0  0  0  0
   -4.9584   -0.3450    9.7094 N   0  0  0  0  0  0  0  0  0  0  0  0
   -6.2315   -0.6165   10.1038 C   0  0  1  0  0  0  0  0  0  0  0  0
   -7.0420    0.4073   10.4629 N   0  0  0  0  0  0  0  0  0  0  0  0
   -6.7099   -1.8901   10.1416 N   0  0  0  0  0  0  0  0  0  0  0  0
   -5.9384   -2.9540    9.7891 C   0  0  2  0  0  0  0  0  0  0  0  0
   -4.6352   -2.7382    9.3788 C   0  0  1  0  0  0  0  0  0  0  0  0
   -4.1249   -1.3439    9.3439 C   0  0  0  0  0  0  0  0  0  0  0  0
   -2.9514   -1.0983    8.9854 O   0  0  0  0  0  0  0  0  0  0  0  0
   -4.0908   -3.9343    9.0954 N   0  0  0  0  0  0  0  0  0  0  0  0
   -5.0383   -4.8749    9.3187 C   0  0  0  0  0  0  0  0  0  0  0  0
   -6.1661   -4.2749    9.7414 N   0  0  1  0  0  0  0  0  0  0  0  0
  1  2  1  0  0  0  0
  3  1  1  1  0  0  0
  3  4  1  0  0  0  0
  3  5  1  0  0  0  0
  5  6  1  6  0  0  0
  5  7  1  0  0  0  0
  7  8  1  0  0  0  0
  8  4  1  1  0  0  0
  8 19  1  0  0  0  0
  9 15  1  0  0  0  0
  9 10  1  0  0  0  0
 10 11  1  6  0  0  0
 10 12  1  0  0  0  0
 13 12  1  6  0  0  0
 13 14  1  0  0  0  0
 13 19  1  0  0  0  0
 14 15  1  1  0  0  0
 14 17  1  0  0  0  0
 15 16  2  0  0  0  0
 17 18  1  0  0  0  0
 19 18  1  1  0  0  0
M  END
>  <CHROM.1>
175.68316006,-87.71688419,-6.18095854,-4.20438269,10.31725948,-1.94941057
0.42486227,-0.10963992

>  <Name>
ligand

>  <RI>
0

>  <Rbt.Current_Directory>
/home/itssahil/PROJECTS/Mol_Feturizer/New_Systems/rnas/3SKI

>  <Rbt.Executable>
rbdock ($Id: //depot/dev/client3/rdock/2013.1/src/exe/rbdock.cxx#4 $)

>  <Rbt.Library>
libRbt.so (2013.1, Build901 2013/11/27)

>  <Rbt.Parameter_File>
/export/apps/rDock/src/rDock_2013.1_src/data/scripts/dock_solv.prm

>  <Rbt.Receptor>
prm/pocket_docking_2.prm

>  <SCORE>
-17.3189

>  <SCORE.INTER>
-14.8408

>  <SCORE.INTER.CONST>
1

>  <SCORE.INTER.POLAR>
0

>  <SCORE.INTER.ROT>
2

>  <SCORE.INTER.SOLV>
17.9686

>  <SCORE.INTER.VDW>
-20.8167

>  <SCORE.INTER.norm>
-0.781094

>  <SCORE.INTRA>
-2.47809

>  <SCORE.INTRA.DIHEDRAL>
-5.01862

>  <SCORE.INTRA.DIHEDRAL.0>
6.26853

>  <SCORE.INTRA.POLAR>
0

>  <SCORE.INTRA.POLAR.0>
0

>  <SCORE.INTRA.REPUL>
0

>  <SCORE.INTRA.REPUL.0>
0

>  <SCORE.INTRA.SOLV>
-0.0211366

>  <SCORE.INTRA.SOLV.lig_0>
-38.4926

>  <SCORE.INTRA.VDW>
0.0417881

>  <SCORE.INTRA.VDW.0>
-0.59057

>  <SCORE.INTRA.norm>
-0.130426

>  <SCORE.RESTR>
0

>  <SCORE.RESTR.CAVITY>
0

>  <SCORE.RESTR.norm>
0

>  <SCORE.SYSTEM>
0

>  <SCORE.SYSTEM.CONST>
0

>  <SCORE.SYSTEM.DIHEDRAL>
0

>  <SCORE.SYSTEM.SOLV>
0

>  <SCORE.SYSTEM.norm>
0

>  <SCORE.heavy>
19

>  <SCORE.norm>
-0.91152

>  <RMSD>
0.695

$$$$
ligand
 OpenBabel11021811483D
libRbt.so/2013.1/901 2013/11/27
 19 21  0  0  0  0  0  0  0  0999 V2000
   -6.4554   -7.0719   12.7764 C   0  0  0  0  0  0  0  0  0  0  0  0
   -6.6163   -8.4592   13.1078 O   0  0  0  0  0  0  0  0  0  0  0  0
   -7.5373   -6.6310   11.7879 C   0  0  1  0  0  0  0  0  0  0  0  0
   -7.4416   -5.2180   11.5249 O   0  0  0  0  0  0  0  0  0  0  0  0
   -7.3847   -7.3455   10.4567 C   0  0  1  0  0  0  0  0  0  0  0  0
   -8.3658   -8.3796   10.3094 O   0  0  0  0  0  0  0  0  0  0  0  0
   -7.5714   -6.2829    9.3956 C   0  0  0  0  0  0  0  0  0  0  0  0
   -7.4439   -4.9483   10.1153 C   0  0  2  0  0  0  0  0  0  0  0  0
   -4.9896   -0.3230    9.6956 N   0  0  0  0  0  0  0  0  0  0  0  0
   -6.2555   -0.6025   10.1074 C   0  0  1  0  0  0  0  0  0  0  0  0
   -7.0663    0.4160   10.4806 N   0  0  0  0  0  0  0  0  0  0  0  0
   -6.7264   -1.8786   10.1486 N   0  0  0  0  0  0  0  0  0  0  0  0
   -5.9542   -2.9375    9.7824 C   0  0  2  0  0  0  0  0  0  0  0  0
   -4.6582   -2.7136    9.3542 C   0  0  1  0  0  0  0  0  0  0  0  0
   -4.1560   -1.3164    9.3157 C   0  0  0  0  0  0  0  0  0  0  0  0
   -2.9890   -1.0635    8.9413 O   0  0  0  0  0  0  0  0  0  0  0  0
   -4.1115   -3.9060    9.0600 N   0  0  0  0  0  0  0  0  0  0  0  0
   -5.0506   -4.8522    9.2943 C   0  0  0  0  0  0  0  0  0  0  0  0
   -6.1754   -4.2595    9.7345 N   0  0  1  0  0  0  0  0  0  0  0  0
  1  2  1  0  0  0  0
  3  1  1  1  0  0  0
  3  4  1  0  0  0  0
  3  5  1  0  0  0  0
  5  6  1  6  0  0  0
  5  7  1  0  0  0  0
  7  8  1  0  0  0  0
  8  4  1  1  0  0  0
  8 19  1  0  0  0  0
  9 15  1  0  0  0  0
  9 10  1  0  0  0  0
 10 11  1  6  0  0  0
 10 12  1  0  0  0  0
 13 12  1  6  0  0  0
 13 14  1  0  0  0  0
 13 19  1  0  0  0  0
 14 15  1  1  0  0  0
 14 17  1  0  0  0  0
 15 16  2  0  0  0  0
 17 18  1  0  0  0  0
 19 18  1  1  0  0  0
M  END
>  <CHROM.1>
175.85161851,-86.47616359,-6.18255770,-4.18153734,10.32622617,-1.94709743
0.45937839,-0.10783349

>  <Name>
ligand

>  <RI>
0

>  <Rbt.Current_Directory>
/home/itssahil/PROJECTS/Mol_Feturizer/New_Systems/rnas/3SKI

>  <Rbt.Executable>
rbdock ($Id: //depot/dev/client3/rdock/2013.1/src/exe/rbdock.cxx#4 $)

>  <Rbt.Library>
libRbt.so (2013.1, Build901 2013/11/27)

>  <Rbt.Parameter_File>
/export/apps/rDock/src/rDock_2013.1_src/data/scripts/dock_solv.prm

>  <Rbt.Receptor>
prm/pocket_docking_3.prm

>  <SCORE>
-17.4107

>  <SCORE.INTER>
-14.9541

>  <SCORE.INTER.CONST>
1

>  <SCORE.INTER.POLAR>
0

>  <SCORE.INTER.ROT>
2

>  <SCORE.INTER.SOLV>
18.1101

>  <SCORE.INTER.VDW>
-20.9394

>  <SCORE.INTER.norm>
-0.787058

>  <SCORE.INTRA>
-2.45661

>  <SCORE.INTRA.DIHEDRAL>
-5.02351

>  <SCORE.INTRA.DIHEDRAL.0>
6.26853

>  <SCORE.INTRA.POLAR>
0

>  <SCORE.INTRA.POLAR.0>
0

>  <SCORE.INTRA.REPUL>
0

>  <SCORE.INTRA.REPUL.0>
0

>  <SCORE.INTRA.SOLV>
-0.0193894

>  <SCORE.INTRA.SOLV.lig_0>
-38.4926

>  <SCORE.INTRA.VDW>
0.0648397

>  <SCORE.INTRA.VDW.0>
-0.59057

>  <SCORE.INTRA.norm>
-0.129295

>  <SCORE.RESTR>
0

>  <SCORE.RESTR.CAVITY>
0

>  <SCORE.RESTR.norm>
0

>  <SCORE.SYSTEM>
0

>  <SCORE.SYSTEM.CONST>
0

>  <SCORE.SYSTEM.DIHEDRAL>
0

>  <SCORE.SYSTEM.SOLV>
0

>  <SCORE.SYSTEM.norm>
0

>  <SCORE.heavy>
19

>  <SCORE.norm>
-0.916353

>  <RMSD>
0.697

$$$$
ligand
 OpenBabel11021811483D
libRbt.so/2013.1/901 2013/11/27
 19 21  0  0  0  0  0  0  0  0999 V2000
   -6.4810   -7.0074   12.8143 C   0  0  0  0  0  0  0  0  0  0  0  0
   -6.5955   -8.4050   13.1207 O   0  0  0  0  0  0  0  0  0  0  0  0
   -7.5385   -6.5985   11.7866 C   0  0  1  0  0  0  0  0  0  0  0  0
   -7.4448   -5.1917   11.4914 O   0  0  0  0  0  0  0  0  0  0  0  0
   -7.3456   -7.3443   10.4780 C   0  0  1  0  0  0  0  0  0  0  0  0
   -8.3157   -8.3886   10.3301 O   0  0  0  0  0  0  0  0  0  0  0  0
   -7.5103   -6.3094    9.3863 C   0  0  0  0  0  0  0  0  0  0  0  0
   -7.4108   -4.9567   10.0760 C   0  0  2  0  0  0  0  0  0  0  0  0
   -4.8973   -0.3504    9.8361 N   0  0  0  0  0  0  0  0  0  0  0  0
   -6.1626   -0.6311   10.2488 C   0  0  1  0  0  0  0  0  0  0  0  0
   -6.9554    0.3804   10.6758 N   0  0  0  0  0  0  0  0  0  0  0  0
   -6.6507   -1.9014   10.2382 N   0  0  0  0  0  0  0  0  0  0  0  0
   -5.8970   -2.9530    9.8169 C   0  0  2  0  0  0  0  0  0  0  0  0
   -4.6025   -2.7275    9.3850 C   0  0  1  0  0  0  0  0  0  0  0  0
   -4.0814   -1.3369    9.4033 C   0  0  0  0  0  0  0  0  0  0  0  0
   -2.9150   -1.0831    9.0278 O   0  0  0  0  0  0  0  0  0  0  0  0
   -4.0753   -3.9128    9.0320 N   0  0  0  0  0  0  0  0  0  0  0  0
   -5.0249   -4.8560    9.2341 C   0  0  0  0  0  0  0  0  0  0  0  0
   -6.1369   -4.2686    9.7125 N   0  0  1  0  0  0  0  0  0  0  0  0
  1  2  1  0  0  0  0
  3  1  1  1  0  0  0
  3  4  1  0  0  0  0
  3  5  1  0  0  0  0
  5  6  1  6  0  0  0
  5  7  1  0  0  0  0
  7  8  1  0  0  0  0
  8  4  1  1  0  0  0
  8 19  1  0  0  0  0
  9 15  1  0  0  0  0
  9 10  1  0  0  0  0
 10 11  1  6  0  0  0
 10 12  1  0  0  0  0
 13 12  1  6  0  0  0
 13 14  1  0  0  0  0
 13 19  1  0  0  0  0
 14 15  1  1  0  0  0
 14 17  1  0  0  0  0
 15 16  2  0  0  0  0
 17 18  1  0  0  0  0
 19 18  1  1  0  0  0
M  END
>  <CHROM.1>
178.99911634,-81.81635556,-6.13539793,-4.18429645,10.36301532,1.98252599
-0.54206324,3.09569311

>  <Name>
ligand

>  <RI>
0

>  <Rbt.Current_Directory>
/home/itssahil/PROJECTS/Mol_Feturizer/New_Systems/rnas/3SKI

>  <Rbt.Executable>
rbdock ($Id: //depot/dev/client3/rdock/2013.1/src/exe/rbdock.cxx#4 $)

>  <Rbt.Library>
libRbt.so (2013.1, Build901 2013/11/27)

>  <Rbt.Parameter_File>
/export/apps/rDock/src/rDock_2013.1_src/data/scripts/dock_solv.prm

>  <Rbt.Receptor>
prm/pocket_docking_4.prm

>  <SCORE>
-17.2759

>  <SCORE.INTER>
-14.8866

>  <SCORE.INTER.CONST>
1

>  <SCORE.INTER.POLAR>
0

>  <SCORE.INTER.ROT>
2

>  <SCORE.INTER.SOLV>
17.6959

>  <SCORE.INTER.VDW>
-20.7564

>  <SCORE.INTER.norm>
-0.783507

>  <SCORE.INTRA>
-2.38928

>  <SCORE.INTRA.DIHEDRAL>
-5.07943

>  <SCORE.INTRA.DIHEDRAL.0>
6.26853

>  <SCORE.INTRA.POLAR>
0

>  <SCORE.INTRA.POLAR.0>
0

>  <SCORE.INTRA.REPUL>
0

>  <SCORE.INTRA.REPUL.0>
0

>  <SCORE.INTRA.SOLV>
-0.000319439

>  <SCORE.INTRA.SOLV.lig_0>
-38.4926

>  <SCORE.INTRA.VDW>
0.1506

>  <SCORE.INTRA.VDW.0>
-0.59057

>  <SCORE.INTRA.norm>
-0.125751

>  <SCORE.RESTR>
0

>  <SCORE.RESTR.CAVITY>
0

>  <SCORE.RESTR.norm>
0

>  <SCORE.SYSTEM>
0

>  <SCORE.SYSTEM.CONST>
0

>  <SCORE.SYSTEM.DIHEDRAL>
0

>  <SCORE.SYSTEM.SOLV>
0

>  <SCORE.SYSTEM.norm>
0

>  <SCORE.heavy>
19

>  <SCORE.norm>
-0.909259

>  <RMSD>
0.699

$$$$
ligand
 OpenBabel11021811483D
libRbt.so/2013.1/901 2013/11/27
 19 21  0  0  0  0  0  0  0  0999 V2000
   -6.4265   -7.0403   12.7993 C   0  0  0  0  0  0  0  0  0  0  0  0
   -6.5700   -8.4295   13.1307 O   0  0  0  0  0  0  0  0  0  0  0  0
   -7.5105   -6.6143   11.8066 C   0  0  1  0  0  0  0  0  0  0  0  0
   -7.4239   -5.2028   11.5323 O   0  0  0  0  0  0  0  0  0  0  0  0
   -7.3523   -7.3384   10.4812 C   0  0  1  0  0  0  0  0  0  0  0  0
   -8.3265   -8.3801   10.3415 O   0  0  0  0  0  0  0  0  0  0  0  0
   -7.5451   -6.2855    9.4115 C   0  0  0  0  0  0  0  0  0  0  0  0
   -7.4269   -4.9444   10.1207 C   0  0  2  0  0  0  0  0  0  0  0  0
   -4.9904   -0.3098    9.6998 N   0  0  0  0  0  0  0  0  0  0  0  0
   -6.2533   -0.5946   10.1171 C   0  0  1  0  0  0  0  0  0  0  0  0
   -7.0657    0.4203   10.4967 N   0  0  0  0  0  0  0  0  0  0  0  0
   -6.7196   -1.8724   10.1576 N   0  0  0  0  0  0  0  0  0  0  0  0
   -5.9457   -2.9278    9.7852 C   0  0  2  0  0  0  0  0  0  0  0  0
   -4.6526   -2.6985    9.3511 C   0  0  1  0  0  0  0  0  0  0  0  0
   -4.1553   -1.2996    9.3135 C   0  0  0  0  0  0  0  0  0  0  0  0
   -2.9910   -1.0418    8.9339 O   0  0  0  0  0  0  0  0  0  0  0  0
   -4.1033   -3.8883    9.0514 N   0  0  0  0  0  0  0  0  0  0  0  0
   -5.0380   -4.8383    9.2881 C   0  0  0  0  0  0  0  0  0  0  0  0
   -6.1627   -4.2505    9.7352 N   0  0  1  0  0  0  0  0  0  0  0  0
  1  2  1  0  0  0  0
  3  1  1  1  0  0  0
  3  4  1  0  0  0  0
  3  5  1  0  0  0  0
  5  6  1  6  0  0  0
  5  7  1  0  0  0  0
  7  8  1  0  0  0  0
  8  4  1  1  0  0  0
  8 19  1  0  0  0  0
  9 15  1  0  0  0  0
  9 10  1  0  0  0  0
 10 11  1  6  0  0  0
 10 12  1  0  0  0  0
 13 12  1  6  0  0  0
 13 14  1  0  0  0  0
 13 19  1  0  0  0  0
 14 15  1  1  0  0  0
 14 17  1  0  0  0  0
 15 16  2  0  0  0  0
 17 18  1  0  0  0  0
 19 18  1  1  0  0  0
M  END
>  <CHROM.1>
176.46461814,-85.77948170,-6.16675689,-4.16894175,10.33530302,-1.94525610
0.47397782,-0.10649777

>  <Name>
ligand

>  <RI>
0

>  <Rbt.Current_Directory>
/home/itssahil/PROJECTS/Mol_Feturizer/New_Systems/rnas/3SKI

>  <Rbt.Executable>
rbdock ($Id: //depot/dev/client3/rdock/2013.1/src/exe/rbdock.cxx#4 $)

>  <Rbt.Library>
libRbt.so (2013.1, Build901 2013/11/27)

>  <Rbt.Parameter_File>
/export/apps/rDock/src/rDock_2013.1_src/data/scripts/dock_solv.prm

>  <Rbt.Receptor>
prm/pocket_docking_2.prm

>  <SCORE>
-17.4089

>  <SCORE.INTER>
-14.9622

>  <SCORE.INTER.CONST>
1

>  <SCORE.INTER.POLAR>
0

>  <SCORE.INTER.ROT>
2

>  <SCORE.INTER.SOLV>
18.1106

>  <SCORE.INTER.VDW>
-20.945

>  <SCORE.INTER.norm>
-0.787485

>  <SCORE.INTRA>
-2.44667

>  <SCORE.INTRA.DIHEDRAL>
-5.04008

>  <SCORE.INTRA.DIHEDRAL.0>
6.26853

>  <SCORE.INTRA.POLAR>
0

>  <SCORE.INTRA.POLAR.0>
0

>  <SCORE.INTRA.REPUL>
0

>  <SCORE.INTRA.REPUL.0>
0

>  <SCORE.INTRA.SOLV>
-0.0158003

>  <SCORE.INTRA.SOLV.lig_0>
-38.4926

>  <SCORE.INTRA.VDW>
0.081264

>  <SCORE.INTRA.VDW.0>
-0.59057

>  <SCORE.INTRA.norm>
-0.128772

>  <SCORE.RESTR>
0

>  <SCORE.RESTR.CAVITY>
0

>  <SCORE.RESTR.norm>
0

>  <SCORE.SYSTEM>
0

>  <SCORE.SYSTEM.CONST>
0

>  <SCORE.SYSTEM.DIHEDRAL>
0

>  <SCORE.SYSTEM.SOLV>
0

>  <SCORE.SYSTEM.norm>
0

>  <SCORE.heavy>
19

>  <SCORE.norm>
-0.916258

>  <RMSD>
0.700

$$$$
ligand
 OpenBabel11021811483D
libRbt.so/2013.1/901 2013/11/27
 19 21  0  0  0  0  0  0  0  0999 V2000
   -5.8914   -6.9768   12.8746 C   0  0  0  0  0  0  0  0  0  0  0  0
   -5.8267   -6.3997   14.1873 O   0  0  0  0  0  0  0  0  0  0  0  0
   -7.1124   -6.4475   12.1190 C   0  0  1  0  0  0  0  0  0  0  0  0
   -7.0071   -5.0257   11.9131 O   0  0  0  0  0  0  0  0  0  0  0  0
   -7.2277   -7.0911   10.7485 C   0  0  1  0  0  0  0  0  0  0  0  0
   -8.2608   -8.0839   10.7286 O   0  0  0  0  0  0  0  0  0  0  0  0
   -7.5559   -5.9655    9.7917 C   0  0  0  0  0  0  0  0  0  0  0  0
   -7.2482   -4.6778   10.5418 C   0  0  2  0  0  0  0  0  0  0  0  0
   -4.8297   -0.0885    9.7161 N   0  0  0  0  0  0  0  0  0  0  0  0
   -6.0262   -0.3476   10.3089 C   0  0  1  0  0  0  0  0  0  0  0  0
   -6.7639    0.6849   10.7819 N   0  0  0  0  0  0  0  0  0  0  0  0
   -6.5001   -1.6173   10.4333 N   0  0  0  0  0  0  0  0  0  0  0  0
   -5.8001   -2.6896    9.9733 C   0  0  2  0  0  0  0  0  0  0  0  0
   -4.5768   -2.4866    9.3606 C   0  0  1  0  0  0  0  0  0  0  0  0
   -4.0702   -1.0964    9.2330 C   0  0  0  0  0  0  0  0  0  0  0  0
   -2.9664   -0.8622    8.6917 O   0  0  0  0  0  0  0  0  0  0  0  0
   -4.0910   -3.6889    9.0059 N   0  0  0  0  0  0  0  0  0  0  0  0
   -4.9969   -4.6207    9.3844 C   0  0  0  0  0  0  0  0  0  0  0  0
   -6.0403   -4.0092    9.9742 N   0  0  1  0  0  0  0  0  0  0  0  0
  1  2  1  0  0  0  0
  3  1  1  6  0  0  0
  3  4  1  0  0  0  0
  3  5  1  0  0  0  0
  5  6  1  1  0  0  0
  5  7  1  0  0  0  0
  7  8  1  0  0  0  0
  8  4  1  1  0  0  0
  8 19  1  0  0  0  0
  9 15  1  0  0  0  0
  9 10  1  0  0  0  0
 10 11  1  6  0  0  0
 10 12  1  0  0  0  0
 13 12  1  6  0  0  0
 13 14  1  0  0  0  0
 13 19  1  0  0  0  0
 14 15  1  1  0  0  0
 14 17  1  0  0  0  0
 15 16  2  0  0  0  0
 17 18  1  0  0  0  0
 19 18  1  1  0  0  0
M  END
>  <CHROM.1>
63.40126633,-90.91829855,-5.95681745,-3.83531104,10.56652575,2.12987948,-0.91640379
-3.02566910

>  <Name>
ligand

>  <RI>
0

>  <Rbt.Current_Directory>
/home/itssahil/PROJECTS/Mol_Feturizer/New_Systems/rnas/3SKI

>  <Rbt.Executable>
rbdock ($Id: //depot/dev/client3/rdock/2013.1/src/exe/rbdock.cxx#4 $)

>  <Rbt.Library>
libRbt.so (2013.1, Build901 2013/11/27)

>  <Rbt.Parameter_File>
/export/apps/rDock/src/rDock_2013.1_src/data/scripts/dock_solv.prm

>  <Rbt.Receptor>
prm/pocket_docking_4.prm

>  <SCORE>
-17.4917

>  <SCORE.INTER>
-14.804

>  <SCORE.INTER.CONST>
1

>  <SCORE.INTER.POLAR>
0

>  <SCORE.INTER.ROT>
2

>  <SCORE.INTER.SOLV>
18.8812

>  <SCORE.INTER.VDW>
-21.0964

>  <SCORE.INTER.norm>
-0.779156

>  <SCORE.INTRA>
-2.6877

>  <SCORE.INTRA.DIHEDRAL>
-5.04131

>  <SCORE.INTRA.DIHEDRAL.0>
6.26853

>  <SCORE.INTRA.POLAR>
0

>  <SCORE.INTRA.POLAR.0>
0

>  <SCORE.INTRA.REPUL>
0

>  <SCORE.INTRA.REPUL.0>
0

>  <SCORE.INTRA.SOLV>
-0.24039

>  <SCORE.INTRA.SOLV.lig_0>
-38.4926

>  <SCORE.INTRA.VDW>
-0.0468456

>  <SCORE.INTRA.VDW.0>
-0.59057

>  <SCORE.INTRA.norm>
-0.141458

>  <SCORE.RESTR>
0

>  <SCORE.RESTR.CAVITY>
0

>  <SCORE.RESTR.norm>
0

>  <SCORE.SYSTEM>
0

>  <SCORE.SYSTEM.CONST>
0

>  <SCORE.SYSTEM.DIHEDRAL>
0

>  <SCORE.SYSTEM.SOLV>
0

>  <SCORE.SYSTEM.norm>
0

>  <SCORE.heavy>
19

>  <SCORE.norm>
-0.920614

>  <RMSD>
0.700

$$$$
ligand
 OpenBabel11021811483D
libRbt.so/2013.1/901 2013/11/27
 19 21  0  0  0  0  0  0  0  0999 V2000
   -6.6138   -7.2088   12.6993 C   0  0  0  0  0  0  0  0  0  0  0  0
   -5.2740   -6.8763   12.3062 O   0  0  0  0  0  0  0  0  0  0  0  0
   -7.5994   -6.8604   11.5817 C   0  0  1  0  0  0  0  0  0  0  0  0
   -7.5387   -5.4557   11.2685 O   0  0  0  0  0  0  0  0  0  0  0  0
   -7.2702   -7.6178   10.3075 C   0  0  1  0  0  0  0  0  0  0  0  0
   -8.1821   -8.7039   10.1012 O   0  0  0  0  0  0  0  0  0  0  0  0
   -7.3867   -6.6079    9.1866 C   0  0  0  0  0  0  0  0  0  0  0  0
   -7.3985   -5.2415    9.8563 C   0  0  2  0  0  0  0  0  0  0  0  0
   -5.0258   -0.5550    9.8561 N   0  0  0  0  0  0  0  0  0  0  0  0
   -6.3041   -0.8835   10.1853 C   0  0  1  0  0  0  0  0  0  0  0  0
   -7.1537    0.0938   10.5817 N   0  0  0  0  0  0  0  0  0  0  0  0
   -6.7491   -2.1680   10.1213 N   0  0  0  0  0  0  0  0  0  0  0  0
   -5.9376   -3.1867    9.7275 C   0  0  2  0  0  0  0  0  0  0  0  0
   -4.6273   -2.9121    9.3798 C   0  0  1  0  0  0  0  0  0  0  0  0
   -4.1537   -1.5065    9.4558 C   0  0  0  0  0  0  0  0  0  0  0  0
   -2.9755   -1.2087    9.1572 O   0  0  0  0  0  0  0  0  0  0  0  0
   -4.0416   -4.0728    9.0379 N   0  0  0  0  0  0  0  0  0  0  0  0
   -4.9706   -5.0491    9.1640 C   0  0  0  0  0  0  0  0  0  0  0  0
   -6.1280   -4.5067    9.5842 N   0  0  1  0  0  0  0  0  0  0  0  0
  1  2  1  0  0  0  0
  3  1  1  1  0  0  0
  3  4  1  0  0  0  0
  3  5  1  0  0  0  0
  5  6  1  6  0  0  0
  5  7  1  0  0  0  0
  7  8  1  0  0  0  0
  8  4  1  1  0  0  0
  8 19  1  0  0  0  0
  9 15  1  0  0  0  0
  9 10  1  0  0  0  0
 10 11  1  6  0  0  0
 10 12  1  0  0  0  0
 13 12  1  6  0  0  0
 13 14  1  0  0  0  0
 13 19  1  0  0  0  0
 14 15  1  1  0  0  0
 14 17  1  0  0  0  0
 15 16  2  0  0  0  0
 17 18  1  0  0  0  0
 19 18  1  1  0  0  0
M  END
>  <CHROM.1>
-59.26502098,-79.34331663,-6.08574707,-4.31106839,10.22190995,1.93565519
-0.35125416,3.07442215

>  <Name>
ligand

>  <RI>
0

>  <Rbt.Current_Directory>
/home/itssahil/PROJECTS/Mol_Feturizer/New_Systems/rnas/3SKI

>  <Rbt.Executable>
rbdock ($Id: //depot/dev/client3/rdock/2013.1/src/exe/rbdock.cxx#4 $)

>  <Rbt.Library>
libRbt.so (2013.1, Build901 2013/11/27)

>  <Rbt.Parameter_File>
/export/apps/rDock/src/rDock_2013.1_src/data/scripts/dock_solv.prm

>  <Rbt.Receptor>
prm/pocket_docking_2.prm

>  <SCORE>
-17.3664

>  <SCORE.INTER>
-14.8992

>  <SCORE.INTER.CONST>
1

>  <SCORE.INTER.POLAR>
0

>  <SCORE.INTER.ROT>
2

>  <SCORE.INTER.SOLV>
17.5874

>  <SCORE.INTER.VDW>
-20.7286

>  <SCORE.INTER.norm>
-0.784169

>  <SCORE.INTRA>
-2.46715

>  <SCORE.INTRA.DIHEDRAL>
-5.07937

>  <SCORE.INTRA.DIHEDRAL.0>
6.26853

>  <SCORE.INTRA.POLAR>
0

>  <SCORE.INTRA.POLAR.0>
0

>  <SCORE.INTRA.REPUL>
0

>  <SCORE.INTRA.REPUL.0>
0

>  <SCORE.INTRA.SOLV>
0.24584

>  <SCORE.INTRA.SOLV.lig_0>
-38.4926

>  <SCORE.INTRA.VDW>
-0.0503833

>  <SCORE.INTRA.VDW.0>
-0.59057

>  <SCORE.INTRA.norm>
-0.12985

>  <SCORE.RESTR>
0

>  <SCORE.RESTR.CAVITY>
0

>  <SCORE.RESTR.norm>
0

>  <SCORE.SYSTEM>
0

>  <SCORE.SYSTEM.CONST>
0

>  <SCORE.SYSTEM.DIHEDRAL>
0

>  <SCORE.SYSTEM.SOLV>
0

>  <SCORE.SYSTEM.norm>
0

>  <SCORE.heavy>
19

>  <SCORE.norm>
-0.914019

>  <RMSD>
0.701

$$$$
ligand
 OpenBabel11021811483D
libRbt.so/2013.1/901 2013/11/27
 19 21  0  0  0  0  0  0  0  0999 V2000
   -6.5221   -7.1511   12.7702 C   0  0  0  0  0  0  0  0  0  0  0  0
   -5.1894   -6.8216   12.3512 O   0  0  0  0  0  0  0  0  0  0  0  0
   -7.5267   -6.8149   11.6659 C   0  0  1  0  0  0  0  0  0  0  0  0
   -7.4705   -5.4140   11.3352 O   0  0  0  0  0  0  0  0  0  0  0  0
   -7.2201   -7.5875   10.3950 C   0  0  1  0  0  0  0  0  0  0  0  0
   -8.1362   -8.6751   10.2172 O   0  0  0  0  0  0  0  0  0  0  0  0
   -7.3553   -6.5906    9.2646 C   0  0  0  0  0  0  0  0  0  0  0  0
   -7.3546   -5.2165    9.9184 C   0  0  2  0  0  0  0  0  0  0  0  0
   -4.9772   -0.5333    9.8284 N   0  0  0  0  0  0  0  0  0  0  0  0
   -6.2496   -0.8569   10.1842 C   0  0  1  0  0  0  0  0  0  0  0  0
   -7.0907    0.1254   10.5865 N   0  0  0  0  0  0  0  0  0  0  0  0
   -6.6971   -2.1414   10.1412 N   0  0  0  0  0  0  0  0  0  0  0  0
   -5.8941   -3.1649    9.7425 C   0  0  2  0  0  0  0  0  0  0  0  0
   -4.5901   -2.8954    9.3682 C   0  0  1  0  0  0  0  0  0  0  0  0
   -4.1136   -1.4897    9.4216 C   0  0  0  0  0  0  0  0  0  0  0  0
   -2.9408   -1.1964    9.0985 O   0  0  0  0  0  0  0  0  0  0  0  0
   -4.0120   -4.0601    9.0271 N   0  0  0  0  0  0  0  0  0  0  0  0
   -4.9396   -5.0340    9.1798 C   0  0  0  0  0  0  0  0  0  0  0  0
   -6.0885   -4.4860    9.6158 N   0  0  1  0  0  0  0  0  0  0  0  0
  1  2  1  0  0  0  0
  3  1  1  1  0  0  0
  3  4  1  0  0  0  0
  3  5  1  0  0  0  0
  5  6  1  6  0  0  0
  5  7  1  0  0  0  0
  7  8  1  0  0  0  0
  8  4  1  1  0  0  0
  8 19  1  0  0  0  0
  9 15  1  0  0  0  0
  9 10  1  0  0  0  0
 10 11  1  6  0  0  0
 10 12  1  0  0  0  0
 13 12  1  6  0  0  0
 13 14  1  0  0  0  0
 13 19  1  0  0  0  0
 14 15  1  1  0  0  0
 14 17  1  0  0  0  0
 15 16  2  0  0  0  0
 17 18  1  0  0  0  0
 19 18  1  1  0  0  0
M  END
>  <CHROM.1>
-59.13919124,-79.22053536,-6.03456304,-4.28305793,10.25214393,1.93610779
-0.37177815,3.06485663

>  <Name>
ligand

>  <RI>
0

>  <Rbt.Current_Directory>
/home/itssahil/PROJECTS/Mol_Feturizer/New_Systems/rnas/3SKI

>  <Rbt.Executable>
rbdock ($Id: //depot/dev/client3/rdock/2013.1/src/exe/rbdock.cxx#4 $)

>  <Rbt.Library>
libRbt.so (2013.1, Build901 2013/11/27)

>  <Rbt.Parameter_File>
/export/apps/rDock/src/rDock_2013.1_src/data/scripts/dock_solv.prm

>  <Rbt.Receptor>
prm/pocket_docking_2.prm

>  <SCORE>
-17.2811

>  <SCORE.INTER>
-14.815

>  <SCORE.INTER.CONST>
1

>  <SCORE.INTER.POLAR>
0

>  <SCORE.INTER.ROT>
2

>  <SCORE.INTER.SOLV>
17.5483

>  <SCORE.INTER.VDW>
-20.6594

>  <SCORE.INTER.norm>
-0.779736

>  <SCORE.INTRA>
-2.46612

>  <SCORE.INTRA.DIHEDRAL>
-5.07854

>  <SCORE.INTRA.DIHEDRAL.0>
6.26853

>  <SCORE.INTRA.POLAR>
0

>  <SCORE.INTRA.POLAR.0>
0

>  <SCORE.INTRA.REPUL>
0

>  <SCORE.INTRA.REPUL.0>
0

>  <SCORE.INTRA.SOLV>
0.245498

>  <SCORE.INTRA.SOLV.lig_0>
-38.4926

>  <SCORE.INTRA.VDW>
-0.0495951

>  <SCORE.INTRA.VDW.0>
-0.59057

>  <SCORE.INTRA.norm>
-0.129796

>  <SCORE.RESTR>
0

>  <SCORE.RESTR.CAVITY>
0

>  <SCORE.RESTR.norm>
0

>  <SCORE.SYSTEM>
0

>  <SCORE.SYSTEM.CONST>
0

>  <SCORE.SYSTEM.DIHEDRAL>
0

>  <SCORE.SYSTEM.SOLV>
0

>  <SCORE.SYSTEM.norm>
0

>  <SCORE.heavy>
19

>  <SCORE.norm>
-0.909531

>  <RMSD>
0.701

$$$$
ligand
 OpenBabel11021811483D
libRbt.so/2013.1/901 2013/11/27
 19 21  0  0  0  0  0  0  0  0999 V2000
   -6.4076   -7.0955   12.7681 C   0  0  0  0  0  0  0  0  0  0  0  0
   -6.5714   -8.4829   13.0976 O   0  0  0  0  0  0  0  0  0  0  0  0
   -7.5078   -6.6426   11.8056 C   0  0  1  0  0  0  0  0  0  0  0  0
   -7.4111   -5.2281   11.5506 O   0  0  0  0  0  0  0  0  0  0  0  0
   -7.3864   -7.3482   10.4665 C   0  0  1  0  0  0  0  0  0  0  0  0
   -8.3752   -8.3767   10.3324 O   0  0  0  0  0  0  0  0  0  0  0  0
   -7.5902   -6.2771    9.4170 C   0  0  0  0  0  0  0  0  0  0  0  0
   -7.4415   -4.9483   10.1434 C   0  0  2  0  0  0  0  0  0  0  0  0
   -4.9916   -0.3269    9.6603 N   0  0  0  0  0  0  0  0  0  0  0  0
   -6.2519   -0.6031   10.0909 C   0  0  1  0  0  0  0  0  0  0  0  0
   -7.0573    0.4181   10.4684 N   0  0  0  0  0  0  0  0  0  0  0  0
   -6.7226   -1.8788   10.1469 N   0  0  0  0  0  0  0  0  0  0  0  0
   -5.9558   -2.9403    9.7773 C   0  0  2  0  0  0  0  0  0  0  0  0
   -4.6656   -2.7198    9.3302 C   0  0  1  0  0  0  0  0  0  0  0  0
   -4.1635   -1.3231    9.2758 C   0  0  0  0  0  0  0  0  0  0  0  0
   -3.0016   -1.0732    8.8840 O   0  0  0  0  0  0  0  0  0  0  0  0
   -4.1233   -3.9143    9.0365 N   0  0  0  0  0  0  0  0  0  0  0  0
   -5.0595   -4.8586    9.2895 C   0  0  0  0  0  0  0  0  0  0  0  0
   -6.1781   -4.2626    9.7410 N   0  0  1  0  0  0  0  0  0  0  0  0
  1  2  1  0  0  0  0
  3  1  1  1  0  0  0
  3  4  1  0  0  0  0
  3  5  1  0  0  0  0
  5  6  1  1  0  0  0
  5  7  1  0  0  0  0
  7  8  1  0  0  0  0
  8  4  1  1  0  0  0
  8 19  1  0  0  0  0
  9 15  1  0  0  0  0
  9 10  1  0  0  0  0
 10 11  1  6  0  0  0
 10 12  1  0  0  0  0
 13 12  1  6  0  0  0
 13 14  1  0  0  0  0
 13 19  1  0  0  0  0
 14 15  1  1  0  0  0
 14 17  1  0  0  0  0
 15 16  2  0  0  0  0
 17 18  1  0  0  0  0
 19 18  1  1  0  0  0
M  END
>  <CHROM.1>
175.59857503,-87.40125741,-6.17743103,-4.18745214,10.32084636,-1.94193680
0.45754205,-0.11667942

>  <Name>
ligand

>  <RI>
0

>  <Rbt.Current_Directory>
/home/itssahil/PROJECTS/Mol_Feturizer/New_Systems/rnas/3SKI

>  <Rbt.Executable>
rbdock ($Id: //depot/dev/client3/rdock/2013.1/src/exe/rbdock.cxx#4 $)

>  <Rbt.Library>
libRbt.so (2013.1, Build901 2013/11/27)

>  <Rbt.Parameter_File>
/export/apps/rDock/src/rDock_2013.1_src/data/scripts/dock_solv.prm

>  <Rbt.Receptor>
prm/pocket_docking_2.prm

>  <SCORE>
-17.4459

>  <SCORE.INTER>
-14.9741

>  <SCORE.INTER.CONST>
1

>  <SCORE.INTER.POLAR>
0

>  <SCORE.INTER.ROT>
2

>  <SCORE.INTER.SOLV>
18.1063

>  <SCORE.INTER.VDW>
-20.9515

>  <SCORE.INTER.norm>
-0.788111

>  <SCORE.INTRA>
-2.47183

>  <SCORE.INTRA.DIHEDRAL>
-5.01597

>  <SCORE.INTRA.DIHEDRAL.0>
6.26853

>  <SCORE.INTRA.POLAR>
0

>  <SCORE.INTRA.POLAR.0>
0

>  <SCORE.INTRA.REPUL>
0

>  <SCORE.INTRA.REPUL.0>
0

>  <SCORE.INTRA.SOLV>
-0.0213355

>  <SCORE.INTRA.SOLV.lig_0>
-38.4926

>  <SCORE.INTRA.VDW>
0.0468245

>  <SCORE.INTRA.VDW.0>
-0.59057

>  <SCORE.INTRA.norm>
-0.130096

>  <SCORE.RESTR>
0

>  <SCORE.RESTR.CAVITY>
0

>  <SCORE.RESTR.norm>
0

>  <SCORE.SYSTEM>
0

>  <SCORE.SYSTEM.CONST>
0

>  <SCORE.SYSTEM.DIHEDRAL>
0

>  <SCORE.SYSTEM.SOLV>
0

>  <SCORE.SYSTEM.norm>
0

>  <SCORE.heavy>
19

>  <SCORE.norm>
-0.918207

>  <RMSD>
0.703

$$$$
ligand
 OpenBabel11021811483D
libRbt.so/2013.1/901 2013/11/27
 19 21  0  0  0  0  0  0  0  0999 V2000
   -6.5468   -7.2070   12.7295 C   0  0  0  0  0  0  0  0  0  0  0  0
   -5.2188   -6.8570   12.3119 O   0  0  0  0  0  0  0  0  0  0  0  0
   -7.5597   -6.8519   11.6387 C   0  0  1  0  0  0  0  0  0  0  0  0
   -7.4973   -5.4477   11.3232 O   0  0  0  0  0  0  0  0  0  0  0  0
   -7.2704   -7.6121   10.3564 C   0  0  1  0  0  0  0  0  0  0  0  0
   -8.1952   -8.6916   10.1753 O   0  0  0  0  0  0  0  0  0  0  0  0
   -7.4098   -6.6016    9.2386 C   0  0  0  0  0  0  0  0  0  0  0  0
   -7.3937   -5.2351    9.9077 C   0  0  2  0  0  0  0  0  0  0  0  0
   -5.0072   -0.5573    9.7833 N   0  0  0  0  0  0  0  0  0  0  0  0
   -6.2807   -0.8755   10.1399 C   0  0  1  0  0  0  0  0  0  0  0  0
   -7.1205    0.1115   10.5330 N   0  0  0  0  0  0  0  0  0  0  0  0
   -6.7306   -2.1595   10.1065 N   0  0  0  0  0  0  0  0  0  0  0  0
   -5.9290   -3.1877    9.7173 C   0  0  2  0  0  0  0  0  0  0  0  0
   -4.6239   -2.9237    9.3428 C   0  0  1  0  0  0  0  0  0  0  0  0
   -4.1448   -1.5186    9.3856 C   0  0  0  0  0  0  0  0  0  0  0  0
   -2.9710   -1.2302    9.0618 O   0  0  0  0  0  0  0  0  0  0  0  0
   -4.0476   -4.0923    9.0119 N   0  0  0  0  0  0  0  0  0  0  0  0
   -4.9773   -5.0631    9.1711 C   0  0  0  0  0  0  0  0  0  0  0  0
   -6.1257   -4.5094    9.6010 N   0  0  1  0  0  0  0  0  0  0  0  0
  1  2  1  0  0  0  0
  3  1  1  1  0  0  0
  3  4  1  0  0  0  0
  3  5  1  0  0  0  0
  5  6  1  6  0  0  0
  5  7  1  0  0  0  0
  7  8  1  0  0  0  0
  8  4  1  1  0  0  0
  8 19  1  0  0  0  0
  9 15  1  0  0  0  0
  9 10  1  0  0  0  0
 10 11  1  6  0  0  0
 10 12  1  0  0  0  0
 13 12  1  6  0  0  0
 13 14  1  0  0  0  0
 13 19  1  0  0  0  0
 14 15  1  1  0  0  0
 14 17  1  0  0  0  0
 15 16  2  0  0  0  0
 17 18  1  0  0  0  0
 19 18  1  1  0  0  0
M  END
>  <CHROM.1>
-57.99714834,-80.52222160,-6.07048076,-4.30982355,10.22160179,1.93384340
-0.35195086,3.05595541

>  <Name>
ligand

>  <RI>
0

>  <Rbt.Current_Directory>
/home/itssahil/PROJECTS/Mol_Feturizer/New_Systems/rnas/3SKI

>  <Rbt.Executable>
rbdock ($Id: //depot/dev/client3/rdock/2013.1/src/exe/rbdock.cxx#4 $)

>  <Rbt.Library>
libRbt.so (2013.1, Build901 2013/11/27)

>  <Rbt.Parameter_File>
/export/apps/rDock/src/rDock_2013.1_src/data/scripts/dock_solv.prm

>  <Rbt.Receptor>
prm/pocket_docking_2.prm

>  <SCORE>
-17.3968

>  <SCORE.INTER>
-14.9051

>  <SCORE.INTER.CONST>
1

>  <SCORE.INTER.POLAR>
0

>  <SCORE.INTER.ROT>
2

>  <SCORE.INTER.SOLV>
17.614

>  <SCORE.INTER.VDW>
-20.7414

>  <SCORE.INTER.norm>
-0.784481

>  <SCORE.INTRA>
-2.49165

>  <SCORE.INTRA.DIHEDRAL>
-5.06695

>  <SCORE.INTRA.DIHEDRAL.0>
6.26853

>  <SCORE.INTRA.POLAR>
0

>  <SCORE.INTRA.POLAR.0>
0

>  <SCORE.INTRA.REPUL>
0

>  <SCORE.INTRA.REPUL.0>
0

>  <SCORE.INTRA.SOLV>
0.245023

>  <SCORE.INTRA.SOLV.lig_0>
-38.4926

>  <SCORE.INTRA.VDW>
-0.0806845

>  <SCORE.INTRA.VDW.0>
-0.59057

>  <SCORE.INTRA.norm>
-0.131139

>  <SCORE.RESTR>
0

>  <SCORE.RESTR.CAVITY>
0

>  <SCORE.RESTR.norm>
0

>  <SCORE.SYSTEM>
0

>  <SCORE.SYSTEM.CONST>
0

>  <SCORE.SYSTEM.DIHEDRAL>
0

>  <SCORE.SYSTEM.SOLV>
0

>  <SCORE.SYSTEM.norm>
0

>  <SCORE.heavy>
19

>  <SCORE.norm>
-0.915621

>  <RMSD>
0.703

$$$$
ligand
 OpenBabel11021811483D
libRbt.so/2013.1/901 2013/11/27
 19 21  0  0  0  0  0  0  0  0999 V2000
   -6.7343   -7.3414   12.4662 C   0  0  0  0  0  0  0  0  0  0  0  0
   -6.9732   -8.7391   12.6889 O   0  0  0  0  0  0  0  0  0  0  0  0
   -7.7724   -6.7707   11.4974 C   0  0  1  0  0  0  0  0  0  0  0  0
   -7.6082   -5.3467   11.3555 O   0  0  0  0  0  0  0  0  0  0  0  0
   -7.6208   -7.3789   10.1143 C   0  0  1  0  0  0  0  0  0  0  0  0
   -8.6431   -8.3510    9.8619 O   0  0  0  0  0  0  0  0  0  0  0  0
   -7.7356   -6.2246    9.1424 C   0  0  0  0  0  0  0  0  0  0  0  0
   -7.5659   -4.9614    9.9737 C   0  0  2  0  0  0  0  0  0  0  0  0
   -4.9665   -0.4011    9.7741 N   0  0  0  0  0  0  0  0  0  0  0  0
   -6.2607   -0.6514   10.1096 C   0  0  1  0  0  0  0  0  0  0  0  0
   -7.0631    0.3834   10.4552 N   0  0  0  0  0  0  0  0  0  0  0  0
   -6.7679   -1.9142   10.1017 N   0  0  0  0  0  0  0  0  0  0  0  0
   -6.0055   -2.9884    9.7603 C   0  0  2  0  0  0  0  0  0  0  0  0
   -4.6818   -2.7942    9.4091 C   0  0  1  0  0  0  0  0  0  0  0  0
   -4.1403   -1.4114    9.4237 C   0  0  0  0  0  0  0  0  0  0  0  0
   -2.9476   -1.1855    9.1194 O   0  0  0  0  0  0  0  0  0  0  0  0
   -4.1522   -3.9967    9.1246 N   0  0  0  0  0  0  0  0  0  0  0  0
   -5.1285   -4.9197    9.2892 C   0  0  0  0  0  0  0  0  0  0  0  0
   -6.2597   -4.3027    9.6765 N   0  0  1  0  0  0  0  0  0  0  0  0
  1  2  1  0  0  0  0
  3  1  1  1  0  0  0
  3  4  1  0  0  0  0
  3  5  1  0  0  0  0
  5  6  1  6  0  0  0
  5  7  1  0  0  0  0
  7  8  1  0  0  0  0
  8  4  1  1  0  0  0
  8 19  1  0  0  0  0
  9 15  1  0  0  0  0
  9 10  1  0  0  0  0
 10 11  1  6  0  0  0
 10 12  1  0  0  0  0
 13 12  1  6  0  0  0
 13 14  1  0  0  0  0
 13 19  1  0  0  0  0
 14 15  1  1  0  0  0
 14 17  1  0  0  0  0
 15 16  2  0  0  0  0
 17 18  1  0  0  0  0
 19 18  1  1  0  0  0
M  END
>  <CHROM.1>
175.20483424,-90.87842519,-6.29651238,-4.26370099,10.21187312,-1.96595507
0.33491271,-0.08415532

>  <Name>
ligand

>  <RI>
0

>  <Rbt.Current_Directory>
/home/itssahil/PROJECTS/Mol_Feturizer/New_Systems/rnas/3SKI

>  <Rbt.Executable>
rbdock ($Id: //depot/dev/client3/rdock/2013.1/src/exe/rbdock.cxx#4 $)

>  <Rbt.Library>
libRbt.so (2013.1, Build901 2013/11/27)

>  <Rbt.Parameter_File>
/export/apps/rDock/src/rDock_2013.1_src/data/scripts/dock_solv.prm

>  <Rbt.Receptor>
prm/pocket_docking_2.prm

>  <SCORE>
-17.2813

>  <SCORE.INTER>
-14.7485

>  <SCORE.INTER.CONST>
1

>  <SCORE.INTER.POLAR>
0

>  <SCORE.INTER.ROT>
2

>  <SCORE.INTER.SOLV>
17.8889

>  <SCORE.INTER.VDW>
-20.7287

>  <SCORE.INTER.norm>
-0.776238

>  <SCORE.INTRA>
-2.53276

>  <SCORE.INTRA.DIHEDRAL>
-5.00324

>  <SCORE.INTRA.DIHEDRAL.0>
6.26853

>  <SCORE.INTRA.POLAR>
0

>  <SCORE.INTRA.POLAR.0>
0

>  <SCORE.INTRA.REPUL>
0

>  <SCORE.INTRA.REPUL.0>
0

>  <SCORE.INTRA.SOLV>
-0.0258397

>  <SCORE.INTRA.SOLV.lig_0>
-38.4926

>  <SCORE.INTRA.VDW>
-0.0182218

>  <SCORE.INTRA.VDW.0>
-0.59057

>  <SCORE.INTRA.norm>
-0.133303

>  <SCORE.RESTR>
0

>  <SCORE.RESTR.CAVITY>
0

>  <SCORE.RESTR.norm>
0

>  <SCORE.SYSTEM>
0

>  <SCORE.SYSTEM.CONST>
0

>  <SCORE.SYSTEM.DIHEDRAL>
0

>  <SCORE.SYSTEM.SOLV>
0

>  <SCORE.SYSTEM.norm>
0

>  <SCORE.heavy>
19

>  <SCORE.norm>
-0.909541

>  <RMSD>
0.704

$$$$
ligand
 OpenBabel11021811483D
libRbt.so/2013.1/901 2013/11/27
 19 21  0  0  0  0  0  0  0  0999 V2000
   -6.4285   -7.3950   12.5989 C   0  0  0  0  0  0  0  0  0  0  0  0
   -5.1189   -7.0266   12.1413 O   0  0  0  0  0  0  0  0  0  0  0  0
   -7.4900   -6.9538   11.5888 C   0  0  1  0  0  0  0  0  0  0  0  0
   -7.4189   -5.5329   11.3630 O   0  0  0  0  0  0  0  0  0  0  0  0
   -7.2812   -7.6314   10.2460 C   0  0  1  0  0  0  0  0  0  0  0  0
   -8.2335   -8.6831   10.0439 O   0  0  0  0  0  0  0  0  0  0  0  0
   -7.4603   -6.5472    9.2057 C   0  0  0  0  0  0  0  0  0  0  0  0
   -7.3851   -5.2283    9.9610 C   0  0  2  0  0  0  0  0  0  0  0  0
   -5.0101   -0.5466    9.7765 N   0  0  0  0  0  0  0  0  0  0  0  0
   -6.2792   -0.8648   10.1484 C   0  0  1  0  0  0  0  0  0  0  0  0
   -7.1171    0.1234   10.5425 N   0  0  0  0  0  0  0  0  0  0  0  0
   -6.7267   -2.1499   10.1295 N   0  0  0  0  0  0  0  0  0  0  0  0
   -5.9268   -3.1795    9.7400 C   0  0  2  0  0  0  0  0  0  0  0  0
   -4.6262   -2.9156    9.3501 C   0  0  1  0  0  0  0  0  0  0  0  0
   -4.1498   -1.5092    9.3772 C   0  0  0  0  0  0  0  0  0  0  0  0
   -2.9799   -1.2208    9.0393 O   0  0  0  0  0  0  0  0  0  0  0  0
   -4.0507   -4.0855    9.0223 N   0  0  0  0  0  0  0  0  0  0  0  0
   -4.9767   -5.0570    9.1984 C   0  0  0  0  0  0  0  0  0  0  0  0
   -6.1219   -4.5024    9.6358 N   0  0  1  0  0  0  0  0  0  0  0  0
  1  2  1  0  0  0  0
  3  1  1  1  0  0  0
  3  4  1  0  0  0  0
  3  5  1  0  0  0  0
  5  6  1  6  0  0  0
  5  7  1  0  0  0  0
  7  8  1  0  0  0  0
  8  4  1  1  0  0  0
  8 19  1  0  0  0  0
  9 15  1  0  0  0  0
  9 10  1  0  0  0  0
 10 11  1  6  0  0  0
 10 12  1  0  0  0  0
 13 12  1  6  0  0  0
 13 14  1  0  0  0  0
 13 19  1  0  0  0  0
 14 15  1  1  0  0  0
 14 17  1  0  0  0  0
 15 16  2  0  0  0  0
 17 18  1  0  0  0  0
 19 18  1  1  0  0  0
M  END
>  <CHROM.1>
-57.47071055,-85.49602047,-6.05531584,-4.33277951,10.19649980,-1.91451212
0.29160103,-0.09838236

>  <Name>
ligand

>  <RI>
0

>  <Rbt.Current_Directory>
/home/itssahil/PROJECTS/Mol_Feturizer/New_Systems/rnas/3SKI

>  <Rbt.Executable>
rbdock ($Id: //depot/dev/client3/rdock/2013.1/src/exe/rbdock.cxx#4 $)

>  <Rbt.Library>
libRbt.so (2013.1, Build901 2013/11/27)

>  <Rbt.Parameter_File>
/export/apps/rDock/src/rDock_2013.1_src/data/scripts/dock_solv.prm

>  <Rbt.Receptor>
prm/pocket_docking_7.prm

>  <SCORE>
-17.3329

>  <SCORE.INTER>
-14.7715

>  <SCORE.INTER.CONST>
1

>  <SCORE.INTER.POLAR>
0

>  <SCORE.INTER.ROT>
2

>  <SCORE.INTER.SOLV>
17.6291

>  <SCORE.INTER.VDW>
-20.6573

>  <SCORE.INTER.norm>
-0.777445

>  <SCORE.INTRA>
-2.56141

>  <SCORE.INTRA.DIHEDRAL>
-5.05982

>  <SCORE.INTRA.DIHEDRAL.0>
6.26853

>  <SCORE.INTRA.POLAR>
0

>  <SCORE.INTRA.POLAR.0>
0

>  <SCORE.INTRA.REPUL>
0

>  <SCORE.INTRA.REPUL.0>
0

>  <SCORE.INTRA.SOLV>
0.249487

>  <SCORE.INTRA.SOLV.lig_0>
-38.4926

>  <SCORE.INTRA.VDW>
-0.156244

>  <SCORE.INTRA.VDW.0>
-0.59057

>  <SCORE.INTRA.norm>
-0.134811

>  <SCORE.RESTR>
0

>  <SCORE.RESTR.CAVITY>
0

>  <SCORE.RESTR.norm>
0

>  <SCORE.SYSTEM>
0

>  <SCORE.SYSTEM.CONST>
0

>  <SCORE.SYSTEM.DIHEDRAL>
0

>  <SCORE.SYSTEM.SOLV>
0

>  <SCORE.SYSTEM.norm>
0

>  <SCORE.heavy>
19

>  <SCORE.norm>
-0.912256

>  <RMSD>
0.704

$$$$
ligand
 OpenBabel11021811483D
libRbt.so/2013.1/901 2013/11/27
 19 21  0  0  0  0  0  0  0  0999 V2000
   -6.4263   -7.0878   12.7802 C   0  0  0  0  0  0  0  0  0  0  0  0
   -6.5803   -8.4772   13.1059 O   0  0  0  0  0  0  0  0  0  0  0  0
   -7.5160   -6.6458   11.8009 C   0  0  1  0  0  0  0  0  0  0  0  0
   -7.4249   -5.2318   11.5415 O   0  0  0  0  0  0  0  0  0  0  0  0
   -7.3718   -7.3559   10.4664 C   0  0  1  0  0  0  0  0  0  0  0  0
   -8.3520   -8.3914   10.3230 O   0  0  0  0  0  0  0  0  0  0  0  0
   -7.5680   -6.2904    9.4099 C   0  0  0  0  0  0  0  0  0  0  0  0
   -7.4378   -4.9577   10.1328 C   0  0  2  0  0  0  0  0  0  0  0  0
   -5.0020   -0.3248    9.6901 N   0  0  0  0  0  0  0  0  0  0  0  0
   -6.2653   -0.6077   10.1077 C   0  0  1  0  0  0  0  0  0  0  0  0
   -7.0783    0.4089   10.4811 N   0  0  0  0  0  0  0  0  0  0  0  0
   -6.7314   -1.8854   10.1544 N   0  0  0  0  0  0  0  0  0  0  0  0
   -5.9568   -2.9425    9.7883 C   0  0  2  0  0  0  0  0  0  0  0  0
   -4.6633   -2.7151    9.3543 C   0  0  1  0  0  0  0  0  0  0  0  0
   -4.1663   -1.3163    9.3098 C   0  0  0  0  0  0  0  0  0  0  0  0
   -3.0018   -1.0603    8.9300 O   0  0  0  0  0  0  0  0  0  0  0  0
   -4.1134   -3.9064    9.0614 N   0  0  0  0  0  0  0  0  0  0  0  0
   -5.0481   -4.8554    9.3021 C   0  0  0  0  0  0  0  0  0  0  0  0
   -6.1734   -4.2655    9.7450 N   0  0  1  0  0  0  0  0  0  0  0  0
  1  2  1  0  0  0  0
  3  1  1  1  0  0  0
  3  4  1  0  0  0  0
  3  5  1  0  0  0  0
  5  6  1  6  0  0  0
  5  7  1  0  0  0  0
  7  8  1  0  0  0  0
  8  4  1  1  0  0  0
  8 19  1  0  0  0  0
  9 15  1  0  0  0  0
  9 10  1  0  0  0  0
 10 11  1  6  0  0  0
 10 12  1  0  0  0  0
 13 12  1  6  0  0  0
 13 14  1  0  0  0  0
 13 19  1  0  0  0  0
 14 15  1  1  0  0  0
 14 17  1  0  0  0  0
 15 16  2  0  0  0  0
 17 18  1  0  0  0  0
 19 18  1  1  0  0  0
M  END
>  <CHROM.1>
175.99431383,-86.88000052,-6.17824986,-4.18886024,10.33132123,-1.94054838
0.45530439,-0.11376508

>  <Name>
ligand

>  <RI>
0

>  <Rbt.Current_Directory>
/home/itssahil/PROJECTS/Mol_Feturizer/New_Systems/rnas/3SKI

>  <Rbt.Executable>
rbdock ($Id: //depot/dev/client3/rdock/2013.1/src/exe/rbdock.cxx#4 $)

>  <Rbt.Library>
libRbt.so (2013.1, Build901 2013/11/27)

>  <Rbt.Parameter_File>
/export/apps/rDock/src/rDock_2013.1_src/data/scripts/dock_solv.prm

>  <Rbt.Receptor>
prm/pocket_docking_2.prm

>  <SCORE>
-17.4233

>  <SCORE.INTER>
-14.9587

>  <SCORE.INTER.CONST>
1

>  <SCORE.INTER.POLAR>
0

>  <SCORE.INTER.ROT>
2

>  <SCORE.INTER.SOLV>
18.1234

>  <SCORE.INTER.VDW>
-20.9469

>  <SCORE.INTER.norm>
-0.787299

>  <SCORE.INTRA>
-2.46461

>  <SCORE.INTRA.DIHEDRAL>
-5.02769

>  <SCORE.INTRA.DIHEDRAL.0>
6.26853

>  <SCORE.INTRA.POLAR>
0

>  <SCORE.INTRA.POLAR.0>
0

>  <SCORE.INTRA.REPUL>
0

>  <SCORE.INTRA.REPUL.0>
0

>  <SCORE.INTRA.SOLV>
-0.0189621

>  <SCORE.INTRA.SOLV.lig_0>
-38.4926

>  <SCORE.INTRA.VDW>
0.0587153

>  <SCORE.INTRA.VDW.0>
-0.59057

>  <SCORE.INTRA.norm>
-0.129716

>  <SCORE.RESTR>
0

>  <SCORE.RESTR.CAVITY>
0

>  <SCORE.RESTR.norm>
0

>  <SCORE.SYSTEM>
0

>  <SCORE.SYSTEM.CONST>
0

>  <SCORE.SYSTEM.DIHEDRAL>
0

>  <SCORE.SYSTEM.SOLV>
0

>  <SCORE.SYSTEM.norm>
0

>  <SCORE.heavy>
19

>  <SCORE.norm>
-0.917015

>  <RMSD>
0.706

$$$$
ligand
 OpenBabel11021811483D
libRbt.so/2013.1/901 2013/11/27
 19 21  0  0  0  0  0  0  0  0999 V2000
   -6.4926   -7.2812   12.7039 C   0  0  0  0  0  0  0  0  0  0  0  0
   -5.1719   -6.9381   12.2585 O   0  0  0  0  0  0  0  0  0  0  0  0
   -7.5290   -6.8953   11.6461 C   0  0  1  0  0  0  0  0  0  0  0  0
   -7.4660   -5.4845   11.3620 O   0  0  0  0  0  0  0  0  0  0  0  0
   -7.2746   -7.6267   10.3399 C   0  0  1  0  0  0  0  0  0  0  0  0
   -8.2097   -8.6969   10.1559 O   0  0  0  0  0  0  0  0  0  0  0  0
   -7.4346   -6.5897    9.2496 C   0  0  0  0  0  0  0  0  0  0  0  0
   -7.3948   -5.2392    9.9498 C   0  0  2  0  0  0  0  0  0  0  0  0
   -5.0181   -0.5579    9.7792 N   0  0  0  0  0  0  0  0  0  0  0  0
   -6.2886   -0.8762   10.1463 C   0  0  1  0  0  0  0  0  0  0  0  0
   -7.1276    0.1118   10.5386 N   0  0  0  0  0  0  0  0  0  0  0  0
   -6.7363   -2.1612   10.1243 N   0  0  0  0  0  0  0  0  0  0  0  0
   -5.9353   -3.1905    9.7364 C   0  0  2  0  0  0  0  0  0  0  0  0
   -4.6333   -2.9265    9.3514 C   0  0  1  0  0  0  0  0  0  0  0  0
   -4.1566   -1.5202    9.3819 C   0  0  0  0  0  0  0  0  0  0  0  0
   -2.9855   -1.2317    9.0485 O   0  0  0  0  0  0  0  0  0  0  0  0
   -4.0569   -4.0961    9.0243 N   0  0  0  0  0  0  0  0  0  0  0  0
   -4.9837   -5.0676    9.1960 C   0  0  0  0  0  0  0  0  0  0  0  0
   -6.1303   -4.5132    9.6300 N   0  0  1  0  0  0  0  0  0  0  0  0
  1  2  1  0  0  0  0
  3  1  1  1  0  0  0
  3  4  1  0  0  0  0
  3  5  1  0  0  0  0
  5  6  1  6  0  0  0
  5  7  1  0  0  0  0
  7  8  1  0  0  0  0
  8  4  1  1  0  0  0
  8 19  1  0  0  0  0
  9 15  1  0  0  0  0
  9 10  1  0  0  0  0
 10 11  1  6  0  0  0
 10 12  1  0  0  0  0
 13 12  1  6  0  0  0
 13 14  1  0  0  0  0
 13 19  1  0  0  0  0
 14 15  1  1  0  0  0
 14 17  1  0  0  0  0
 15 16  2  0  0  0  0
 17 18  1  0  0  0  0
 19 18  1  1  0  0  0
M  END
>  <CHROM.1>
-58.45402916,-82.53890458,-6.06856506,-4.32498554,10.22536810,-1.92354747
0.32777748,-0.09594797

>  <Name>
ligand

>  <RI>
0

>  <Rbt.Current_Directory>
/home/itssahil/PROJECTS/Mol_Feturizer/New_Systems/rnas/3SKI

>  <Rbt.Executable>
rbdock ($Id: //depot/dev/client3/rdock/2013.1/src/exe/rbdock.cxx#4 $)

>  <Rbt.Library>
libRbt.so (2013.1, Build901 2013/11/27)

>  <Rbt.Parameter_File>
/export/apps/rDock/src/rDock_2013.1_src/data/scripts/dock_solv.prm

>  <Rbt.Receptor>
prm/pocket_docking_5.prm

>  <SCORE>
-17.4005

>  <SCORE.INTER>
-14.8933

>  <SCORE.INTER.CONST>
1

>  <SCORE.INTER.POLAR>
0

>  <SCORE.INTER.ROT>
2

>  <SCORE.INTER.SOLV>
17.6107

>  <SCORE.INTER.VDW>
-20.7324

>  <SCORE.INTER.norm>
-0.783856

>  <SCORE.INTRA>
-2.50728

>  <SCORE.INTRA.DIHEDRAL>
-5.07378

>  <SCORE.INTRA.DIHEDRAL.0>
6.26853

>  <SCORE.INTRA.POLAR>
0

>  <SCORE.INTRA.POLAR.0>
0

>  <SCORE.INTRA.REPUL>
0

>  <SCORE.INTRA.REPUL.0>
0

>  <SCORE.INTRA.SOLV>
0.248048

>  <SCORE.INTRA.SOLV.lig_0>
-38.4926

>  <SCORE.INTRA.VDW>
-0.0944177

>  <SCORE.INTRA.VDW.0>
-0.59057

>  <SCORE.INTRA.norm>
-0.131962

>  <SCORE.RESTR>
0

>  <SCORE.RESTR.CAVITY>
0

>  <SCORE.RESTR.norm>
0

>  <SCORE.SYSTEM>
0

>  <SCORE.SYSTEM.CONST>
0

>  <SCORE.SYSTEM.DIHEDRAL>
0

>  <SCORE.SYSTEM.SOLV>
0

>  <SCORE.SYSTEM.norm>
0

>  <SCORE.heavy>
19

>  <SCORE.norm>
-0.915818

>  <RMSD>
0.709

$$$$
ligand
 OpenBabel11021811483D
libRbt.so/2013.1/901 2013/11/27
 19 21  0  0  0  0  0  0  0  0999 V2000
   -6.5560   -7.1893   12.7475 C   0  0  0  0  0  0  0  0  0  0  0  0
   -5.2213   -6.8631   12.3325 O   0  0  0  0  0  0  0  0  0  0  0  0
   -7.5565   -6.8501   11.6404 C   0  0  1  0  0  0  0  0  0  0  0  0
   -7.5036   -5.4471   11.3182 O   0  0  0  0  0  0  0  0  0  0  0  0
   -7.2413   -7.6141   10.3665 C   0  0  1  0  0  0  0  0  0  0  0  0
   -8.1527   -8.7038   10.1780 O   0  0  0  0  0  0  0  0  0  0  0  0
   -7.3746   -6.6110    9.2413 C   0  0  0  0  0  0  0  0  0  0  0  0
   -7.3818   -5.2408    9.9032 C   0  0  2  0  0  0  0  0  0  0  0  0
   -5.0323   -0.5435    9.8139 N   0  0  0  0  0  0  0  0  0  0  0  0
   -6.3066   -0.8730   10.1570 C   0  0  1  0  0  0  0  0  0  0  0  0
   -7.1582    0.1062   10.5442 N   0  0  0  0  0  0  0  0  0  0  0  0
   -6.7457   -2.1605   10.1161 N   0  0  0  0  0  0  0  0  0  0  0  0
   -5.9319   -3.1812    9.7324 C   0  0  2  0  0  0  0  0  0  0  0  0
   -4.6254   -2.9057    9.3714 C   0  0  1  0  0  0  0  0  0  0  0  0
   -4.1583   -1.4969    9.4223 C   0  0  0  0  0  0  0  0  0  0  0  0
   -2.9836   -1.1981    9.1109 O   0  0  0  0  0  0  0  0  0  0  0  0
   -4.0363   -4.0688    9.0434 N   0  0  0  0  0  0  0  0  0  0  0  0
   -4.9597   -5.0475    9.1910 C   0  0  0  0  0  0  0  0  0  0  0  0
   -6.1168   -4.5042    9.6109 N   0  0  1  0  0  0  0  0  0  0  0  0
  1  2  1  0  0  0  0
  3  1  1  1  0  0  0
  3  4  1  0  0  0  0
  3  5  1  0  0  0  0
  5  6  1  6  0  0  0
  5  7  1  0  0  0  0
  7  8  1  0  0  0  0
  8  4  1  1  0  0  0
  8 19  1  0  0  0  0
  9 15  1  0  0  0  0
  9 10  1  0  0  0  0
 10 11  1  6  0  0  0
 10 12  1  0  0  0  0
 13 12  1  6  0  0  0
 13 14  1  0  0  0  0
 13 19  1  0  0  0  0
 14 15  1  1  0  0  0
 14 17  1  0  0  0  0
 15 16  2  0  0  0  0
 17 18  1  0  0  0  0
 19 18  1  1  0  0  0
M  END
>  <CHROM.1>
-59.61813399,-79.99574070,-6.06988621,-4.30389141,10.23756632,1.92702498
-0.34715729,3.05554151

>  <Name>
ligand

>  <RI>
0

>  <Rbt.Current_Directory>
/home/itssahil/PROJECTS/Mol_Feturizer/New_Systems/rnas/3SKI

>  <Rbt.Executable>
rbdock ($Id: //depot/dev/client3/rdock/2013.1/src/exe/rbdock.cxx#4 $)

>  <Rbt.Library>
libRbt.so (2013.1, Build901 2013/11/27)

>  <Rbt.Parameter_File>
/export/apps/rDock/src/rDock_2013.1_src/data/scripts/dock_solv.prm

>  <Rbt.Receptor>
prm/pocket_docking_2.prm

>  <SCORE>
-17.3485

>  <SCORE.INTER>
-14.8739

>  <SCORE.INTER.CONST>
1

>  <SCORE.INTER.POLAR>
0

>  <SCORE.INTER.ROT>
2

>  <SCORE.INTER.SOLV>
17.6843

>  <SCORE.INTER.VDW>
-20.744

>  <SCORE.INTER.norm>
-0.782837

>  <SCORE.INTRA>
-2.47461

>  <SCORE.INTRA.DIHEDRAL>
-5.08124

>  <SCORE.INTRA.DIHEDRAL.0>
6.26853

>  <SCORE.INTRA.POLAR>
0

>  <SCORE.INTRA.POLAR.0>
0

>  <SCORE.INTRA.REPUL>
0

>  <SCORE.INTRA.REPUL.0>
0

>  <SCORE.INTRA.SOLV>
0.24713

>  <SCORE.INTRA.SOLV.lig_0>
-38.4926

>  <SCORE.INTRA.VDW>
-0.0575552

>  <SCORE.INTRA.VDW.0>
-0.59057

>  <SCORE.INTRA.norm>
-0.130243

>  <SCORE.RESTR>
0

>  <SCORE.RESTR.CAVITY>
0

>  <SCORE.RESTR.norm>
0

>  <SCORE.SYSTEM>
0

>  <SCORE.SYSTEM.CONST>
0

>  <SCORE.SYSTEM.DIHEDRAL>
0

>  <SCORE.SYSTEM.SOLV>
0

>  <SCORE.SYSTEM.norm>
0

>  <SCORE.heavy>
19

>  <SCORE.norm>
-0.91308

>  <RMSD>
0.710

$$$$
ligand
 OpenBabel11021811483D
libRbt.so/2013.1/901 2013/11/27
 19 21  0  0  0  0  0  0  0  0999 V2000
   -6.5917   -7.1754   12.7394 C   0  0  0  0  0  0  0  0  0  0  0  0
   -5.2524   -6.8622   12.3291 O   0  0  0  0  0  0  0  0  0  0  0  0
   -7.5830   -6.8440   11.6218 C   0  0  1  0  0  0  0  0  0  0  0  0
   -7.5288   -5.4430   11.2915 O   0  0  0  0  0  0  0  0  0  0  0  0
   -7.2561   -7.6155   10.3553 C   0  0  1  0  0  0  0  0  0  0  0  0
   -8.1648   -8.7073   10.1657 O   0  0  0  0  0  0  0  0  0  0  0  0
   -7.3809   -6.6194    9.2229 C   0  0  0  0  0  0  0  0  0  0  0  0
   -7.3951   -5.2452    9.8763 C   0  0  2  0  0  0  0  0  0  0  0  0
   -5.0298   -0.5551    9.8428 N   0  0  0  0  0  0  0  0  0  0  0  0
   -6.3043   -0.8848   10.1851 C   0  0  1  0  0  0  0  0  0  0  0  0
   -7.1515    0.0920   10.5876 N   0  0  0  0  0  0  0  0  0  0  0  0
   -6.7479   -2.1701   10.1283 N   0  0  0  0  0  0  0  0  0  0  0  0
   -5.9387   -3.1885    9.7288 C   0  0  2  0  0  0  0  0  0  0  0  0
   -4.6322   -2.9125    9.3679 C   0  0  1  0  0  0  0  0  0  0  0  0
   -4.1601   -1.5061    9.4362 C   0  0  0  0  0  0  0  0  0  0  0  0
   -2.9853   -1.2072    9.1255 O   0  0  0  0  0  0  0  0  0  0  0  0
   -4.0480   -4.0731    9.0228 N   0  0  0  0  0  0  0  0  0  0  0  0
   -4.9743   -5.0506    9.1600 C   0  0  0  0  0  0  0  0  0  0  0  0
   -6.1284   -4.5090    9.5903 N   0  0  1  0  0  0  0  0  0  0  0  0
  1  2  1  0  0  0  0
  3  1  1  1  0  0  0
  3  4  1  0  0  0  0
  3  5  1  0  0  0  0
  5  6  1  6  0  0  0
  5  7  1  0  0  0  0
  7  8  1  0  0  0  0
  8  4  1  1  0  0  0
  8 19  1  0  0  0  0
  9 15  1  0  0  0  0
  9 10  1  0  0  0  0
 10 11  1  6  0  0  0
 10 12  1  0  0  0  0
 13 12  1  6  0  0  0
 13 14  1  0  0  0  0
 13 19  1  0  0  0  0
 14 15  1  1  0  0  0
 14 17  1  0  0  0  0
 15 16  2  0  0  0  0
 17 18  1  0  0  0  0
 19 18  1  1  0  0  0
M  END
>  <CHROM.1>
-60.16577906,-78.68364980,-6.08132226,-4.30818677,10.23413203,1.93538454
-0.36973557,3.07200787

>  <Name>
ligand

>  <RI>
0

>  <Rbt.Current_Directory>
/home/itssahil/PROJECTS/Mol_Feturizer/New_Systems/rnas/3SKI

>  <Rbt.Executable>
rbdock ($Id: //depot/dev/client3/rdock/2013.1/src/exe/rbdock.cxx#4 $)

>  <Rbt.Library>
libRbt.so (2013.1, Build901 2013/11/27)

>  <Rbt.Parameter_File>
/export/apps/rDock/src/rDock_2013.1_src/data/scripts/dock_solv.prm

>  <Rbt.Receptor>
prm/pocket_docking_2.prm

>  <SCORE>
-17.3761

>  <SCORE.INTER>
-14.9276

>  <SCORE.INTER.CONST>
1

>  <SCORE.INTER.POLAR>
0

>  <SCORE.INTER.ROT>
2

>  <SCORE.INTER.SOLV>
17.6023

>  <SCORE.INTER.VDW>
-20.7525

>  <SCORE.INTER.norm>
-0.785663

>  <SCORE.INTRA>
-2.44851

>  <SCORE.INTRA.DIHEDRAL>
-5.08121

>  <SCORE.INTRA.DIHEDRAL.0>
6.26853

>  <SCORE.INTRA.POLAR>
0

>  <SCORE.INTRA.POLAR.0>
0

>  <SCORE.INTRA.REPUL>
0

>  <SCORE.INTRA.REPUL.0>
0

>  <SCORE.INTRA.SOLV>
0.246481

>  <SCORE.INTRA.SOLV.lig_0>
-38.4926

>  <SCORE.INTRA.VDW>
-0.0311515

>  <SCORE.INTRA.VDW.0>
-0.59057

>  <SCORE.INTRA.norm>
-0.128869

>  <SCORE.RESTR>
0

>  <SCORE.RESTR.CAVITY>
0

>  <SCORE.RESTR.norm>
0

>  <SCORE.SYSTEM>
0

>  <SCORE.SYSTEM.CONST>
0

>  <SCORE.SYSTEM.DIHEDRAL>
0

>  <SCORE.SYSTEM.SOLV>
0

>  <SCORE.SYSTEM.norm>
0

>  <SCORE.heavy>
19

>  <SCORE.norm>
-0.914532

>  <RMSD>
0.710

$$$$
ligand
 OpenBabel11021811483D
libRbt.so/2013.1/901 2013/11/27
 19 21  0  0  0  0  0  0  0  0999 V2000
   -6.5450   -7.2195   12.7255 C   0  0  0  0  0  0  0  0  0  0  0  0
   -5.2160   -6.8653   12.3148 O   0  0  0  0  0  0  0  0  0  0  0  0
   -7.5536   -6.8657   11.6304 C   0  0  1  0  0  0  0  0  0  0  0  0
   -7.4937   -5.4610   11.3171 O   0  0  0  0  0  0  0  0  0  0  0  0
   -7.2561   -7.6233   10.3484 C   0  0  1  0  0  0  0  0  0  0  0  0
   -8.1770   -8.7052   10.1615 O   0  0  0  0  0  0  0  0  0  0  0  0
   -7.3930   -6.6117    9.2313 C   0  0  0  0  0  0  0  0  0  0  0  0
   -7.3840   -5.2460    9.9024 C   0  0  2  0  0  0  0  0  0  0  0  0
   -5.0116   -0.5607    9.7913 N   0  0  0  0  0  0  0  0  0  0  0  0
   -6.2860   -0.8830   10.1407 C   0  0  1  0  0  0  0  0  0  0  0  0
   -7.1311    0.1014   10.5291 N   0  0  0  0  0  0  0  0  0  0  0  0
   -6.7317   -2.1684   10.1049 N   0  0  0  0  0  0  0  0  0  0  0  0
   -5.9247   -3.1941    9.7202 C   0  0  2  0  0  0  0  0  0  0  0  0
   -4.6184   -2.9260    9.3529 C   0  0  1  0  0  0  0  0  0  0  0  0
   -4.1440   -1.5194    9.3983 C   0  0  0  0  0  0  0  0  0  0  0  0
   -2.9693   -1.2272    9.0811 O   0  0  0  0  0  0  0  0  0  0  0  0
   -4.0365   -4.0928    9.0253 N   0  0  0  0  0  0  0  0  0  0  0  0
   -4.9641   -5.0665    9.1793 C   0  0  0  0  0  0  0  0  0  0  0  0
   -6.1166   -4.5164    9.6028 N   0  0  1  0  0  0  0  0  0  0  0  0
  1  2  1  0  0  0  0
  3  1  1  1  0  0  0
  3  4  1  0  0  0  0
  3  5  1  0  0  0  0
  5  6  1  6  0  0  0
  5  7  1  0  0  0  0
  7  8  1  0  0  0  0
  8  4  1  1  0  0  0
  8 19  1  0  0  0  0
  9 15  1  0  0  0  0
  9 10  1  0  0  0  0
 10 11  1  6  0  0  0
 10 12  1  0  0  0  0
 13 12  1  6  0  0  0
 13 14  1  0  0  0  0
 13 19  1  0  0  0  0
 14 15  1  1  0  0  0
 14 17  1  0  0  0  0
 15 16  2  0  0  0  0
 17 18  1  0  0  0  0
 19 18  1  1  0  0  0
M  END
>  <CHROM.1>
-57.99998715,-80.61691449,-6.06531077,-4.31731847,10.22259775,1.93063720
-0.34466136,3.05480517

>  <Name>
ligand

>  <RI>
0

>  <Rbt.Current_Directory>
/home/itssahil/PROJECTS/Mol_Feturizer/New_Systems/rnas/3SKI

>  <Rbt.Executable>
rbdock ($Id: //depot/dev/client3/rdock/2013.1/src/exe/rbdock.cxx#4 $)

>  <Rbt.Library>
libRbt.so (2013.1, Build901 2013/11/27)

>  <Rbt.Parameter_File>
/export/apps/rDock/src/rDock_2013.1_src/data/scripts/dock_solv.prm

>  <Rbt.Receptor>
prm/pocket_docking_3.prm

>  <SCORE>
-17.3698

>  <SCORE.INTER>
-14.8766

>  <SCORE.INTER.CONST>
1

>  <SCORE.INTER.POLAR>
0

>  <SCORE.INTER.ROT>
2

>  <SCORE.INTER.SOLV>
17.6115

>  <SCORE.INTER.VDW>
-20.7216

>  <SCORE.INTER.norm>
-0.78298

>  <SCORE.INTRA>
-2.49318

>  <SCORE.INTRA.DIHEDRAL>
-5.06703

>  <SCORE.INTRA.DIHEDRAL.0>
6.26853

>  <SCORE.INTRA.POLAR>
0

>  <SCORE.INTRA.POLAR.0>
0

>  <SCORE.INTRA.REPUL>
0

>  <SCORE.INTRA.REPUL.0>
0

>  <SCORE.INTRA.SOLV>
0.245134

>  <SCORE.INTRA.SOLV.lig_0>
-38.4926

>  <SCORE.INTRA.VDW>
-0.0822313

>  <SCORE.INTRA.VDW.0>
-0.59057

>  <SCORE.INTRA.norm>
-0.13122

>  <SCORE.RESTR>
0

>  <SCORE.RESTR.CAVITY>
0

>  <SCORE.RESTR.norm>
0

>  <SCORE.SYSTEM>
0

>  <SCORE.SYSTEM.CONST>
0

>  <SCORE.SYSTEM.DIHEDRAL>
0

>  <SCORE.SYSTEM.SOLV>
0

>  <SCORE.SYSTEM.norm>
0

>  <SCORE.heavy>
19

>  <SCORE.norm>
-0.914201

>  <RMSD>
0.711

$$$$
ligand
 OpenBabel11021811483D
libRbt.so/2013.1/901 2013/11/27
 19 21  0  0  0  0  0  0  0  0999 V2000
   -6.5358   -7.2036   12.7245 C   0  0  0  0  0  0  0  0  0  0  0  0
   -5.2071   -6.8694   12.2968 O   0  0  0  0  0  0  0  0  0  0  0  0
   -7.5505   -6.8571   11.6326 C   0  0  1  0  0  0  0  0  0  0  0  0
   -7.4957   -5.4535   11.3132 O   0  0  0  0  0  0  0  0  0  0  0  0
   -7.2568   -7.6192   10.3525 C   0  0  1  0  0  0  0  0  0  0  0  0
   -8.1758   -8.7043   10.1742 O   0  0  0  0  0  0  0  0  0  0  0  0
   -7.4016   -6.6127    9.2318 C   0  0  0  0  0  0  0  0  0  0  0  0
   -7.3931   -5.2442    9.8972 C   0  0  2  0  0  0  0  0  0  0  0  0
   -5.0255   -0.5566    9.7809 N   0  0  0  0  0  0  0  0  0  0  0  0
   -6.2965   -0.8811   10.1407 C   0  0  1  0  0  0  0  0  0  0  0  0
   -7.1388    0.1012   10.5401 N   0  0  0  0  0  0  0  0  0  0  0  0
   -6.7415   -2.1667   10.1044 N   0  0  0  0  0  0  0  0  0  0  0  0
   -5.9371   -3.1904    9.7089 C   0  0  2  0  0  0  0  0  0  0  0  0
   -4.6344   -2.9200    9.3308 C   0  0  1  0  0  0  0  0  0  0  0  0
   -4.1608   -1.5131    9.3768 C   0  0  0  0  0  0  0  0  0  0  0  0
   -2.9891   -1.2189    9.0500 O   0  0  0  0  0  0  0  0  0  0  0  0
   -4.0546   -4.0851    8.9939 N   0  0  0  0  0  0  0  0  0  0  0  0
   -4.9799   -5.0601    9.1529 C   0  0  0  0  0  0  0  0  0  0  0  0
   -6.1291   -4.5125    9.5887 N   0  0  1  0  0  0  0  0  0  0  0  0
  1  2  1  0  0  0  0
  3  1  1  1  0  0  0
  3  4  1  0  0  0  0
  3  5  1  0  0  0  0
  5  6  1  6  0  0  0
  5  7  1  0  0  0  0
  7  8  1  0  0  0  0
  8  4  1  1  0  0  0
  8 19  1  0  0  0  0
  9 15  1  0  0  0  0
  9 10  1  0  0  0  0
 10 11  1  6  0  0  0
 10 12  1  0  0  0  0
 13 12  1  6  0  0  0
 13 14  1  0  0  0  0
 13 19  1  0  0  0  0
 14 15  1  1  0  0  0
 14 17  1  0  0  0  0
 15 16  2  0  0  0  0
 17 18  1  0  0  0  0
 19 18  1  1  0  0  0
M  END
>  <CHROM.1>
-59.01296646,-80.10149164,-6.07293905,-4.31299741,10.21399542,1.93025051
-0.36004531,3.05786004

>  <Name>
ligand

>  <RI>
0

>  <Rbt.Current_Directory>
/home/itssahil/PROJECTS/Mol_Feturizer/New_Systems/rnas/3SKI

>  <Rbt.Executable>
rbdock ($Id: //depot/dev/client3/rdock/2013.1/src/exe/rbdock.cxx#4 $)

>  <Rbt.Library>
libRbt.so (2013.1, Build901 2013/11/27)

>  <Rbt.Parameter_File>
/export/apps/rDock/src/rDock_2013.1_src/data/scripts/dock_solv.prm

>  <Rbt.Receptor>
prm/pocket_docking_5.prm

>  <SCORE>
-17.3874

>  <SCORE.INTER>
-14.9065

>  <SCORE.INTER.CONST>
1

>  <SCORE.INTER.POLAR>
0

>  <SCORE.INTER.ROT>
2

>  <SCORE.INTER.SOLV>
17.6601

>  <SCORE.INTER.VDW>
-20.7577

>  <SCORE.INTER.norm>
-0.784553

>  <SCORE.INTRA>
-2.48087

>  <SCORE.INTRA.DIHEDRAL>
-5.07808

>  <SCORE.INTRA.DIHEDRAL.0>
6.26853

>  <SCORE.INTRA.POLAR>
0

>  <SCORE.INTRA.POLAR.0>
0

>  <SCORE.INTRA.REPUL>
0

>  <SCORE.INTRA.REPUL.0>
0

>  <SCORE.INTRA.SOLV>
0.246285

>  <SCORE.INTRA.SOLV.lig_0>
-38.4926

>  <SCORE.INTRA.VDW>
-0.0649719

>  <SCORE.INTRA.VDW.0>
-0.59057

>  <SCORE.INTRA.norm>
-0.130572

>  <SCORE.RESTR>
0

>  <SCORE.RESTR.CAVITY>
0

>  <SCORE.RESTR.norm>
0

>  <SCORE.SYSTEM>
0

>  <SCORE.SYSTEM.CONST>
0

>  <SCORE.SYSTEM.DIHEDRAL>
0

>  <SCORE.SYSTEM.SOLV>
0

>  <SCORE.SYSTEM.norm>
0

>  <SCORE.heavy>
19

>  <SCORE.norm>
-0.915125

>  <RMSD>
0.713

$$$$
ligand
 OpenBabel11021811483D
libRbt.so/2013.1/901 2013/11/27
 19 21  0  0  0  0  0  0  0  0999 V2000
   -6.4067   -7.1263   12.7255 C   0  0  0  0  0  0  0  0  0  0  0  0
   -6.5839   -8.5077   13.0725 O   0  0  0  0  0  0  0  0  0  0  0  0
   -7.4911   -6.6802   11.7422 C   0  0  1  0  0  0  0  0  0  0  0  0
   -7.3989   -5.2651   11.4896 O   0  0  0  0  0  0  0  0  0  0  0  0
   -7.3393   -7.3844   10.4054 C   0  0  1  0  0  0  0  0  0  0  0  0
   -8.3185   -8.4195   10.2520 O   0  0  0  0  0  0  0  0  0  0  0  0
   -7.5300   -6.3143    9.3526 C   0  0  0  0  0  0  0  0  0  0  0  0
   -7.4041   -4.9848   10.0821 C   0  0  2  0  0  0  0  0  0  0  0  0
   -4.9606   -0.3513    9.6918 N   0  0  0  0  0  0  0  0  0  0  0  0
   -6.2253   -0.6365   10.1034 C   0  0  1  0  0  0  0  0  0  0  0  0
   -7.0378    0.3775   10.4851 N   0  0  0  0  0  0  0  0  0  0  0  0
   -6.6933   -1.9139   10.1362 N   0  0  0  0  0  0  0  0  0  0  0  0
   -5.9194   -2.9684    9.7613 C   0  0  2  0  0  0  0  0  0  0  0  0
   -4.6245   -2.7386    9.3328 C   0  0  1  0  0  0  0  0  0  0  0  0
   -4.1254   -1.3401    9.3036 C   0  0  0  0  0  0  0  0  0  0  0  0
   -2.9596   -1.0820    8.9292 O   0  0  0  0  0  0  0  0  0  0  0  0
   -4.0756   -3.9277    9.0293 N   0  0  0  0  0  0  0  0  0  0  0  0
   -5.0123   -4.8776    9.2582 C   0  0  0  0  0  0  0  0  0  0  0  0
   -6.1378   -4.2906    9.7043 N   0  0  1  0  0  0  0  0  0  0  0  0
  1  2  1  0  0  0  0
  3  1  1  1  0  0  0
  3  4  1  0  0  0  0
  3  5  1  0  0  0  0
  5  6  1  6  0  0  0
  5  7  1  0  0  0  0
  7  8  1  0  0  0  0
  8  4  1  1  0  0  0
  8 19  1  0  0  0  0
  9 15  1  0  0  0  0
  9 10  1  0  0  0  0
 10 11  1  6  0  0  0
 10 12  1  0  0  0  0
 13 12  1  6  0  0  0
 13 14  1  0  0  0  0
 13 19  1  0  0  0  0
 14 15  1  1  0  0  0
 14 17  1  0  0  0  0
 15 16  2  0  0  0  0
 17 18  1  0  0  0  0
 19 18  1  1  0  0  0
M  END
>  <CHROM.1>
174.41835736,-86.50004013,-6.14536793,-4.21648677,10.29787147,-1.94616748
0.46544846,-0.10032382

>  <Name>
ligand

>  <RI>
0

>  <Rbt.Current_Directory>
/home/itssahil/PROJECTS/Mol_Feturizer/New_Systems/rnas/3SKI

>  <Rbt.Executable>
rbdock ($Id: //depot/dev/client3/rdock/2013.1/src/exe/rbdock.cxx#4 $)

>  <Rbt.Library>
libRbt.so (2013.1, Build901 2013/11/27)

>  <Rbt.Parameter_File>
/export/apps/rDock/src/rDock_2013.1_src/data/scripts/dock_solv.prm

>  <Rbt.Receptor>
prm/pocket_docking_2.prm

>  <SCORE>
-17.3344

>  <SCORE.INTER>
-14.8891

>  <SCORE.INTER.CONST>
1

>  <SCORE.INTER.POLAR>
0

>  <SCORE.INTER.ROT>
2

>  <SCORE.INTER.SOLV>
17.9068

>  <SCORE.INTER.VDW>
-20.8284

>  <SCORE.INTER.norm>
-0.783639

>  <SCORE.INTRA>
-2.44522

>  <SCORE.INTRA.DIHEDRAL>
-4.97415

>  <SCORE.INTRA.DIHEDRAL.0>
6.26853

>  <SCORE.INTRA.POLAR>
0

>  <SCORE.INTRA.POLAR.0>
0

>  <SCORE.INTRA.REPUL>
0

>  <SCORE.INTRA.REPUL.0>
0

>  <SCORE.INTRA.SOLV>
-0.0266665

>  <SCORE.INTRA.SOLV.lig_0>
-38.4926

>  <SCORE.INTRA.VDW>
0.0551868

>  <SCORE.INTRA.VDW.0>
-0.59057

>  <SCORE.INTRA.norm>
-0.128696

>  <SCORE.RESTR>
0

>  <SCORE.RESTR.CAVITY>
0

>  <SCORE.RESTR.norm>
0

>  <SCORE.SYSTEM>
0

>  <SCORE.SYSTEM.CONST>
0

>  <SCORE.SYSTEM.DIHEDRAL>
0

>  <SCORE.SYSTEM.SOLV>
0

>  <SCORE.SYSTEM.norm>
0

>  <SCORE.heavy>
19

>  <SCORE.norm>
-0.912335

>  <RMSD>
0.714

$$$$
ligand
 OpenBabel11021811483D
libRbt.so/2013.1/901 2013/11/27
 19 21  0  0  0  0  0  0  0  0999 V2000
   -7.3926   -7.6664   11.3886 C   0  0  0  0  0  0  0  0  0  0  0  0
   -7.0948   -7.6824   12.7926 O   0  0  0  0  0  0  0  0  0  0  0  0
   -8.4123   -6.5701   11.0722 C   0  0  1  0  0  0  0  0  0  0  0  0
   -7.8793   -5.2708   11.3926 O   0  0  0  0  0  0  0  0  0  0  0  0
   -8.7613   -6.5589    9.5944 C   0  0  1  0  0  0  0  0  0  0  0  0
  -10.0507   -7.1400    9.3631 O   0  0  0  0  0  0  0  0  0  0  0  0
   -8.7542   -5.1032    9.1809 C   0  0  0  0  0  0  0  0  0  0  0  0
   -8.0419   -4.3559   10.2988 C   0  0  2  0  0  0  0  0  0  0  0  0
   -4.8818   -0.1880    9.8134 N   0  0  0  0  0  0  0  0  0  0  0  0
   -6.1469   -0.2685   10.3067 C   0  0  1  0  0  0  0  0  0  0  0  0
   -6.7497    0.8565   10.7594 N   0  0  0  0  0  0  0  0  0  0  0  0
   -6.8207   -1.4500   10.3518 N   0  0  0  0  0  0  0  0  0  0  0  0
   -6.2621   -2.6086    9.9080 C   0  0  2  0  0  0  0  0  0  0  0  0
   -4.9778   -2.5874    9.3948 C   0  0  1  0  0  0  0  0  0  0  0  0
   -4.2528   -1.2919    9.3531 C   0  0  0  0  0  0  0  0  0  0  0  0
   -3.0871   -1.2226    8.9033 O   0  0  0  0  0  0  0  0  0  0  0  0
   -4.6587   -3.8429    9.0356 N   0  0  0  0  0  0  0  0  0  0  0  0
   -5.7253   -4.6285    9.3137 C   0  0  0  0  0  0  0  0  0  0  0  0
   -6.7039   -3.8735    9.8455 N   0  0  1  0  0  0  0  0  0  0  0  0
  1  2  1  0  0  0  0
  3  1  1  6  0  0  0
  3  4  1  0  0  0  0
  3  5  1  0  0  0  0
  5  6  1  1  0  0  0
  5  7  1  0  0  0  0
  7  8  1  0  0  0  0
  8  4  1  1  0  0  0
  8 19  1  0  0  0  0
  9 15  1  0  0  0  0
  9 10  1  0  0  0  0
 10 11  1  6  0  0  0
 10 12  1  0  0  0  0
 13 12  1  6  0  0  0
 13 14  1  0  0  0  0
 13 19  1  0  0  0  0
 14 15  1  1  0  0  0
 14 17  1  0  0  0  0
 15 16  2  0  0  0  0
 17 18  1  0  0  0  0
 19 18  1  1  0  0  0
M  END
>  <CHROM.1>
62.30565407,-115.74089478,-6.70310779,-3.84218193,10.13918948,-2.07531727
0.11257582,-0.10480869

>  <Name>
ligand

>  <RI>
0

>  <Rbt.Current_Directory>
/home/itssahil/PROJECTS/Mol_Feturizer/New_Systems/rnas/3SKI

>  <Rbt.Executable>
rbdock ($Id: //depot/dev/client3/rdock/2013.1/src/exe/rbdock.cxx#4 $)

>  <Rbt.Library>
libRbt.so (2013.1, Build901 2013/11/27)

>  <Rbt.Parameter_File>
/export/apps/rDock/src/rDock_2013.1_src/data/scripts/dock_solv.prm

>  <Rbt.Receptor>
prm/pocket_docking_2.prm

>  <SCORE>
-17.0283

>  <SCORE.INTER>
-13.9285

>  <SCORE.INTER.CONST>
1

>  <SCORE.INTER.POLAR>
0

>  <SCORE.INTER.ROT>
2

>  <SCORE.INTER.SOLV>
18.2428

>  <SCORE.INTER.VDW>
-20.2999

>  <SCORE.INTER.norm>
-0.733079

>  <SCORE.INTRA>
-3.09979

>  <SCORE.INTRA.DIHEDRAL>
-5.04944

>  <SCORE.INTRA.DIHEDRAL.0>
6.26853

>  <SCORE.INTRA.POLAR>
0

>  <SCORE.INTRA.POLAR.0>
0

>  <SCORE.INTRA.REPUL>
0

>  <SCORE.INTRA.REPUL.0>
0

>  <SCORE.INTRA.SOLV>
-0.241021

>  <SCORE.INTRA.SOLV.lig_0>
-38.4926

>  <SCORE.INTRA.VDW>
-0.454557

>  <SCORE.INTRA.VDW.0>
-0.59057

>  <SCORE.INTRA.norm>
-0.163147

>  <SCORE.RESTR>
0

>  <SCORE.RESTR.CAVITY>
0

>  <SCORE.RESTR.norm>
0

>  <SCORE.SYSTEM>
0

>  <SCORE.SYSTEM.CONST>
0

>  <SCORE.SYSTEM.DIHEDRAL>
0

>  <SCORE.SYSTEM.SOLV>
0

>  <SCORE.SYSTEM.norm>
0

>  <SCORE.heavy>
19

>  <SCORE.norm>
-0.896226

>  <RMSD>
0.723

$$$$
ligand
 OpenBabel11021811483D
libRbt.so/2013.1/901 2013/11/27
 19 21  0  0  0  0  0  0  0  0999 V2000
   -7.6245   -7.2550   11.8108 C   0  0  0  0  0  0  0  0  0  0  0  0
   -6.3005   -7.0648   11.2902 O   0  0  0  0  0  0  0  0  0  0  0  0
   -8.6083   -6.3034   11.1265 C   0  0  1  0  0  0  0  0  0  0  0  0
   -8.1678   -4.9377   11.2529 O   0  0  0  0  0  0  0  0  0  0  0  0
   -8.7154   -6.6035    9.6418 C   0  0  1  0  0  0  0  0  0  0  0  0
   -9.9353   -7.2924    9.3401 O   0  0  0  0  0  0  0  0  0  0  0  0
   -8.6798   -5.2598    8.9467 C   0  0  0  0  0  0  0  0  0  0  0  0
   -8.1761   -4.2671    9.9842 C   0  0  2  0  0  0  0  0  0  0  0  0
   -4.9282   -0.1452    9.7506 N   0  0  0  0  0  0  0  0  0  0  0  0
   -6.2343   -0.2042   10.1262 C   0  0  1  0  0  0  0  0  0  0  0  0
   -6.8608    0.9333   10.5103 N   0  0  0  0  0  0  0  0  0  0  0  0
   -6.9255   -1.3765   10.1207 N   0  0  0  0  0  0  0  0  0  0  0  0
   -6.3443   -2.5469    9.7417 C   0  0  2  0  0  0  0  0  0  0  0  0
   -5.0181   -2.5476    9.3487 C   0  0  1  0  0  0  0  0  0  0  0  0
   -4.2747   -1.2620    9.3611 C   0  0  0  0  0  0  0  0  0  0  0  0
   -3.0717   -1.2124    9.0199 O   0  0  0  0  0  0  0  0  0  0  0  0
   -4.6844   -3.8110    9.0328 N   0  0  0  0  0  0  0  0  0  0  0  0
   -5.7827   -4.5799    9.2192 C   0  0  0  0  0  0  0  0  0  0  0  0
   -6.7956   -3.8068    9.6512 N   0  0  1  0  0  0  0  0  0  0  0  0
  1  2  1  0  0  0  0
  3  1  1  6  0  0  0
  3  4  1  0  0  0  0
  3  5  1  0  0  0  0
  5  6  1  1  0  0  0
  5  7  1  0  0  0  0
  7  8  1  0  0  0  0
  8  4  1  1  0  0  0
  8 19  1  0  0  0  0
  9 15  1  0  0  0  0
  9 10  1  0  0  0  0
 10 11  1  6  0  0  0
 10 12  1  0  0  0  0
 13 12  1  6  0  0  0
 13 14  1  0  0  0  0
 13 19  1  0  0  0  0
 14 15  1  1  0  0  0
 14 17  1  0  0  0  0
 15 16  2  0  0  0  0
 17 18  1  0  0  0  0
 19 18  1  1  0  0  0
M  END
>  <CHROM.1>
-55.29776354,-103.68247833,-6.72039016,-3.73659798,9.98208343,-2.09084506
0.15043860,-0.04051886

>  <Name>
ligand

>  <RI>
0

>  <Rbt.Current_Directory>
/home/itssahil/PROJECTS/Mol_Feturizer/New_Systems/rnas/3SKI

>  <Rbt.Executable>
rbdock ($Id: //depot/dev/client3/rdock/2013.1/src/exe/rbdock.cxx#4 $)

>  <Rbt.Library>
libRbt.so (2013.1, Build901 2013/11/27)

>  <Rbt.Parameter_File>
/export/apps/rDock/src/rDock_2013.1_src/data/scripts/dock_solv.prm

>  <Rbt.Receptor>
prm/pocket_docking_2.prm

>  <SCORE>
-16.9453

>  <SCORE.INTER>
-14.0679

>  <SCORE.INTER.CONST>
1

>  <SCORE.INTER.POLAR>
0

>  <SCORE.INTER.ROT>
2

>  <SCORE.INTER.SOLV>
18.2926

>  <SCORE.INTER.VDW>
-20.4095

>  <SCORE.INTER.norm>
-0.740415

>  <SCORE.INTRA>
-2.87747

>  <SCORE.INTRA.DIHEDRAL>
-4.9983

>  <SCORE.INTRA.DIHEDRAL.0>
6.26853

>  <SCORE.INTRA.POLAR>
0

>  <SCORE.INTRA.POLAR.0>
0

>  <SCORE.INTRA.REPUL>
0

>  <SCORE.INTRA.REPUL.0>
0

>  <SCORE.INTRA.SOLV>
0.263682

>  <SCORE.INTRA.SOLV.lig_0>
-38.4926

>  <SCORE.INTRA.VDW>
-0.510157

>  <SCORE.INTRA.VDW.0>
-0.59057

>  <SCORE.INTRA.norm>
-0.151446

>  <SCORE.RESTR>
7.49433e-05

>  <SCORE.RESTR.CAVITY>
7.49433e-05

>  <SCORE.RESTR.norm>
3.94438e-06

>  <SCORE.SYSTEM>
0

>  <SCORE.SYSTEM.CONST>
0

>  <SCORE.SYSTEM.DIHEDRAL>
0

>  <SCORE.SYSTEM.SOLV>
0

>  <SCORE.SYSTEM.norm>
0

>  <SCORE.heavy>
19

>  <SCORE.norm>
-0.891857

>  <RMSD>
0.733

$$$$
ligand
 OpenBabel11021811483D
libRbt.so/2013.1/901 2013/11/27
 19 21  0  0  0  0  0  0  0  0999 V2000
   -6.4522   -7.2643   12.6352 C   0  0  0  0  0  0  0  0  0  0  0  0
   -6.6310   -8.6590   12.9231 O   0  0  0  0  0  0  0  0  0  0  0  0
   -7.5348   -6.7760   11.6701 C   0  0  1  0  0  0  0  0  0  0  0  0
   -7.4257   -5.3553   11.4587 O   0  0  0  0  0  0  0  0  0  0  0  0
   -7.3972   -7.4424   10.3126 C   0  0  1  0  0  0  0  0  0  0  0  0
   -8.3899   -8.4602   10.1331 O   0  0  0  0  0  0  0  0  0  0  0  0
   -7.5784   -6.3396    9.2924 C   0  0  0  0  0  0  0  0  0  0  0  0
   -7.4329   -5.0338   10.0600 C   0  0  2  0  0  0  0  0  0  0  0  0
   -4.9609   -0.4117    9.7145 N   0  0  0  0  0  0  0  0  0  0  0  0
   -6.2309   -0.6920   10.1130 C   0  0  1  0  0  0  0  0  0  0  0  0
   -7.0414    0.3246   10.4920 N   0  0  0  0  0  0  0  0  0  0  0  0
   -6.7061   -1.9671   10.1354 N   0  0  0  0  0  0  0  0  0  0  0  0
   -5.9344   -3.0240    9.7627 C   0  0  2  0  0  0  0  0  0  0  0  0
   -4.6343   -2.7992    9.3473 C   0  0  1  0  0  0  0  0  0  0  0  0
   -4.1275   -1.4033    9.3293 C   0  0  0  0  0  0  0  0  0  0  0  0
   -2.9568   -1.1497    8.9670 O   0  0  0  0  0  0  0  0  0  0  0  0
   -4.0891   -3.9897    9.0432 N   0  0  0  0  0  0  0  0  0  0  0  0
   -5.0330   -4.9357    9.2588 C   0  0  0  0  0  0  0  0  0  0  0  0
   -6.1593   -4.3446    9.6973 N   0  0  1  0  0  0  0  0  0  0  0  0
  1  2  1  0  0  0  0
  3  1  1  1  0  0  0
  3  4  1  0  0  0  0
  3  5  1  0  0  0  0
  5  6  1  6  0  0  0
  5  7  1  0  0  0  0
  7  8  1  0  0  0  0
  8  4  1  1  0  0  0
  8 19  1  0  0  0  0
  9 15  1  0  0  0  0
  9 10  1  0  0  0  0
 10 11  1  6  0  0  0
 10 12  1  0  0  0  0
 13 12  1  6  0  0  0
 13 14  1  0  0  0  0
 13 19  1  0  0  0  0
 14 15  1  1  0  0  0
 14 17  1  0  0  0  0
 15 16  2  0  0  0  0
 17 18  1  0  0  0  0
 19 18  1  1  0  0  0
M  END
>  <CHROM.1>
175.47829381,-88.15668432,-6.17086297,-4.28542027,10.26875784,-1.94451428
0.42412204,-0.09715118

>  <Name>
ligand

>  <RI>
0

>  <Rbt.Current_Directory>
/home/itssahil/PROJECTS/Mol_Feturizer/New_Systems/rnas/3SKI

>  <Rbt.Executable>
rbdock ($Id: //depot/dev/client3/rdock/2013.1/src/exe/rbdock.cxx#4 $)

>  <Rbt.Library>
libRbt.so (2013.1, Build901 2013/11/27)

>  <Rbt.Parameter_File>
/export/apps/rDock/src/rDock_2013.1_src/data/scripts/dock_solv.prm

>  <Rbt.Receptor>
prm/pocket_docking_8.prm

>  <SCORE>
-17.254

>  <SCORE.INTER>
-14.7692

>  <SCORE.INTER.CONST>
1

>  <SCORE.INTER.POLAR>
0

>  <SCORE.INTER.ROT>
2

>  <SCORE.INTER.SOLV>
17.6963

>  <SCORE.INTER.VDW>
-20.6782

>  <SCORE.INTER.norm>
-0.777326

>  <SCORE.INTRA>
-2.48478

>  <SCORE.INTRA.DIHEDRAL>
-5.01224

>  <SCORE.INTRA.DIHEDRAL.0>
6.26853

>  <SCORE.INTRA.POLAR>
0

>  <SCORE.INTRA.POLAR.0>
0

>  <SCORE.INTRA.REPUL>
0

>  <SCORE.INTRA.REPUL.0>
0

>  <SCORE.INTRA.SOLV>
-0.0224895

>  <SCORE.INTRA.SOLV.lig_0>
-38.4926

>  <SCORE.INTRA.VDW>
0.0325889

>  <SCORE.INTRA.VDW.0>
-0.59057

>  <SCORE.INTRA.norm>
-0.130778

>  <SCORE.RESTR>
0

>  <SCORE.RESTR.CAVITY>
0

>  <SCORE.RESTR.norm>
0

>  <SCORE.SYSTEM>
0

>  <SCORE.SYSTEM.CONST>
0

>  <SCORE.SYSTEM.DIHEDRAL>
0

>  <SCORE.SYSTEM.SOLV>
0

>  <SCORE.SYSTEM.norm>
0

>  <SCORE.heavy>
19

>  <SCORE.norm>
-0.908103

>  <RMSD>
0.735

$$$$
ligand
 OpenBabel11021811483D
libRbt.so/2013.1/901 2013/11/27
 19 21  0  0  0  0  0  0  0  0999 V2000
   -6.3072   -7.3148   12.6204 C   0  0  0  0  0  0  0  0  0  0  0  0
   -6.4488   -8.7255   12.8444 O   0  0  0  0  0  0  0  0  0  0  0  0
   -7.4140   -6.8084   11.6929 C   0  0  1  0  0  0  0  0  0  0  0  0
   -7.3156   -5.3825   11.5135 O   0  0  0  0  0  0  0  0  0  0  0  0
   -7.3053   -7.4412   10.3168 C   0  0  1  0  0  0  0  0  0  0  0  0
   -8.2978   -8.4590   10.1358 O   0  0  0  0  0  0  0  0  0  0  0  0
   -7.5149   -6.3149    9.3281 C   0  0  0  0  0  0  0  0  0  0  0  0
   -7.3568   -5.0274   10.1236 C   0  0  2  0  0  0  0  0  0  0  0  0
   -4.9415   -0.3774    9.7534 N   0  0  0  0  0  0  0  0  0  0  0  0
   -6.2041   -0.6721   10.1646 C   0  0  1  0  0  0  0  0  0  0  0  0
   -7.0224    0.3351   10.5516 N   0  0  0  0  0  0  0  0  0  0  0  0
   -6.6644   -1.9525   10.1917 N   0  0  0  0  0  0  0  0  0  0  0  0
   -5.8844   -3.0006    9.8113 C   0  0  2  0  0  0  0  0  0  0  0  0
   -4.5913   -2.7610    9.3829 C   0  0  1  0  0  0  0  0  0  0  0  0
   -4.1006   -1.3594    9.3600 C   0  0  0  0  0  0  0  0  0  0  0  0
   -2.9366   -1.0925    8.9860 O   0  0  0  0  0  0  0  0  0  0  0  0
   -4.0355   -3.9453    9.0734 N   0  0  0  0  0  0  0  0  0  0  0  0
   -4.9663   -4.9019    9.2985 C   0  0  0  0  0  0  0  0  0  0  0  0
   -6.0949   -4.3237    9.7482 N   0  0  1  0  0  0  0  0  0  0  0  0
  1  2  1  0  0  0  0
  3  1  1  1  0  0  0
  3  4  1  0  0  0  0
  3  5  1  0  0  0  0
  5  6  1  1  0  0  0
  5  7  1  0  0  0  0
  7  8  1  0  0  0  0
  8  4  1  1  0  0  0
  8 19  1  0  0  0  0
  9 15  1  0  0  0  0
  9 10  1  0  0  0  0
 10 11  1  6  0  0  0
 10 12  1  0  0  0  0
 13 12  1  6  0  0  0
 13 14  1  0  0  0  0
 13 19  1  0  0  0  0
 14 15  1  1  0  0  0
 14 17  1  0  0  0  0
 15 16  2  0  0  0  0
 17 18  1  0  0  0  0
 19 18  1  1  0  0  0
M  END
>  <CHROM.1>
177.30881477,-89.79325152,-6.10005129,-4.27619910,10.29638418,-1.92301569
0.40050912,-0.10588873

>  <Name>
ligand

>  <RI>
0

>  <Rbt.Current_Directory>
/home/itssahil/PROJECTS/Mol_Feturizer/New_Systems/rnas/3SKI

>  <Rbt.Executable>
rbdock ($Id: //depot/dev/client3/rdock/2013.1/src/exe/rbdock.cxx#4 $)

>  <Rbt.Library>
libRbt.so (2013.1, Build901 2013/11/27)

>  <Rbt.Parameter_File>
/export/apps/rDock/src/rDock_2013.1_src/data/scripts/dock_solv.prm

>  <Rbt.Receptor>
prm/pocket_docking_3.prm

>  <SCORE>
-17.313

>  <SCORE.INTER>
-14.7924

>  <SCORE.INTER.CONST>
1

>  <SCORE.INTER.POLAR>
0

>  <SCORE.INTER.ROT>
2

>  <SCORE.INTER.SOLV>
17.4811

>  <SCORE.INTER.VDW>
-20.6219

>  <SCORE.INTER.norm>
-0.778545

>  <SCORE.INTRA>
-2.52063

>  <SCORE.INTRA.DIHEDRAL>
-5.05909

>  <SCORE.INTRA.DIHEDRAL.0>
6.26853

>  <SCORE.INTRA.POLAR>
0

>  <SCORE.INTRA.POLAR.0>
0

>  <SCORE.INTRA.REPUL>
0

>  <SCORE.INTRA.REPUL.0>
0

>  <SCORE.INTRA.SOLV>
-0.0144735

>  <SCORE.INTRA.SOLV.lig_0>
-38.4926

>  <SCORE.INTRA.VDW>
0.0161522

>  <SCORE.INTRA.VDW.0>
-0.59057

>  <SCORE.INTRA.norm>
-0.132665

>  <SCORE.RESTR>
0

>  <SCORE.RESTR.CAVITY>
0

>  <SCORE.RESTR.norm>
0

>  <SCORE.SYSTEM>
0

>  <SCORE.SYSTEM.CONST>
0

>  <SCORE.SYSTEM.DIHEDRAL>
0

>  <SCORE.SYSTEM.SOLV>
0

>  <SCORE.SYSTEM.norm>
0

>  <SCORE.heavy>
19

>  <SCORE.norm>
-0.911209

>  <RMSD>
0.747

$$$$
ligand
 OpenBabel11021811483D
libRbt.so/2013.1/901 2013/11/27
 19 21  0  0  0  0  0  0  0  0999 V2000
   -6.4683   -7.2438   12.7563 C   0  0  0  0  0  0  0  0  0  0  0  0
   -5.1469   -6.9128   12.3040 O   0  0  0  0  0  0  0  0  0  0  0  0
   -7.5015   -6.9000   11.6811 C   0  0  1  0  0  0  0  0  0  0  0  0
   -7.4622   -5.4946   11.3676 O   0  0  0  0  0  0  0  0  0  0  0  0
   -7.2210   -7.6540   10.3932 C   0  0  1  0  0  0  0  0  0  0  0  0
   -8.1342   -8.7452   10.2234 O   0  0  0  0  0  0  0  0  0  0  0  0
   -7.3900   -6.6434    9.2796 C   0  0  0  0  0  0  0  0  0  0  0  0
   -7.3822   -5.2779    9.9512 C   0  0  2  0  0  0  0  0  0  0  0  0
   -5.0554   -0.5705    9.8134 N   0  0  0  0  0  0  0  0  0  0  0  0
   -6.3188   -0.9064   10.1893 C   0  0  1  0  0  0  0  0  0  0  0  0
   -7.1638    0.0681   10.6018 N   0  0  0  0  0  0  0  0  0  0  0  0
   -6.7535   -2.1955   10.1562 N   0  0  0  0  0  0  0  0  0  0  0  0
   -5.9459   -3.2118    9.7480 C   0  0  2  0  0  0  0  0  0  0  0  0
   -4.6506   -2.9297    9.3533 C   0  0  1  0  0  0  0  0  0  0  0  0
   -4.1881   -1.5190    9.3960 C   0  0  0  0  0  0  0  0  0  0  0  0
   -3.0234   -1.2144    9.0544 O   0  0  0  0  0  0  0  0  0  0  0  0
   -4.0656   -4.0893    9.0063 N   0  0  0  0  0  0  0  0  0  0  0  0
   -4.9806   -5.0723    9.1755 C   0  0  0  0  0  0  0  0  0  0  0  0
   -6.1284   -4.5351    9.6276 N   0  0  1  0  0  0  0  0  0  0  0  0
  1  2  1  0  0  0  0
  3  1  1  1  0  0  0
  3  4  1  0  0  0  0
  3  5  1  0  0  0  0
  5  6  1  6  0  0  0
  5  7  1  0  0  0  0
  7  8  1  0  0  0  0
  8  4  1  1  0  0  0
  8 19  1  0  0  0  0
  9 15  1  0  0  0  0
  9 10  1  0  0  0  0
 10 11  1  6  0  0  0
 10 12  1  0  0  0  0
 13 12  1  6  0  0  0
 13 14  1  0  0  0  0
 13 19  1  0  0  0  0
 14 15  1  1  0  0  0
 14 17  1  0  0  0  0
 15 16  2  0  0  0  0
 17 18  1  0  0  0  0
 19 18  1  1  0  0  0
M  END
>  <CHROM.1>
-59.73232886,-80.28188157,-6.06533501,-4.33869438,10.25003265,1.91894474
-0.36870935,3.05552239

>  <Name>
ligand

>  <RI>
0

>  <Rbt.Current_Directory>
/home/itssahil/PROJECTS/Mol_Feturizer/New_Systems/rnas/3SKI

>  <Rbt.Executable>
rbdock ($Id: //depot/dev/client3/rdock/2013.1/src/exe/rbdock.cxx#4 $)

>  <Rbt.Library>
libRbt.so (2013.1, Build901 2013/11/27)

>  <Rbt.Parameter_File>
/export/apps/rDock/src/rDock_2013.1_src/data/scripts/dock_solv.prm

>  <Rbt.Receptor>
prm/pocket_docking_7.prm

>  <SCORE>
-17.4461

>  <SCORE.INTER>
-14.9679

>  <SCORE.INTER.CONST>
1

>  <SCORE.INTER.POLAR>
0

>  <SCORE.INTER.ROT>
2

>  <SCORE.INTER.SOLV>
17.6405

>  <SCORE.INTER.VDW>
-20.7921

>  <SCORE.INTER.norm>
-0.787786

>  <SCORE.INTRA>
-2.47816

>  <SCORE.INTRA.DIHEDRAL>
-5.08169

>  <SCORE.INTRA.DIHEDRAL.0>
6.26853

>  <SCORE.INTRA.POLAR>
0

>  <SCORE.INTRA.POLAR.0>
0

>  <SCORE.INTRA.REPUL>
0

>  <SCORE.INTRA.REPUL.0>
0

>  <SCORE.INTRA.SOLV>
0.247626

>  <SCORE.INTRA.SOLV.lig_0>
-38.4926

>  <SCORE.INTRA.VDW>
-0.0611296

>  <SCORE.INTRA.VDW.0>
-0.59057

>  <SCORE.INTRA.norm>
-0.130429

>  <SCORE.RESTR>
0

>  <SCORE.RESTR.CAVITY>
0

>  <SCORE.RESTR.norm>
0

>  <SCORE.SYSTEM>
0

>  <SCORE.SYSTEM.CONST>
0

>  <SCORE.SYSTEM.DIHEDRAL>
0

>  <SCORE.SYSTEM.SOLV>
0

>  <SCORE.SYSTEM.norm>
0

>  <SCORE.heavy>
19

>  <SCORE.norm>
-0.918215

>  <RMSD>
0.747

$$$$
ligand
 OpenBabel11021811483D
libRbt.so/2013.1/901 2013/11/27
 19 21  0  0  0  0  0  0  0  0999 V2000
   -6.4534   -7.0889   12.7335 C   0  0  0  0  0  0  0  0  0  0  0  0
   -6.5899   -8.4711   13.0955 O   0  0  0  0  0  0  0  0  0  0  0  0
   -7.4917   -6.7098   11.6752 C   0  0  1  0  0  0  0  0  0  0  0  0
   -7.4262   -5.3017   11.3787 O   0  0  0  0  0  0  0  0  0  0  0  0
   -7.2425   -7.4532   10.3747 C   0  0  1  0  0  0  0  0  0  0  0  0
   -8.1806   -8.5227   10.2025 O   0  0  0  0  0  0  0  0  0  0  0  0
   -7.4031   -6.4252    9.2759 C   0  0  0  0  0  0  0  0  0  0  0  0
   -7.3582   -5.0689    9.9642 C   0  0  2  0  0  0  0  0  0  0  0  0
   -4.9676   -0.3961    9.7569 N   0  0  0  0  0  0  0  0  0  0  0  0
   -6.2374   -0.7084   10.1314 C   0  0  1  0  0  0  0  0  0  0  0  0
   -7.0716    0.2845   10.5219 N   0  0  0  0  0  0  0  0  0  0  0  0
   -6.6892   -1.9920   10.1185 N   0  0  0  0  0  0  0  0  0  0  0  0
   -5.8932   -3.0260    9.7329 C   0  0  2  0  0  0  0  0  0  0  0  0
   -4.5921   -2.7682    9.3407 C   0  0  1  0  0  0  0  0  0  0  0  0
   -4.1109   -1.3633    9.3612 C   0  0  0  0  0  0  0  0  0  0  0  0
   -2.9403   -1.0804    9.0209 O   0  0  0  0  0  0  0  0  0  0  0  0
   -4.0209   -3.9415    9.0175 N   0  0  0  0  0  0  0  0  0  0  0  0
   -4.9499   -4.9091    9.1988 C   0  0  0  0  0  0  0  0  0  0  0  0
   -6.0928   -4.3487    9.6347 N   0  0  1  0  0  0  0  0  0  0  0  0
  1  2  1  0  0  0  0
  3  1  1  1  0  0  0
  3  4  1  0  0  0  0
  3  5  1  0  0  0  0
  5  6  1  6  0  0  0
  5  7  1  0  0  0  0
  7  8  1  0  0  0  0
  8  4  1  1  0  0  0
  8 19  1  0  0  0  0
  9 15  1  0  0  0  0
  9 10  1  0  0  0  0
 10 11  1  6  0  0  0
 10 12  1  0  0  0  0
 13 12  1  6  0  0  0
 13 14  1  0  0  0  0
 13 19  1  0  0  0  0
 14 15  1  1  0  0  0
 14 17  1  0  0  0  0
 15 16  2  0  0  0  0
 17 18  1  0  0  0  0
 19 18  1  1  0  0  0
M  END
>  <CHROM.1>
175.76194737,-82.32900832,-6.11734620,-4.26101771,10.28105298,1.95443303
-0.51243809,3.07375589

>  <Name>
ligand

>  <RI>
0

>  <Rbt.Current_Directory>
/home/itssahil/PROJECTS/Mol_Feturizer/New_Systems/rnas/3SKI

>  <Rbt.Executable>
rbdock ($Id: //depot/dev/client3/rdock/2013.1/src/exe/rbdock.cxx#4 $)

>  <Rbt.Library>
libRbt.so (2013.1, Build901 2013/11/27)

>  <Rbt.Parameter_File>
/export/apps/rDock/src/rDock_2013.1_src/data/scripts/dock_solv.prm

>  <Rbt.Receptor>
prm/pocket_docking_2.prm

>  <SCORE>
-17.4676

>  <SCORE.INTER>
-15.0839

>  <SCORE.INTER.CONST>
1

>  <SCORE.INTER.POLAR>
0

>  <SCORE.INTER.ROT>
2

>  <SCORE.INTER.SOLV>
17.8014

>  <SCORE.INTER.VDW>
-20.9231

>  <SCORE.INTER.norm>
-0.79389

>  <SCORE.INTRA>
-2.38367

>  <SCORE.INTRA.DIHEDRAL>
-5.01973

>  <SCORE.INTRA.DIHEDRAL.0>
6.26853

>  <SCORE.INTRA.POLAR>
0

>  <SCORE.INTRA.POLAR.0>
0

>  <SCORE.INTRA.REPUL>
0

>  <SCORE.INTRA.REPUL.0>
0

>  <SCORE.INTRA.SOLV>
-0.0168475

>  <SCORE.INTRA.SOLV.lig_0>
-38.4926

>  <SCORE.INTRA.VDW>
0.134625

>  <SCORE.INTRA.VDW.0>
-0.59057

>  <SCORE.INTRA.norm>
-0.125456

>  <SCORE.RESTR>
0

>  <SCORE.RESTR.CAVITY>
0

>  <SCORE.RESTR.norm>
0

>  <SCORE.SYSTEM>
0

>  <SCORE.SYSTEM.CONST>
0

>  <SCORE.SYSTEM.DIHEDRAL>
0

>  <SCORE.SYSTEM.SOLV>
0

>  <SCORE.SYSTEM.norm>
0

>  <SCORE.heavy>
19

>  <SCORE.norm>
-0.919346

>  <RMSD>
0.754

$$$$
ligand
 OpenBabel11021811483D
libRbt.so/2013.1/901 2013/11/27
 19 21  0  0  0  0  0  0  0  0999 V2000
   -6.2939   -7.3548   12.5648 C   0  0  0  0  0  0  0  0  0  0  0  0
   -6.4259   -8.7696   12.7681 O   0  0  0  0  0  0  0  0  0  0  0  0
   -7.4203   -6.8377   11.6673 C   0  0  1  0  0  0  0  0  0  0  0  0
   -7.3245   -5.4100   11.5011 O   0  0  0  0  0  0  0  0  0  0  0  0
   -7.3425   -7.4558   10.2825 C   0  0  1  0  0  0  0  0  0  0  0  0
   -8.3397   -8.4708   10.1124 O   0  0  0  0  0  0  0  0  0  0  0  0
   -7.5727   -6.3187    9.3108 C   0  0  0  0  0  0  0  0  0  0  0  0
   -7.3959   -5.0399   10.1163 C   0  0  2  0  0  0  0  0  0  0  0  0
   -5.0001   -0.3836    9.7025 N   0  0  0  0  0  0  0  0  0  0  0  0
   -6.2555   -0.6813   10.1332 C   0  0  1  0  0  0  0  0  0  0  0  0
   -7.0708    0.3242   10.5309 N   0  0  0  0  0  0  0  0  0  0  0  0
   -6.7116   -1.9630   10.1692 N   0  0  0  0  0  0  0  0  0  0  0  0
   -5.9344   -3.0094    9.7788 C   0  0  2  0  0  0  0  0  0  0  0  0
   -4.6485   -2.7667    9.3306 C   0  0  1  0  0  0  0  0  0  0  0  0
   -4.1624   -1.3637    9.2980 C   0  0  0  0  0  0  0  0  0  0  0  0
   -3.0049   -1.0940    8.9061 O   0  0  0  0  0  0  0  0  0  0  0  0
   -4.0939   -3.9499    9.0146 N   0  0  0  0  0  0  0  0  0  0  0  0
   -5.0184   -4.9089    9.2552 C   0  0  0  0  0  0  0  0  0  0  0  0
   -6.1419   -4.3332    9.7209 N   0  0  1  0  0  0  0  0  0  0  0  0
  1  2  1  0  0  0  0
  3  1  1  1  0  0  0
  3  4  1  0  0  0  0
  3  5  1  0  0  0  0
  5  6  1  1  0  0  0
  5  7  1  0  0  0  0
  7  8  1  0  0  0  0
  8  4  1  1  0  0  0
  8 19  1  0  0  0  0
  9 15  1  0  0  0  0
  9 10  1  0  0  0  0
 10 11  1  6  0  0  0
 10 12  1  0  0  0  0
 13 12  1  6  0  0  0
 13 14  1  0  0  0  0
 13 19  1  0  0  0  0
 14 15  1  1  0  0  0
 14 17  1  0  0  0  0
 15 16  2  0  0  0  0
 17 18  1  0  0  0  0
 19 18  1  1  0  0  0
M  END
>  <CHROM.1>
177.76259782,-90.63133732,-6.13890471,-4.29040887,10.25751350,-1.91500384
0.40099146,-0.10995926

>  <Name>
ligand

>  <RI>
0

>  <Rbt.Current_Directory>
/home/itssahil/PROJECTS/Mol_Feturizer/New_Systems/rnas/3SKI

>  <Rbt.Executable>
rbdock ($Id: //depot/dev/client3/rdock/2013.1/src/exe/rbdock.cxx#4 $)

>  <Rbt.Library>
libRbt.so (2013.1, Build901 2013/11/27)

>  <Rbt.Parameter_File>
/export/apps/rDock/src/rDock_2013.1_src/data/scripts/dock_solv.prm

>  <Rbt.Receptor>
prm/pocket_docking_3.prm

>  <SCORE>
-17.3198

>  <SCORE.INTER>
-14.7844

>  <SCORE.INTER.CONST>
1

>  <SCORE.INTER.POLAR>
0

>  <SCORE.INTER.ROT>
2

>  <SCORE.INTER.SOLV>
17.6006

>  <SCORE.INTER.VDW>
-20.6565

>  <SCORE.INTER.norm>
-0.778128

>  <SCORE.INTRA>
-2.53541

>  <SCORE.INTRA.DIHEDRAL>
-5.06697

>  <SCORE.INTRA.DIHEDRAL.0>
6.26853

>  <SCORE.INTRA.POLAR>
0

>  <SCORE.INTRA.POLAR.0>
0

>  <SCORE.INTRA.REPUL>
0

>  <SCORE.INTRA.REPUL.0>
0

>  <SCORE.INTRA.SOLV>
-0.012816

>  <SCORE.INTRA.SOLV.lig_0>
-38.4926

>  <SCORE.INTRA.VDW>
0.00447888

>  <SCORE.INTRA.VDW.0>
-0.59057

>  <SCORE.INTRA.norm>
-0.133443

>  <SCORE.RESTR>
0

>  <SCORE.RESTR.CAVITY>
0

>  <SCORE.RESTR.norm>
0

>  <SCORE.SYSTEM>
0

>  <SCORE.SYSTEM.CONST>
0

>  <SCORE.SYSTEM.DIHEDRAL>
0

>  <SCORE.SYSTEM.SOLV>
0

>  <SCORE.SYSTEM.norm>
0

>  <SCORE.heavy>
19

>  <SCORE.norm>
-0.91157

>  <RMSD>
0.755

$$$$
ligand
 OpenBabel11021811483D
libRbt.so/2013.1/901 2013/11/27
 19 21  0  0  0  0  0  0  0  0999 V2000
   -6.3266   -7.2965   12.7224 C   0  0  0  0  0  0  0  0  0  0  0  0
   -5.0210   -6.9534   12.2347 O   0  0  0  0  0  0  0  0  0  0  0  0
   -7.3953   -6.9244   11.6922 C   0  0  1  0  0  0  0  0  0  0  0  0
   -7.3641   -5.5115   11.4134 O   0  0  0  0  0  0  0  0  0  0  0  0
   -7.1605   -7.6456   10.3767 C   0  0  1  0  0  0  0  0  0  0  0  0
   -8.0810   -8.7312   10.2106 O   0  0  0  0  0  0  0  0  0  0  0  0
   -7.3654   -6.6068    9.2956 C   0  0  0  0  0  0  0  0  0  0  0  0
   -7.3320   -5.2589   10.0010 C   0  0  2  0  0  0  0  0  0  0  0  0
   -5.0527   -0.5322    9.7651 N   0  0  0  0  0  0  0  0  0  0  0  0
   -6.3092   -0.8740   10.1581 C   0  0  1  0  0  0  0  0  0  0  0  0
   -7.1600    0.0989   10.5626 N   0  0  0  0  0  0  0  0  0  0  0  0
   -6.7316   -2.1677   10.1500 N   0  0  0  0  0  0  0  0  0  0  0  0
   -5.9179   -3.1826    9.7509 C   0  0  2  0  0  0  0  0  0  0  0  0
   -4.6291   -2.8946    9.3396 C   0  0  1  0  0  0  0  0  0  0  0  0
   -4.1800   -1.4790    9.3550 C   0  0  0  0  0  0  0  0  0  0  0  0
   -3.0215   -1.1688    8.9976 O   0  0  0  0  0  0  0  0  0  0  0  0
   -4.0360   -4.0540    9.0061 N   0  0  0  0  0  0  0  0  0  0  0  0
   -4.9398   -5.0429    9.1997 C   0  0  0  0  0  0  0  0  0  0  0  0
   -6.0886   -4.5094    9.6537 N   0  0  1  0  0  0  0  0  0  0  0  0
  1  2  1  0  0  0  0
  3  1  1  1  0  0  0
  3  4  1  0  0  0  0
  3  5  1  0  0  0  0
  5  6  1  6  0  0  0
  5  7  1  0  0  0  0
  7  8  1  0  0  0  0
  8  4  1  1  0  0  0
  8 19  1  0  0  0  0
  9 15  1  0  0  0  0
  9 10  1  0  0  0  0
 10 11  1  6  0  0  0
 10 12  1  0  0  0  0
 13 12  1  6  0  0  0
 13 14  1  0  0  0  0
 13 19  1  0  0  0  0
 14 15  1  1  0  0  0
 14 17  1  0  0  0  0
 15 16  2  0  0  0  0
 17 18  1  0  0  0  0
 19 18  1  1  0  0  0
M  END
>  <CHROM.1>
-59.63176140,-83.14017005,-6.01828846,-4.32318195,10.23924039,-1.89787870
0.33548613,-0.10856395

>  <Name>
ligand

>  <RI>
0

>  <Rbt.Current_Directory>
/home/itssahil/PROJECTS/Mol_Feturizer/New_Systems/rnas/3SKI

>  <Rbt.Executable>
rbdock ($Id: //depot/dev/client3/rdock/2013.1/src/exe/rbdock.cxx#4 $)

>  <Rbt.Library>
libRbt.so (2013.1, Build901 2013/11/27)

>  <Rbt.Parameter_File>
/export/apps/rDock/src/rDock_2013.1_src/data/scripts/dock_solv.prm

>  <Rbt.Receptor>
prm/pocket_docking_3.prm

>  <SCORE>
-17.3475

>  <SCORE.INTER>
-14.8372

>  <SCORE.INTER.CONST>
1

>  <SCORE.INTER.POLAR>
0

>  <SCORE.INTER.ROT>
2

>  <SCORE.INTER.SOLV>
17.8021

>  <SCORE.INTER.VDW>
-20.7588

>  <SCORE.INTER.norm>
-0.780904

>  <SCORE.INTRA>
-2.51033

>  <SCORE.INTRA.DIHEDRAL>
-5.08255

>  <SCORE.INTRA.DIHEDRAL.0>
6.26853

>  <SCORE.INTRA.POLAR>
0

>  <SCORE.INTRA.POLAR.0>
0

>  <SCORE.INTRA.REPUL>
0

>  <SCORE.INTRA.REPUL.0>
0

>  <SCORE.INTRA.SOLV>
0.250604

>  <SCORE.INTRA.SOLV.lig_0>
-38.4926

>  <SCORE.INTRA.VDW>
-0.0943569

>  <SCORE.INTRA.VDW.0>
-0.59057

>  <SCORE.INTRA.norm>
-0.132123

>  <SCORE.RESTR>
0

>  <SCORE.RESTR.CAVITY>
0

>  <SCORE.RESTR.norm>
0

>  <SCORE.SYSTEM>
0

>  <SCORE.SYSTEM.CONST>
0

>  <SCORE.SYSTEM.DIHEDRAL>
0

>  <SCORE.SYSTEM.SOLV>
0

>  <SCORE.SYSTEM.norm>
0

>  <SCORE.heavy>
19

>  <SCORE.norm>
-0.913027

>  <RMSD>
0.756

$$$$
ligand
 OpenBabel11021811483D
libRbt.so/2013.1/901 2013/11/27
 19 21  0  0  0  0  0  0  0  0999 V2000
   -6.2454   -7.3393   12.5944 C   0  0  0  0  0  0  0  0  0  0  0  0
   -6.3768   -8.7527   12.8072 O   0  0  0  0  0  0  0  0  0  0  0  0
   -7.3786   -6.8267   11.7028 C   0  0  1  0  0  0  0  0  0  0  0  0
   -7.2846   -5.3998   11.5294 O   0  0  0  0  0  0  0  0  0  0  0  0
   -7.3107   -7.4511   10.3203 C   0  0  1  0  0  0  0  0  0  0  0  0
   -8.3087   -8.4673   10.1622 O   0  0  0  0  0  0  0  0  0  0  0  0
   -7.5484   -6.3186    9.3451 C   0  0  0  0  0  0  0  0  0  0  0  0
   -7.3663   -5.0361   10.1435 C   0  0  2  0  0  0  0  0  0  0  0  0
   -4.9617   -0.3845    9.7270 N   0  0  0  0  0  0  0  0  0  0  0  0
   -6.2121   -0.6811   10.1726 C   0  0  1  0  0  0  0  0  0  0  0  0
   -7.0188    0.3243   10.5877 N   0  0  0  0  0  0  0  0  0  0  0  0
   -6.6717   -1.9616   10.2067 N   0  0  0  0  0  0  0  0  0  0  0  0
   -5.9031   -3.0079    9.7991 C   0  0  2  0  0  0  0  0  0  0  0  0
   -4.6226   -2.7662    9.3352 C   0  0  1  0  0  0  0  0  0  0  0  0
   -4.1326   -1.3646    9.3050 C   0  0  0  0  0  0  0  0  0  0  0  0
   -2.9797   -1.0959    8.8992 O   0  0  0  0  0  0  0  0  0  0  0  0
   -4.0761   -3.9491    9.0043 N   0  0  0  0  0  0  0  0  0  0  0  0
   -5.0003   -4.9068    9.2512 C   0  0  0  0  0  0  0  0  0  0  0  0
   -6.1155   -4.3307    9.7357 N   0  0  1  0  0  0  0  0  0  0  0  0
  1  2  1  0  0  0  0
  3  1  1  1  0  0  0
  3  4  1  0  0  0  0
  3  5  1  0  0  0  0
  5  6  1  1  0  0  0
  5  7  1  0  0  0  0
  7  8  1  0  0  0  0
  8  4  1  1  0  0  0
  8 19  1  0  0  0  0
  9 15  1  0  0  0  0
  9 10  1  0  0  0  0
 10 11  1  6  0  0  0
 10 12  1  0  0  0  0
 13 12  1  6  0  0  0
 13 14  1  0  0  0  0
 13 19  1  0  0  0  0
 14 15  1  1  0  0  0
 14 17  1  0  0  0  0
 15 16  2  0  0  0  0
 17 18  1  0  0  0  0
 19 18  1  1  0  0  0
M  END
>  <CHROM.1>
177.64750247,-89.88589424,-6.10476800,-4.28648351,10.28241628,-1.91927502
0.42652395,-0.10256243

>  <Name>
ligand

>  <RI>
0

>  <Rbt.Current_Directory>
/home/itssahil/PROJECTS/Mol_Feturizer/New_Systems/rnas/3SKI

>  <Rbt.Executable>
rbdock ($Id: //depot/dev/client3/rdock/2013.1/src/exe/rbdock.cxx#4 $)

>  <Rbt.Library>
libRbt.so (2013.1, Build901 2013/11/27)

>  <Rbt.Parameter_File>
/export/apps/rDock/src/rDock_2013.1_src/data/scripts/dock_solv.prm

>  <Rbt.Receptor>
prm/pocket_docking_7.prm

>  <SCORE>
-17.3237

>  <SCORE.INTER>
-14.8018

>  <SCORE.INTER.CONST>
1

>  <SCORE.INTER.POLAR>
0

>  <SCORE.INTER.ROT>
2

>  <SCORE.INTER.SOLV>
17.4611

>  <SCORE.INTER.VDW>
-20.6216

>  <SCORE.INTER.norm>
-0.77904

>  <SCORE.INTRA>
-2.52192

>  <SCORE.INTRA.DIHEDRAL>
-5.06512

>  <SCORE.INTRA.DIHEDRAL.0>
6.26853

>  <SCORE.INTRA.POLAR>
0

>  <SCORE.INTRA.POLAR.0>
0

>  <SCORE.INTRA.REPUL>
0

>  <SCORE.INTRA.REPUL.0>
0

>  <SCORE.INTRA.SOLV>
-0.0128508

>  <SCORE.INTRA.SOLV.lig_0>
-38.4926

>  <SCORE.INTRA.VDW>
0.0170682

>  <SCORE.INTRA.VDW.0>
-0.59057

>  <SCORE.INTRA.norm>
-0.132733

>  <SCORE.RESTR>
0

>  <SCORE.RESTR.CAVITY>
0

>  <SCORE.RESTR.norm>
0

>  <SCORE.SYSTEM>
0

>  <SCORE.SYSTEM.CONST>
0

>  <SCORE.SYSTEM.DIHEDRAL>
0

>  <SCORE.SYSTEM.SOLV>
0

>  <SCORE.SYSTEM.norm>
0

>  <SCORE.heavy>
19

>  <SCORE.norm>
-0.911772

>  <RMSD>
0.758

$$$$
ligand
 OpenBabel11021811483D
libRbt.so/2013.1/901 2013/11/27
 19 21  0  0  0  0  0  0  0  0999 V2000
   -6.3592   -7.3758   12.5929 C   0  0  0  0  0  0  0  0  0  0  0  0
   -6.5139   -8.7864   12.8083 O   0  0  0  0  0  0  0  0  0  0  0  0
   -7.4690   -6.8511   11.6792 C   0  0  1  0  0  0  0  0  0  0  0  0
   -7.3582   -5.4249   11.5103 O   0  0  0  0  0  0  0  0  0  0  0  0
   -7.3788   -7.4739   10.2972 C   0  0  1  0  0  0  0  0  0  0  0  0
   -8.3828   -8.4804   10.1170 O   0  0  0  0  0  0  0  0  0  0  0  0
   -7.5858   -6.3377    9.3194 C   0  0  0  0  0  0  0  0  0  0  0  0
   -7.4080   -5.0582   10.1237 C   0  0  2  0  0  0  0  0  0  0  0  0
   -4.9707   -0.4232    9.7118 N   0  0  0  0  0  0  0  0  0  0  0  0
   -6.2350   -0.7082   10.1247 C   0  0  1  0  0  0  0  0  0  0  0  0
   -7.0488    0.3065   10.5016 N   0  0  0  0  0  0  0  0  0  0  0  0
   -6.7013   -1.9861   10.1635 N   0  0  0  0  0  0  0  0  0  0  0  0
   -5.9259   -3.0413    9.7936 C   0  0  2  0  0  0  0  0  0  0  0  0
   -4.6313   -2.8118    9.3641 C   0  0  1  0  0  0  0  0  0  0  0  0
   -4.1341   -1.4128    9.3283 C   0  0  0  0  0  0  0  0  0  0  0  0
   -2.9686   -1.1548    8.9528 O   0  0  0  0  0  0  0  0  0  0  0  0
   -4.0808   -4.0015    9.0662 N   0  0  0  0  0  0  0  0  0  0  0  0
   -5.0163   -4.9517    9.2994 C   0  0  0  0  0  0  0  0  0  0  0  0
   -6.1425   -4.3640    9.7427 N   0  0  1  0  0  0  0  0  0  0  0  0
  1  2  1  0  0  0  0
  3  1  1  1  0  0  0
  3  4  1  0  0  0  0
  3  5  1  0  0  0  0
  5  6  1  1  0  0  0
  5  7  1  0  0  0  0
  7  8  1  0  0  0  0
  8  4  1  1  0  0  0
  8 19  1  0  0  0  0
  9 15  1  0  0  0  0
  9 10  1  0  0  0  0
 10 11  1  6  0  0  0
 10 12  1  0  0  0  0
 13 12  1  6  0  0  0
 13 14  1  0  0  0  0
 13 19  1  0  0  0  0
 14 15  1  1  0  0  0
 14 17  1  0  0  0  0
 15 16  2  0  0  0  0
 17 18  1  0  0  0  0
 19 18  1  1  0  0  0
M  END
>  <CHROM.1>
177.23051699,-90.96935671,-6.14832987,-4.31903293,10.27517470,-1.92444210
0.38228742,-0.11382767

>  <Name>
ligand

>  <RI>
0

>  <Rbt.Current_Directory>
/home/itssahil/PROJECTS/Mol_Feturizer/New_Systems/rnas/3SKI

>  <Rbt.Executable>
rbdock ($Id: //depot/dev/client3/rdock/2013.1/src/exe/rbdock.cxx#4 $)

>  <Rbt.Library>
libRbt.so (2013.1, Build901 2013/11/27)

>  <Rbt.Parameter_File>
/export/apps/rDock/src/rDock_2013.1_src/data/scripts/dock_solv.prm

>  <Rbt.Receptor>
prm/pocket_docking_4.prm

>  <SCORE>
-17.314

>  <SCORE.INTER>
-14.7717

>  <SCORE.INTER.CONST>
1

>  <SCORE.INTER.POLAR>
0

>  <SCORE.INTER.ROT>
2

>  <SCORE.INTER.SOLV>
17.5367

>  <SCORE.INTER.VDW>
-20.6267

>  <SCORE.INTER.norm>
-0.777457

>  <SCORE.INTRA>
-2.54234

>  <SCORE.INTRA.DIHEDRAL>
-5.05753

>  <SCORE.INTRA.DIHEDRAL.0>
6.26853

>  <SCORE.INTRA.POLAR>
0

>  <SCORE.INTRA.POLAR.0>
0

>  <SCORE.INTRA.REPUL>
0

>  <SCORE.INTRA.REPUL.0>
0

>  <SCORE.INTRA.SOLV>
-0.0157142

>  <SCORE.INTRA.SOLV.lig_0>
-38.4926

>  <SCORE.INTRA.VDW>
-0.00571905

>  <SCORE.INTRA.VDW.0>
-0.59057

>  <SCORE.INTRA.norm>
-0.133807

>  <SCORE.RESTR>
0

>  <SCORE.RESTR.CAVITY>
0

>  <SCORE.RESTR.norm>
0

>  <SCORE.SYSTEM>
0

>  <SCORE.SYSTEM.CONST>
0

>  <SCORE.SYSTEM.DIHEDRAL>
0

>  <SCORE.SYSTEM.SOLV>
0

>  <SCORE.SYSTEM.norm>
0

>  <SCORE.heavy>
19

>  <SCORE.norm>
-0.911265

>  <RMSD>
0.761

$$$$
ligand
 OpenBabel11021811483D
libRbt.so/2013.1/901 2013/11/27
 19 21  0  0  0  0  0  0  0  0999 V2000
   -6.4574   -7.0876   12.7249 C   0  0  0  0  0  0  0  0  0  0  0  0
   -6.5858   -8.4686   13.0945 O   0  0  0  0  0  0  0  0  0  0  0  0
   -7.4956   -6.7214   11.6619 C   0  0  1  0  0  0  0  0  0  0  0  0
   -7.4366   -5.3152   11.3553 O   0  0  0  0  0  0  0  0  0  0  0  0
   -7.2403   -7.4730   10.3674 C   0  0  1  0  0  0  0  0  0  0  0  0
   -8.1727   -8.5484   10.2012 O   0  0  0  0  0  0  0  0  0  0  0  0
   -7.4039   -6.4539    9.2607 C   0  0  0  0  0  0  0  0  0  0  0  0
   -7.3671   -5.0924    9.9392 C   0  0  2  0  0  0  0  0  0  0  0  0
   -4.9808   -0.4163    9.7581 N   0  0  0  0  0  0  0  0  0  0  0  0
   -6.2475   -0.7329   10.1395 C   0  0  1  0  0  0  0  0  0  0  0  0
   -7.0791    0.2556   10.5459 N   0  0  0  0  0  0  0  0  0  0  0  0
   -6.6987   -2.0167   10.1178 N   0  0  0  0  0  0  0  0  0  0  0  0
   -5.9051   -3.0464    9.7161 C   0  0  2  0  0  0  0  0  0  0  0  0
   -4.6072   -2.7841    9.3163 C   0  0  1  0  0  0  0  0  0  0  0  0
   -4.1267   -1.3792    9.3465 C   0  0  0  0  0  0  0  0  0  0  0  0
   -2.9590   -1.0922    8.9998 O   0  0  0  0  0  0  0  0  0  0  0  0
   -4.0379   -3.9539    8.9775 N   0  0  0  0  0  0  0  0  0  0  0  0
   -4.9650   -4.9237    9.1566 C   0  0  0  0  0  0  0  0  0  0  0  0
   -6.1048   -4.3682    9.6068 N   0  0  1  0  0  0  0  0  0  0  0  0
  1  2  1  0  0  0  0
  3  1  1  1  0  0  0
  3  4  1  0  0  0  0
  3  5  1  0  0  0  0
  5  6  1  6  0  0  0
  5  7  1  0  0  0  0
  7  8  1  0  0  0  0
  8  4  1  1  0  0  0
  8 19  1  0  0  0  0
  9 15  1  0  0  0  0
  9 10  1  0  0  0  0
 10 11  1  6  0  0  0
 10 12  1  0  0  0  0
 13 12  1  6  0  0  0
 13 14  1  0  0  0  0
 13 19  1  0  0  0  0
 14 15  1  1  0  0  0
 14 17  1  0  0  0  0
 15 16  2  0  0  0  0
 17 18  1  0  0  0  0
 19 18  1  1  0  0  0
M  END
>  <CHROM.1>
175.88840417,-81.18813120,-6.12546443,-4.27807336,10.26816307,1.96005607
-0.54062156,3.08672577

>  <Name>
ligand

>  <RI>
0

>  <Rbt.Current_Directory>
/home/itssahil/PROJECTS/Mol_Feturizer/New_Systems/rnas/3SKI

>  <Rbt.Executable>
rbdock ($Id: //depot/dev/client3/rdock/2013.1/src/exe/rbdock.cxx#4 $)

>  <Rbt.Library>
libRbt.so (2013.1, Build901 2013/11/27)

>  <Rbt.Parameter_File>
/export/apps/rDock/src/rDock_2013.1_src/data/scripts/dock_solv.prm

>  <Rbt.Receptor>
prm/pocket_docking_2.prm

>  <SCORE>
-17.5135

>  <SCORE.INTER>
-15.131

>  <SCORE.INTER.CONST>
1

>  <SCORE.INTER.POLAR>
0

>  <SCORE.INTER.ROT>
2

>  <SCORE.INTER.SOLV>
17.7595

>  <SCORE.INTER.VDW>
-20.9405

>  <SCORE.INTER.norm>
-0.796367

>  <SCORE.INTRA>
-2.3825

>  <SCORE.INTRA.DIHEDRAL>
-5.02303

>  <SCORE.INTRA.DIHEDRAL.0>
6.26853

>  <SCORE.INTRA.POLAR>
0

>  <SCORE.INTRA.POLAR.0>
0

>  <SCORE.INTRA.REPUL>
0

>  <SCORE.INTRA.REPUL.0>
0

>  <SCORE.INTRA.SOLV>
-0.0153885

>  <SCORE.INTRA.SOLV.lig_0>
-38.4926

>  <SCORE.INTRA.VDW>
0.13671

>  <SCORE.INTRA.VDW.0>
-0.59057

>  <SCORE.INTRA.norm>
-0.125395

>  <SCORE.RESTR>
0

>  <SCORE.RESTR.CAVITY>
0

>  <SCORE.RESTR.norm>
0

>  <SCORE.SYSTEM>
0

>  <SCORE.SYSTEM.CONST>
0

>  <SCORE.SYSTEM.DIHEDRAL>
0

>  <SCORE.SYSTEM.SOLV>
0

>  <SCORE.SYSTEM.norm>
0

>  <SCORE.heavy>
19

>  <SCORE.norm>
-0.921761

>  <RMSD>
0.766

$$$$
ligand
 OpenBabel11021811483D
libRbt.so/2013.1/901 2013/11/27
 19 21  0  0  0  0  0  0  0  0999 V2000
   -6.4572   -7.0977   12.7480 C   0  0  0  0  0  0  0  0  0  0  0  0
   -6.5739   -8.4843   13.0999 O   0  0  0  0  0  0  0  0  0  0  0  0
   -7.4949   -6.7280   11.6857 C   0  0  1  0  0  0  0  0  0  0  0  0
   -7.4335   -5.3214   11.3812 O   0  0  0  0  0  0  0  0  0  0  0  0
   -7.2411   -7.4780   10.3900 C   0  0  1  0  0  0  0  0  0  0  0  0
   -8.1754   -8.5515   10.2222 O   0  0  0  0  0  0  0  0  0  0  0  0
   -7.4030   -6.4569    9.2849 C   0  0  0  0  0  0  0  0  0  0  0  0
   -7.3638   -5.0965    9.9655 C   0  0  2  0  0  0  0  0  0  0  0  0
   -4.9798   -0.4203    9.7600 N   0  0  0  0  0  0  0  0  0  0  0  0
   -6.2483   -0.7348   10.1371 C   0  0  1  0  0  0  0  0  0  0  0  0
   -7.0828    0.2563   10.5313 N   0  0  0  0  0  0  0  0  0  0  0  0
   -6.6984   -2.0190   10.1233 N   0  0  0  0  0  0  0  0  0  0  0  0
   -5.9020   -3.0513    9.7340 C   0  0  2  0  0  0  0  0  0  0  0  0
   -4.6022   -2.7912    9.3390 C   0  0  1  0  0  0  0  0  0  0  0  0
   -4.1228   -1.3857    9.3606 C   0  0  0  0  0  0  0  0  0  0  0  0
   -2.9535   -1.1007    9.0179 O   0  0  0  0  0  0  0  0  0  0  0  0
   -4.0303   -3.9632    9.0125 N   0  0  0  0  0  0  0  0  0  0  0  0
   -4.9576   -4.9323    9.1945 C   0  0  0  0  0  0  0  0  0  0  0  0
   -6.1002   -4.3741    9.6342 N   0  0  1  0  0  0  0  0  0  0  0  0
  1  2  1  0  0  0  0
  3  1  1  1  0  0  0
  3  4  1  0  0  0  0
  3  5  1  0  0  0  0
  5  6  1  6  0  0  0
  5  7  1  0  0  0  0
  7  8  1  0  0  0  0
  8  4  1  1  0  0  0
  8 19  1  0  0  0  0
  9 15  1  0  0  0  0
  9 10  1  0  0  0  0
 10 11  1  6  0  0  0
 10 12  1  0  0  0  0
 13 12  1  6  0  0  0
 13 14  1  0  0  0  0
 13 19  1  0  0  0  0
 14 15  1  1  0  0  0
 14 17  1  0  0  0  0
 15 16  2  0  0  0  0
 17 18  1  0  0  0  0
 19 18  1  1  0  0  0
M  END
>  <CHROM.1>
176.81449852,-81.83021763,-6.12278168,-4.28405056,10.28575455,1.95404948
-0.51942753,3.07462465

>  <Name>
ligand

>  <RI>
0

>  <Rbt.Current_Directory>
/home/itssahil/PROJECTS/Mol_Feturizer/New_Systems/rnas/3SKI

>  <Rbt.Executable>
rbdock ($Id: //depot/dev/client3/rdock/2013.1/src/exe/rbdock.cxx#4 $)

>  <Rbt.Library>
libRbt.so (2013.1, Build901 2013/11/27)

>  <Rbt.Parameter_File>
/export/apps/rDock/src/rDock_2013.1_src/data/scripts/dock_solv.prm

>  <Rbt.Receptor>
prm/pocket_docking_2.prm

>  <SCORE>
-17.4476

>  <SCORE.INTER>
-15.0516

>  <SCORE.INTER.CONST>
1

>  <SCORE.INTER.POLAR>
0

>  <SCORE.INTER.ROT>
2

>  <SCORE.INTER.SOLV>
17.7683

>  <SCORE.INTER.VDW>
-20.8905

>  <SCORE.INTER.norm>
-0.792189

>  <SCORE.INTRA>
-2.39605

>  <SCORE.INTRA.DIHEDRAL>
-5.04724

>  <SCORE.INTRA.DIHEDRAL.0>
6.26853

>  <SCORE.INTRA.POLAR>
0

>  <SCORE.INTRA.POLAR.0>
0

>  <SCORE.INTRA.REPUL>
0

>  <SCORE.INTRA.REPUL.0>
0

>  <SCORE.INTRA.SOLV>
-0.0111948

>  <SCORE.INTRA.SOLV.lig_0>
-38.4926

>  <SCORE.INTRA.VDW>
0.133169

>  <SCORE.INTRA.VDW.0>
-0.59057

>  <SCORE.INTRA.norm>
-0.126108

>  <SCORE.RESTR>
0

>  <SCORE.RESTR.CAVITY>
0

>  <SCORE.RESTR.norm>
0

>  <SCORE.SYSTEM>
0

>  <SCORE.SYSTEM.CONST>
0

>  <SCORE.SYSTEM.DIHEDRAL>
0

>  <SCORE.SYSTEM.SOLV>
0

>  <SCORE.SYSTEM.norm>
0

>  <SCORE.heavy>
19

>  <SCORE.norm>
-0.918296

>  <RMSD>
0.770

$$$$
ligand
 OpenBabel11021811483D
libRbt.so/2013.1/901 2013/11/27
 19 21  0  0  0  0  0  0  0  0999 V2000
   -6.4631   -7.0472   12.7508 C   0  0  0  0  0  0  0  0  0  0  0  0
   -6.5870   -8.4230   13.1406 O   0  0  0  0  0  0  0  0  0  0  0  0
   -7.4962   -6.7025   11.6758 C   0  0  1  0  0  0  0  0  0  0  0  0
   -7.4430   -5.3006   11.3489 O   0  0  0  0  0  0  0  0  0  0  0  0
   -7.2280   -7.4714   10.3941 C   0  0  1  0  0  0  0  0  0  0  0  0
   -8.1533   -8.5545   10.2375 O   0  0  0  0  0  0  0  0  0  0  0  0
   -7.3899   -6.4696    9.2716 C   0  0  0  0  0  0  0  0  0  0  0  0
   -7.3653   -5.0981    9.9303 C   0  0  2  0  0  0  0  0  0  0  0  0
   -4.9736   -0.4235    9.7855 N   0  0  0  0  0  0  0  0  0  0  0  0
   -6.2373   -0.7430   10.1742 C   0  0  1  0  0  0  0  0  0  0  0  0
   -7.0639    0.2416   10.6000 N   0  0  0  0  0  0  0  0  0  0  0  0
   -6.6907   -2.0258   10.1407 N   0  0  0  0  0  0  0  0  0  0  0  0
   -5.9022   -3.0516    9.7194 C   0  0  2  0  0  0  0  0  0  0  0  0
   -4.6075   -2.7862    9.3114 C   0  0  1  0  0  0  0  0  0  0  0  0
   -4.1246   -1.3825    9.3546 C   0  0  0  0  0  0  0  0  0  0  0  0
   -2.9595   -1.0929    9.0012 O   0  0  0  0  0  0  0  0  0  0  0  0
   -4.0430   -3.9526    8.9532 N   0  0  0  0  0  0  0  0  0  0  0  0
   -4.9699   -4.9232    9.1286 C   0  0  0  0  0  0  0  0  0  0  0  0
   -6.1048   -4.3717    9.5957 N   0  0  1  0  0  0  0  0  0  0  0  0
  1  2  1  0  0  0  0
  3  1  1  1  0  0  0
  3  4  1  0  0  0  0
  3  5  1  0  0  0  0
  5  6  1  6  0  0  0
  5  7  1  0  0  0  0
  7  8  1  0  0  0  0
  8  4  1  1  0  0  0
  8 19  1  0  0  0  0
  9 15  1  0  0  0  0
  9 10  1  0  0  0  0
 10 11  1  6  0  0  0
 10 12  1  0  0  0  0
 13 12  1  6  0  0  0
 13 14  1  0  0  0  0
 13 19  1  0  0  0  0
 14 15  1  1  0  0  0
 14 17  1  0  0  0  0
 15 16  2  0  0  0  0
 17 18  1  0  0  0  0
 19 18  1  1  0  0  0
M  END
>  <CHROM.1>
175.84139327,-79.36133140,-6.12183457,-4.27539822,10.28076921,1.97376210
-0.58295839,3.10741265

>  <Name>
ligand

>  <RI>
0

>  <Rbt.Current_Directory>
/home/itssahil/PROJECTS/Mol_Feturizer/New_Systems/rnas/3SKI

>  <Rbt.Executable>
rbdock ($Id: //depot/dev/client3/rdock/2013.1/src/exe/rbdock.cxx#4 $)

>  <Rbt.Library>
libRbt.so (2013.1, Build901 2013/11/27)

>  <Rbt.Parameter_File>
/export/apps/rDock/src/rDock_2013.1_src/data/scripts/dock_solv.prm

>  <Rbt.Receptor>
prm/pocket_docking_6.prm

>  <SCORE>
-17.4918

>  <SCORE.INTER>
-15.1383

>  <SCORE.INTER.CONST>
1

>  <SCORE.INTER.POLAR>
0

>  <SCORE.INTER.ROT>
2

>  <SCORE.INTER.SOLV>
17.7013

>  <SCORE.INTER.VDW>
-20.9259

>  <SCORE.INTER.norm>
-0.79675

>  <SCORE.INTRA>
-2.35352

>  <SCORE.INTRA.DIHEDRAL>
-5.0208

>  <SCORE.INTRA.DIHEDRAL.0>
6.26853

>  <SCORE.INTRA.POLAR>
0

>  <SCORE.INTRA.POLAR.0>
0

>  <SCORE.INTRA.REPUL>
0

>  <SCORE.INTRA.REPUL.0>
0

>  <SCORE.INTRA.SOLV>
-0.0143144

>  <SCORE.INTRA.SOLV.lig_0>
-38.4926

>  <SCORE.INTRA.VDW>
0.16404

>  <SCORE.INTRA.VDW.0>
-0.59057

>  <SCORE.INTRA.norm>
-0.123869

>  <SCORE.RESTR>
0

>  <SCORE.RESTR.CAVITY>
0

>  <SCORE.RESTR.norm>
0

>  <SCORE.SYSTEM>
0

>  <SCORE.SYSTEM.CONST>
0

>  <SCORE.SYSTEM.DIHEDRAL>
0

>  <SCORE.SYSTEM.SOLV>
0

>  <SCORE.SYSTEM.norm>
0

>  <SCORE.heavy>
19

>  <SCORE.norm>
-0.920619

>  <RMSD>
0.770

$$$$
ligand
 OpenBabel11021811483D
libRbt.so/2013.1/901 2013/11/27
 19 21  0  0  0  0  0  0  0  0999 V2000
   -6.4823   -7.0733   12.7274 C   0  0  0  0  0  0  0  0  0  0  0  0
   -6.6267   -8.4446   13.1259 O   0  0  0  0  0  0  0  0  0  0  0  0
   -7.5097   -6.7202   11.6497 C   0  0  1  0  0  0  0  0  0  0  0  0
   -7.4517   -5.3166   11.3309 O   0  0  0  0  0  0  0  0  0  0  0  0
   -7.2374   -7.4826   10.3650 C   0  0  1  0  0  0  0  0  0  0  0  0
   -8.1645   -8.5625   10.1982 O   0  0  0  0  0  0  0  0  0  0  0  0
   -7.3919   -6.4742    9.2473 C   0  0  0  0  0  0  0  0  0  0  0  0
   -7.3671   -5.1064    9.9137 C   0  0  2  0  0  0  0  0  0  0  0  0
   -4.9839   -0.4282    9.7464 N   0  0  0  0  0  0  0  0  0  0  0  0
   -6.2526   -0.7459   10.1202 C   0  0  1  0  0  0  0  0  0  0  0  0
   -7.0875    0.2419   10.5214 N   0  0  0  0  0  0  0  0  0  0  0  0
   -6.7025   -2.0301   10.0960 N   0  0  0  0  0  0  0  0  0  0  0  0
   -5.9055   -3.0592    9.6992 C   0  0  2  0  0  0  0  0  0  0  0  0
   -4.6055   -2.7957    9.3072 C   0  0  1  0  0  0  0  0  0  0  0  0
   -4.1264   -1.3904    9.3401 C   0  0  0  0  0  0  0  0  0  0  0  0
   -2.9569   -1.1024    9.0005 O   0  0  0  0  0  0  0  0  0  0  0  0
   -4.0331   -3.9650    8.9720 N   0  0  0  0  0  0  0  0  0  0  0  0
   -4.9604   -4.9357    9.1457 C   0  0  0  0  0  0  0  0  0  0  0  0
   -6.1034   -4.3812    9.5889 N   0  0  1  0  0  0  0  0  0  0  0  0
  1  2  1  0  0  0  0
  3  1  1  1  0  0  0
  3  4  1  0  0  0  0
  3  5  1  0  0  0  0
  5  6  1  6  0  0  0
  5  7  1  0  0  0  0
  7  8  1  0  0  0  0
  8  4  1  1  0  0  0
  8 19  1  0  0  0  0
  9 15  1  0  0  0  0
  9 10  1  0  0  0  0
 10 11  1  6  0  0  0
 10 12  1  0  0  0  0
 13 12  1  6  0  0  0
 13 14  1  0  0  0  0
 13 19  1  0  0  0  0
 14 15  1  1  0  0  0
 14 17  1  0  0  0  0
 15 16  2  0  0  0  0
 17 18  1  0  0  0  0
 19 18  1  1  0  0  0
M  END
>  <CHROM.1>
174.82873839,-80.58088317,-6.12994874,-4.28578713,10.25861886,1.96524618
-0.55043778,3.09061040

>  <Name>
ligand

>  <RI>
0

>  <Rbt.Current_Directory>
/home/itssahil/PROJECTS/Mol_Feturizer/New_Systems/rnas/3SKI

>  <Rbt.Executable>
rbdock ($Id: //depot/dev/client3/rdock/2013.1/src/exe/rbdock.cxx#4 $)

>  <Rbt.Library>
libRbt.so (2013.1, Build901 2013/11/27)

>  <Rbt.Parameter_File>
/export/apps/rDock/src/rDock_2013.1_src/data/scripts/dock_solv.prm

>  <Rbt.Receptor>
prm/pocket_docking_2.prm

>  <SCORE>
-17.4763

>  <SCORE.INTER>
-15.1113

>  <SCORE.INTER.CONST>
1

>  <SCORE.INTER.POLAR>
0

>  <SCORE.INTER.ROT>
2

>  <SCORE.INTER.SOLV>
17.8136

>  <SCORE.INTER.VDW>
-20.9454

>  <SCORE.INTER.norm>
-0.795333

>  <SCORE.INTRA>
-2.36499

>  <SCORE.INTRA.DIHEDRAL>
-4.98792

>  <SCORE.INTRA.DIHEDRAL.0>
6.26853

>  <SCORE.INTRA.POLAR>
0

>  <SCORE.INTRA.POLAR.0>
0

>  <SCORE.INTRA.REPUL>
0

>  <SCORE.INTRA.REPUL.0>
0

>  <SCORE.INTRA.SOLV>
-0.0203127

>  <SCORE.INTRA.SOLV.lig_0>
-38.4926

>  <SCORE.INTRA.VDW>
0.13913

>  <SCORE.INTRA.VDW.0>
-0.59057

>  <SCORE.INTRA.norm>
-0.124473

>  <SCORE.RESTR>
0

>  <SCORE.RESTR.CAVITY>
0

>  <SCORE.RESTR.norm>
0

>  <SCORE.SYSTEM>
0

>  <SCORE.SYSTEM.CONST>
0

>  <SCORE.SYSTEM.DIHEDRAL>
0

>  <SCORE.SYSTEM.SOLV>
0

>  <SCORE.SYSTEM.norm>
0

>  <SCORE.heavy>
19

>  <SCORE.norm>
-0.919806

>  <RMSD>
0.774

$$$$
ligand
 OpenBabel11021811483D
libRbt.so/2013.1/901 2013/11/27
 19 21  0  0  0  0  0  0  0  0999 V2000
   -6.4826   -7.0942   12.7283 C   0  0  0  0  0  0  0  0  0  0  0  0
   -6.6358   -8.4657   13.1229 O   0  0  0  0  0  0  0  0  0  0  0  0
   -7.5090   -6.7308   11.6530 C   0  0  1  0  0  0  0  0  0  0  0  0
   -7.4491   -5.3248   11.3459 O   0  0  0  0  0  0  0  0  0  0  0  0
   -7.2371   -7.4830   10.3622 C   0  0  1  0  0  0  0  0  0  0  0  0
   -8.1655   -8.5603   10.1860 O   0  0  0  0  0  0  0  0  0  0  0  0
   -7.3898   -6.4651    9.2528 C   0  0  0  0  0  0  0  0  0  0  0  0
   -7.3635   -5.1030    9.9305 C   0  0  2  0  0  0  0  0  0  0  0  0
   -5.0111   -0.4125    9.6892 N   0  0  0  0  0  0  0  0  0  0  0  0
   -6.2848   -0.7302   10.0455 C   0  0  1  0  0  0  0  0  0  0  0  0
   -7.1348    0.2612   10.4041 N   0  0  0  0  0  0  0  0  0  0  0  0
   -6.7249   -2.0180   10.0458 N   0  0  0  0  0  0  0  0  0  0  0  0
   -5.9127   -3.0508    9.6921 C   0  0  2  0  0  0  0  0  0  0  0  0
   -4.6069   -2.7876    9.3194 C   0  0  1  0  0  0  0  0  0  0  0  0
   -4.1387   -1.3782    9.3253 C   0  0  0  0  0  0  0  0  0  0  0  0
   -2.9646   -1.0901    9.0018 O   0  0  0  0  0  0  0  0  0  0  0  0
   -4.0195   -3.9607    9.0264 N   0  0  0  0  0  0  0  0  0  0  0  0
   -4.9431   -4.9337    9.2067 C   0  0  0  0  0  0  0  0  0  0  0  0
   -6.0988   -4.3767    9.6123 N   0  0  1  0  0  0  0  0  0  0  0  0
  1  2  1  0  0  0  0
  3  1  1  1  0  0  0
  3  4  1  0  0  0  0
  3  5  1  0  0  0  0
  5  6  1  6  0  0  0
  5  7  1  0  0  0  0
  7  8  1  0  0  0  0
  8  4  1  1  0  0  0
  8 19  1  0  0  0  0
  9 15  1  0  0  0  0
  9 10  1  0  0  0  0
 10 11  1  6  0  0  0
 10 12  1  0  0  0  0
 13 12  1  6  0  0  0
 13 14  1  0  0  0  0
 13 19  1  0  0  0  0
 14 15  1  1  0  0  0
 14 17  1  0  0  0  0
 15 16  2  0  0  0  0
 17 18  1  0  0  0  0
 19 18  1  1  0  0  0
M  END
>  <CHROM.1>
174.37503833,-82.89835647,-6.13642515,-4.28256292,10.25095478,1.94462427
-0.48889561,3.05324454

>  <Name>
ligand

>  <RI>
0

>  <Rbt.Current_Directory>
/home/itssahil/PROJECTS/Mol_Feturizer/New_Systems/rnas/3SKI

>  <Rbt.Executable>
rbdock ($Id: //depot/dev/client3/rdock/2013.1/src/exe/rbdock.cxx#4 $)

>  <Rbt.Library>
libRbt.so (2013.1, Build901 2013/11/27)

>  <Rbt.Parameter_File>
/export/apps/rDock/src/rDock_2013.1_src/data/scripts/dock_solv.prm

>  <Rbt.Receptor>
prm/pocket_docking_2.prm

>  <SCORE>
-17.3471

>  <SCORE.INTER>
-14.9656

>  <SCORE.INTER.CONST>
1

>  <SCORE.INTER.POLAR>
0

>  <SCORE.INTER.ROT>
2

>  <SCORE.INTER.SOLV>
18.1358

>  <SCORE.INTER.VDW>
-20.9557

>  <SCORE.INTER.norm>
-0.787664

>  <SCORE.INTRA>
-2.38151

>  <SCORE.INTRA.DIHEDRAL>
-4.97152

>  <SCORE.INTRA.DIHEDRAL.0>
6.26853

>  <SCORE.INTRA.POLAR>
0

>  <SCORE.INTRA.POLAR.0>
0

>  <SCORE.INTRA.REPUL>
0

>  <SCORE.INTRA.REPUL.0>
0

>  <SCORE.INTRA.SOLV>
-0.0242859

>  <SCORE.INTRA.SOLV.lig_0>
-38.4926

>  <SCORE.INTRA.VDW>
0.116394

>  <SCORE.INTRA.VDW.0>
-0.59057

>  <SCORE.INTRA.norm>
-0.125343

>  <SCORE.RESTR>
0

>  <SCORE.RESTR.CAVITY>
0

>  <SCORE.RESTR.norm>
0

>  <SCORE.SYSTEM>
0

>  <SCORE.SYSTEM.CONST>
0

>  <SCORE.SYSTEM.DIHEDRAL>
0

>  <SCORE.SYSTEM.SOLV>
0

>  <SCORE.SYSTEM.norm>
0

>  <SCORE.heavy>
19

>  <SCORE.norm>
-0.913006

>  <RMSD>
0.775

$$$$
ligand
 OpenBabel11021811483D
libRbt.so/2013.1/901 2013/11/27
 19 21  0  0  0  0  0  0  0  0999 V2000
   -6.4909   -7.0820   12.7698 C   0  0  0  0  0  0  0  0  0  0  0  0
   -6.6292   -8.4558   13.1618 O   0  0  0  0  0  0  0  0  0  0  0  0
   -7.5159   -6.7300   11.6894 C   0  0  1  0  0  0  0  0  0  0  0  0
   -7.4579   -5.3266   11.3699 O   0  0  0  0  0  0  0  0  0  0  0  0
   -7.2404   -7.4931   10.4058 C   0  0  1  0  0  0  0  0  0  0  0  0
   -8.1666   -8.5736   10.2375 O   0  0  0  0  0  0  0  0  0  0  0  0
   -7.3927   -6.4854    9.2872 C   0  0  0  0  0  0  0  0  0  0  0  0
   -7.3701   -5.1173    9.9528 C   0  0  2  0  0  0  0  0  0  0  0  0
   -5.0045   -0.4320    9.7398 N   0  0  0  0  0  0  0  0  0  0  0  0
   -6.2758   -0.7494   10.1048 C   0  0  1  0  0  0  0  0  0  0  0  0
   -7.1191    0.2408   10.4821 N   0  0  0  0  0  0  0  0  0  0  0  0
   -6.7202   -2.0357   10.0953 N   0  0  0  0  0  0  0  0  0  0  0  0
   -5.9148   -3.0673    9.7227 C   0  0  2  0  0  0  0  0  0  0  0  0
   -4.6117   -2.8043    9.3406 C   0  0  1  0  0  0  0  0  0  0  0  0
   -4.1388   -1.3965    9.3573 C   0  0  0  0  0  0  0  0  0  0  0  0
   -2.9669   -1.1087    9.0258 O   0  0  0  0  0  0  0  0  0  0  0  0
   -4.0309   -3.9760    9.0293 N   0  0  0  0  0  0  0  0  0  0  0  0
   -4.9560   -4.9479    9.2079 C   0  0  0  0  0  0  0  0  0  0  0  0
   -6.1060   -4.3917    9.6305 N   0  0  1  0  0  0  0  0  0  0  0  0
  1  2  1  0  0  0  0
  3  1  1  1  0  0  0
  3  4  1  0  0  0  0
  3  5  1  0  0  0  0
  5  6  1  6  0  0  0
  5  7  1  0  0  0  0
  7  8  1  0  0  0  0
  8  4  1  1  0  0  0
  8 19  1  0  0  0  0
  9 15  1  0  0  0  0
  9 10  1  0  0  0  0
 10 11  1  6  0  0  0
 10 12  1  0  0  0  0
 13 12  1  6  0  0  0
 13 14  1  0  0  0  0
 13 19  1  0  0  0  0
 14 15  1  1  0  0  0
 14 17  1  0  0  0  0
 15 16  2  0  0  0  0
 17 18  1  0  0  0  0
 19 18  1  1  0  0  0
M  END
>  <CHROM.1>
175.24391098,-81.56634325,-6.13826978,-4.29427061,10.28590522,1.95405292
-0.51950323,3.06871636

>  <Name>
ligand

>  <RI>
0

>  <Rbt.Current_Directory>
/home/itssahil/PROJECTS/Mol_Feturizer/New_Systems/rnas/3SKI

>  <Rbt.Executable>
rbdock ($Id: //depot/dev/client3/rdock/2013.1/src/exe/rbdock.cxx#4 $)

>  <Rbt.Library>
libRbt.so (2013.1, Build901 2013/11/27)

>  <Rbt.Parameter_File>
/export/apps/rDock/src/rDock_2013.1_src/data/scripts/dock_solv.prm

>  <Rbt.Receptor>
prm/pocket_docking_2.prm

>  <SCORE>
-17.4145

>  <SCORE.INTER>
-15.0301

>  <SCORE.INTER.CONST>
1

>  <SCORE.INTER.POLAR>
0

>  <SCORE.INTER.ROT>
2

>  <SCORE.INTER.SOLV>
17.9653

>  <SCORE.INTER.VDW>
-20.9418

>  <SCORE.INTER.norm>
-0.791058

>  <SCORE.INTRA>
-2.38441

>  <SCORE.INTRA.DIHEDRAL>
-5.00293

>  <SCORE.INTRA.DIHEDRAL.0>
6.26853

>  <SCORE.INTRA.POLAR>
0

>  <SCORE.INTRA.POLAR.0>
0

>  <SCORE.INTRA.REPUL>
0

>  <SCORE.INTRA.REPUL.0>
0

>  <SCORE.INTRA.SOLV>
-0.0189168

>  <SCORE.INTRA.SOLV.lig_0>
-38.4926

>  <SCORE.INTRA.VDW>
0.12651

>  <SCORE.INTRA.VDW.0>
-0.59057

>  <SCORE.INTRA.norm>
-0.125496

>  <SCORE.RESTR>
0

>  <SCORE.RESTR.CAVITY>
0

>  <SCORE.RESTR.norm>
0

>  <SCORE.SYSTEM>
0

>  <SCORE.SYSTEM.CONST>
0

>  <SCORE.SYSTEM.DIHEDRAL>
0

>  <SCORE.SYSTEM.SOLV>
0

>  <SCORE.SYSTEM.norm>
0

>  <SCORE.heavy>
19

>  <SCORE.norm>
-0.916553

>  <RMSD>
0.782

$$$$
ligand
 OpenBabel11021811483D
libRbt.so/2013.1/901 2013/11/27
 19 21  0  0  0  0  0  0  0  0999 V2000
   -6.4487   -7.0828   12.7654 C   0  0  0  0  0  0  0  0  0  0  0  0
   -6.5551   -8.4640   13.1410 O   0  0  0  0  0  0  0  0  0  0  0  0
   -7.4908   -6.7384   11.6990 C   0  0  1  0  0  0  0  0  0  0  0  0
   -7.4421   -5.3360   11.3732 O   0  0  0  0  0  0  0  0  0  0  0  0
   -7.2318   -7.5056   10.4144 C   0  0  1  0  0  0  0  0  0  0  0  0
   -8.1569   -8.5897   10.2640 O   0  0  0  0  0  0  0  0  0  0  0  0
   -7.4041   -6.5027    9.2943 C   0  0  0  0  0  0  0  0  0  0  0  0
   -7.3761   -5.1319    9.9542 C   0  0  2  0  0  0  0  0  0  0  0  0
   -5.0051   -0.4486    9.7579 N   0  0  0  0  0  0  0  0  0  0  0  0
   -6.2669   -0.7697   10.1516 C   0  0  1  0  0  0  0  0  0  0  0  0
   -7.0972    0.2156   10.5686 N   0  0  0  0  0  0  0  0  0  0  0  0
   -6.7146   -2.0547   10.1321 N   0  0  0  0  0  0  0  0  0  0  0  0
   -5.9223   -3.0813    9.7202 C   0  0  2  0  0  0  0  0  0  0  0  0
   -4.6293   -2.8145    9.3076 C   0  0  1  0  0  0  0  0  0  0  0  0
   -4.1525   -1.4082    9.3356 C   0  0  0  0  0  0  0  0  0  0  0  0
   -2.9893   -1.1172    8.9776 O   0  0  0  0  0  0  0  0  0  0  0  0
   -4.0601   -3.9819    8.9606 N   0  0  0  0  0  0  0  0  0  0  0  0
   -4.9826   -4.9548    9.1474 C   0  0  0  0  0  0  0  0  0  0  0  0
   -6.1192   -4.4035    9.6103 N   0  0  1  0  0  0  0  0  0  0  0  0
  1  2  1  0  0  0  0
  3  1  1  1  0  0  0
  3  4  1  0  0  0  0
  3  5  1  0  0  0  0
  5  6  1  6  0  0  0
  5  7  1  0  0  0  0
  7  8  1  0  0  0  0
  8  4  1  1  0  0  0
  8 19  1  0  0  0  0
  9 15  1  0  0  0  0
  9 10  1  0  0  0  0
 10 11  1  6  0  0  0
 10 12  1  0  0  0  0
 13 12  1  6  0  0  0
 13 14  1  0  0  0  0
 13 19  1  0  0  0  0
 14 15  1  1  0  0  0
 14 17  1  0  0  0  0
 15 16  2  0  0  0  0
 17 18  1  0  0  0  0
 19 18  1  1  0  0  0
M  END
>  <CHROM.1>
176.65502975,-80.13395031,-6.13393383,-4.30669295,10.28418867,1.96157868
-0.56655043,3.08938719

>  <Name>
ligand

>  <RI>
0

>  <Rbt.Current_Directory>
/home/itssahil/PROJECTS/Mol_Feturizer/New_Systems/rnas/3SKI

>  <Rbt.Executable>
rbdock ($Id: //depot/dev/client3/rdock/2013.1/src/exe/rbdock.cxx#4 $)

>  <Rbt.Library>
libRbt.so (2013.1, Build901 2013/11/27)

>  <Rbt.Parameter_File>
/export/apps/rDock/src/rDock_2013.1_src/data/scripts/dock_solv.prm

>  <Rbt.Receptor>
prm/pocket_docking_2.prm

>  <SCORE>
-17.4627

>  <SCORE.INTER>
-15.0942

>  <SCORE.INTER.CONST>
1

>  <SCORE.INTER.POLAR>
0

>  <SCORE.INTER.ROT>
2

>  <SCORE.INTER.SOLV>
17.7428

>  <SCORE.INTER.VDW>
-20.9104

>  <SCORE.INTER.norm>
-0.79443

>  <SCORE.INTRA>
-2.36857

>  <SCORE.INTRA.DIHEDRAL>
-5.04282

>  <SCORE.INTRA.DIHEDRAL.0>
6.26853

>  <SCORE.INTRA.POLAR>
0

>  <SCORE.INTRA.POLAR.0>
0

>  <SCORE.INTRA.REPUL>
0

>  <SCORE.INTRA.REPUL.0>
0

>  <SCORE.INTRA.SOLV>
-0.0107752

>  <SCORE.INTRA.SOLV.lig_0>
-38.4926

>  <SCORE.INTRA.VDW>
0.158231

>  <SCORE.INTRA.VDW.0>
-0.59057

>  <SCORE.INTRA.norm>
-0.124661

>  <SCORE.RESTR>
0

>  <SCORE.RESTR.CAVITY>
0

>  <SCORE.RESTR.norm>
0

>  <SCORE.SYSTEM>
0

>  <SCORE.SYSTEM.CONST>
0

>  <SCORE.SYSTEM.DIHEDRAL>
0

>  <SCORE.SYSTEM.SOLV>
0

>  <SCORE.SYSTEM.norm>
0

>  <SCORE.heavy>
19

>  <SCORE.norm>
-0.919091

>  <RMSD>
0.791

$$$$
ligand
 OpenBabel11021811483D
libRbt.so/2013.1/901 2013/11/27
 19 21  0  0  0  0  0  0  0  0999 V2000
   -6.1423   -6.5797   13.1244 C   0  0  0  0  0  0  0  0  0  0  0  0
   -6.2335   -7.9295   13.6039 O   0  0  0  0  0  0  0  0  0  0  0  0
   -7.2551   -6.2970   12.1127 C   0  0  1  0  0  0  0  0  0  0  0  0
   -7.2217   -4.9204   11.6900 O   0  0  0  0  0  0  0  0  0  0  0  0
   -7.0917   -7.1515   10.8681 C   0  0  1  0  0  0  0  0  0  0  0  0
   -8.0311   -8.2337   10.8568 O   0  0  0  0  0  0  0  0  0  0  0  0
   -7.3369   -6.2246    9.6974 C   0  0  0  0  0  0  0  0  0  0  0  0
   -7.2547   -4.8128   10.2593 C   0  0  2  0  0  0  0  0  0  0  0  0
   -4.8182   -0.1913    9.7137 N   0  0  0  0  0  0  0  0  0  0  0  0
   -6.0437   -0.4734   10.2322 C   0  0  1  0  0  0  0  0  0  0  0  0
   -6.8110    0.5409   10.6975 N   0  0  0  0  0  0  0  0  0  0  0  0
   -6.5172   -1.7479   10.2899 N   0  0  0  0  0  0  0  0  0  0  0  0
   -5.7880   -2.8025    9.8342 C   0  0  2  0  0  0  0  0  0  0  0  0
   -4.5344   -2.5758    9.2955 C   0  0  1  0  0  0  0  0  0  0  0  0
   -4.0286   -1.1805    9.2403 C   0  0  0  0  0  0  0  0  0  0  0  0
   -2.8985   -0.9253    8.7673 O   0  0  0  0  0  0  0  0  0  0  0  0
   -4.0241   -3.7644    8.9292 N   0  0  0  0  0  0  0  0  0  0  0  0
   -4.9445   -4.7109    9.2280 C   0  0  0  0  0  0  0  0  0  0  0  0
   -6.0212   -4.1222    9.7797 N   0  0  1  0  0  0  0  0  0  0  0  0
  1  2  1  0  0  0  0
  3  1  1  1  0  0  0
  3  4  1  0  0  0  0
  3  5  1  0  0  0  0
  5  6  1  1  0  0  0
  5  7  1  0  0  0  0
  7  8  1  0  0  0  0
  8  4  1  1  0  0  0
  8 19  1  0  0  0  0
  9 15  1  0  0  0  0
  9 10  1  0  0  0  0
 10 11  1  6  0  0  0
 10 12  1  0  0  0  0
 13 12  1  6  0  0  0
 13 14  1  0  0  0  0
 13 19  1  0  0  0  0
 14 15  1  1  0  0  0
 14 17  1  0  0  0  0
 15 16  2  0  0  0  0
 17 18  1  0  0  0  0
 19 18  1  1  0  0  0
M  END
>  <CHROM.1>
176.39233292,-77.31616548,-5.97121783,-3.98388283,10.48287960,2.00425824
-0.71242455,3.08930093

>  <Name>
ligand

>  <RI>
0

>  <Rbt.Current_Directory>
/home/itssahil/PROJECTS/Mol_Feturizer/New_Systems/rnas/3SKI

>  <Rbt.Executable>
rbdock ($Id: //depot/dev/client3/rdock/2013.1/src/exe/rbdock.cxx#4 $)

>  <Rbt.Library>
libRbt.so (2013.1, Build901 2013/11/27)

>  <Rbt.Parameter_File>
/export/apps/rDock/src/rDock_2013.1_src/data/scripts/dock_solv.prm

>  <Rbt.Receptor>
prm/pocket_docking_8.prm

>  <SCORE>
-17.356

>  <SCORE.INTER>
-15.0116

>  <SCORE.INTER.CONST>
1

>  <SCORE.INTER.POLAR>
0

>  <SCORE.INTER.ROT>
2

>  <SCORE.INTER.SOLV>
18.2154

>  <SCORE.INTER.VDW>
-21.0129

>  <SCORE.INTER.norm>
-0.790085

>  <SCORE.INTRA>
-2.34443

>  <SCORE.INTRA.DIHEDRAL>
-5.03485

>  <SCORE.INTRA.DIHEDRAL.0>
6.26853

>  <SCORE.INTRA.POLAR>
0

>  <SCORE.INTRA.POLAR.0>
0

>  <SCORE.INTRA.REPUL>
0

>  <SCORE.INTRA.REPUL.0>
0

>  <SCORE.INTRA.SOLV>
-0.0100795

>  <SCORE.INTRA.SOLV.lig_0>
-38.4926

>  <SCORE.INTRA.VDW>
0.178034

>  <SCORE.INTRA.VDW.0>
-0.59057

>  <SCORE.INTRA.norm>
-0.123391

>  <SCORE.RESTR>
0

>  <SCORE.RESTR.CAVITY>
0

>  <SCORE.RESTR.norm>
0

>  <SCORE.SYSTEM>
0

>  <SCORE.SYSTEM.CONST>
0

>  <SCORE.SYSTEM.DIHEDRAL>
0

>  <SCORE.SYSTEM.SOLV>
0

>  <SCORE.SYSTEM.norm>
0

>  <SCORE.heavy>
19

>  <SCORE.norm>
-0.913476

>  <RMSD>
0.793

$$$$
ligand
 OpenBabel11021811483D
libRbt.so/2013.1/901 2013/11/27
 19 21  0  0  0  0  0  0  0  0999 V2000
   -5.7150   -7.2388   12.8180 C   0  0  0  0  0  0  0  0  0  0  0  0
   -5.6936   -6.6403   14.1224 O   0  0  0  0  0  0  0  0  0  0  0  0
   -6.9499   -6.7784   12.0403 C   0  0  1  0  0  0  0  0  0  0  0  0
   -6.9208   -5.3529   11.8355 O   0  0  0  0  0  0  0  0  0  0  0  0
   -7.0044   -7.4268   10.6683 C   0  0  1  0  0  0  0  0  0  0  0  0
   -7.9797   -8.4760   10.6304 O   0  0  0  0  0  0  0  0  0  0  0  0
   -7.3779   -6.3210    9.7051 C   0  0  0  0  0  0  0  0  0  0  0  0
   -7.1564   -5.0184   10.4599 C   0  0  2  0  0  0  0  0  0  0  0  0
   -5.0097   -0.2976    9.6245 N   0  0  0  0  0  0  0  0  0  0  0  0
   -6.2034   -0.6233   10.1895 C   0  0  1  0  0  0  0  0  0  0  0  0
   -7.0172    0.3671   10.6261 N   0  0  0  0  0  0  0  0  0  0  0  0
   -6.5997   -1.9185   10.3218 N   0  0  0  0  0  0  0  0  0  0  0  0
   -5.8213   -2.9509    9.8978 C   0  0  2  0  0  0  0  0  0  0  0  0
   -4.5968   -2.6797    9.3145 C   0  0  1  0  0  0  0  0  0  0  0  0
   -4.1753   -1.2622    9.1779 C   0  0  0  0  0  0  0  0  0  0  0  0
   -3.0741   -0.9664    8.6623 O   0  0  0  0  0  0  0  0  0  0  0  0
   -4.0268   -3.8538    8.9923 N   0  0  0  0  0  0  0  0  0  0  0  0
   -4.8823   -4.8356    9.3617 C   0  0  0  0  0  0  0  0  0  0  0  0
   -5.9778   -4.2829    9.9137 N   0  0  1  0  0  0  0  0  0  0  0  0
  1  2  1  0  0  0  0
  3  1  1  6  0  0  0
  3  4  1  0  0  0  0
  3  5  1  0  0  0  0
  5  6  1  1  0  0  0
  5  7  1  0  0  0  0
  7  8  1  0  0  0  0
  8  4  1  1  0  0  0
  8 19  1  0  0  0  0
  9 15  1  0  0  0  0
  9 10  1  0  0  0  0
 10 11  1  6  0  0  0
 10 12  1  0  0  0  0
 13 12  1  6  0  0  0
 13 14  1  0  0  0  0
 13 19  1  0  0  0  0
 14 15  1  1  0  0  0
 14 17  1  0  0  0  0
 15 16  2  0  0  0  0
 17 18  1  0  0  0  0
 19 18  1  1  0  0  0
M  END
>  <CHROM.1>
62.34454970,-92.01067193,-5.92131289,-4.10286150,10.49239995,2.00580986,-0.86304807
-3.14153133

>  <Name>
ligand

>  <RI>
0

>  <Rbt.Current_Directory>
/home/itssahil/PROJECTS/Mol_Feturizer/New_Systems/rnas/3SKI

>  <Rbt.Executable>
rbdock ($Id: //depot/dev/client3/rdock/2013.1/src/exe/rbdock.cxx#4 $)

>  <Rbt.Library>
libRbt.so (2013.1, Build901 2013/11/27)

>  <Rbt.Parameter_File>
/export/apps/rDock/src/rDock_2013.1_src/data/scripts/dock_solv.prm

>  <Rbt.Receptor>
prm/pocket_docking_5.prm

>  <SCORE>
-17.3201

>  <SCORE.INTER>
-14.6047

>  <SCORE.INTER.CONST>
1

>  <SCORE.INTER.POLAR>
0

>  <SCORE.INTER.ROT>
2

>  <SCORE.INTER.SOLV>
18.3621

>  <SCORE.INTER.VDW>
-20.7905

>  <SCORE.INTER.norm>
-0.768668

>  <SCORE.INTRA>
-2.71543

>  <SCORE.INTRA.DIHEDRAL>
-5.06345

>  <SCORE.INTRA.DIHEDRAL.0>
6.26853

>  <SCORE.INTRA.POLAR>
0

>  <SCORE.INTRA.POLAR.0>
0

>  <SCORE.INTRA.REPUL>
0

>  <SCORE.INTRA.REPUL.0>
0

>  <SCORE.INTRA.SOLV>
-0.237151

>  <SCORE.INTRA.SOLV.lig_0>
-38.4926

>  <SCORE.INTRA.VDW>
-0.0651292

>  <SCORE.INTRA.VDW.0>
-0.59057

>  <SCORE.INTRA.norm>
-0.142917

>  <SCORE.RESTR>
0

>  <SCORE.RESTR.CAVITY>
0

>  <SCORE.RESTR.norm>
0

>  <SCORE.SYSTEM>
0

>  <SCORE.SYSTEM.CONST>
0

>  <SCORE.SYSTEM.DIHEDRAL>
0

>  <SCORE.SYSTEM.SOLV>
0

>  <SCORE.SYSTEM.norm>
0

>  <SCORE.heavy>
19

>  <SCORE.norm>
-0.911585

>  <RMSD>
0.805

$$$$
ligand
 OpenBabel11021811483D
libRbt.so/2013.1/901 2013/11/27
 19 21  0  0  0  0  0  0  0  0999 V2000
   -5.8184   -7.1188   12.8984 C   0  0  0  0  0  0  0  0  0  0  0  0
   -5.9014   -6.4716   14.1769 O   0  0  0  0  0  0  0  0  0  0  0  0
   -7.0138   -6.7303   12.0255 C   0  0  1  0  0  0  0  0  0  0  0  0
   -7.0112   -5.3147   11.7588 O   0  0  0  0  0  0  0  0  0  0  0  0
   -6.9631   -7.4388   10.6834 C   0  0  1  0  0  0  0  0  0  0  0  0
   -7.9046   -8.5179   10.6323 O   0  0  0  0  0  0  0  0  0  0  0  0
   -7.3052   -6.3876    9.6500 C   0  0  0  0  0  0  0  0  0  0  0  0
   -7.1682   -5.0475   10.3575 C   0  0  2  0  0  0  0  0  0  0  0  0
   -5.0043   -0.3104    9.6716 N   0  0  0  0  0  0  0  0  0  0  0  0
   -6.2099   -0.6479   10.2034 C   0  0  1  0  0  0  0  0  0  0  0  0
   -7.0330    0.3332   10.6438 N   0  0  0  0  0  0  0  0  0  0  0  0
   -6.6088   -1.9455   10.2990 N   0  0  0  0  0  0  0  0  0  0  0  0
   -5.8213   -2.9687    9.8696 C   0  0  2  0  0  0  0  0  0  0  0  0
   -4.5845   -2.6854    9.3189 C   0  0  1  0  0  0  0  0  0  0  0  0
   -4.1604   -1.2654    9.2223 C   0  0  0  0  0  0  0  0  0  0  0  0
   -3.0483   -0.9589    8.7371 O   0  0  0  0  0  0  0  0  0  0  0  0
   -4.0076   -3.8524    8.9836 N   0  0  0  0  0  0  0  0  0  0  0  0
   -4.8708   -4.8417    9.3130 C   0  0  0  0  0  0  0  0  0  0  0  0
   -5.9781   -4.3007    9.8531 N   0  0  1  0  0  0  0  0  0  0  0  0
  1  2  1  0  0  0  0
  3  1  1  1  0  0  0
  3  4  1  0  0  0  0
  3  5  1  0  0  0  0
  5  6  1  1  0  0  0
  5  7  1  0  0  0  0
  7  8  1  0  0  0  0
  8  4  1  1  0  0  0
  8 19  1  0  0  0  0
  9 15  1  0  0  0  0
  9 10  1  0  0  0  0
 10 11  1  6  0  0  0
 10 12  1  0  0  0  0
 13 12  1  6  0  0  0
 13 14  1  0  0  0  0
 13 19  1  0  0  0  0
 14 15  1  1  0  0  0
 14 17  1  0  0  0  0
 15 16  2  0  0  0  0
 17 18  1  0  0  0  0
 19 18  1  1  0  0  0
M  END
>  <CHROM.1>
62.76083784,-87.24720530,-5.93532244,-4.09654271,10.48991429,2.07698871,-0.94109798
-3.05643041

>  <Name>
ligand

>  <RI>
0

>  <Rbt.Current_Directory>
/home/itssahil/PROJECTS/Mol_Feturizer/New_Systems/rnas/3SKI

>  <Rbt.Executable>
rbdock ($Id: //depot/dev/client3/rdock/2013.1/src/exe/rbdock.cxx#4 $)

>  <Rbt.Library>
libRbt.so (2013.1, Build901 2013/11/27)

>  <Rbt.Parameter_File>
/export/apps/rDock/src/rDock_2013.1_src/data/scripts/dock_solv.prm

>  <Rbt.Receptor>
prm/pocket_docking_4.prm

>  <SCORE>
-17.4014

>  <SCORE.INTER>
-14.7758

>  <SCORE.INTER.CONST>
1

>  <SCORE.INTER.POLAR>
0

>  <SCORE.INTER.ROT>
2

>  <SCORE.INTER.SOLV>
18.4392

>  <SCORE.INTER.VDW>
-20.9303

>  <SCORE.INTER.norm>
-0.777676

>  <SCORE.INTRA>
-2.62557

>  <SCORE.INTRA.DIHEDRAL>
-5.05562

>  <SCORE.INTRA.DIHEDRAL.0>
6.26853

>  <SCORE.INTRA.POLAR>
0

>  <SCORE.INTRA.POLAR.0>
0

>  <SCORE.INTRA.REPUL>
0

>  <SCORE.INTRA.REPUL.0>
0

>  <SCORE.INTRA.SOLV>
-0.235468

>  <SCORE.INTRA.SOLV.lig_0>
-38.4926

>  <SCORE.INTRA.VDW>
0.0199769

>  <SCORE.INTRA.VDW.0>
-0.59057

>  <SCORE.INTRA.norm>
-0.138188

>  <SCORE.RESTR>
0

>  <SCORE.RESTR.CAVITY>
0

>  <SCORE.RESTR.norm>
0

>  <SCORE.SYSTEM>
0

>  <SCORE.SYSTEM.CONST>
0

>  <SCORE.SYSTEM.DIHEDRAL>
0

>  <SCORE.SYSTEM.SOLV>
0

>  <SCORE.SYSTEM.norm>
0

>  <SCORE.heavy>
19

>  <SCORE.norm>
-0.915864

>  <RMSD>
0.810

$$$$
ligand
 OpenBabel11021811483D
libRbt.so/2013.1/901 2013/11/27
 19 21  0  0  0  0  0  0  0  0999 V2000
   -6.4527   -7.0356   12.8353 C   0  0  0  0  0  0  0  0  0  0  0  0
   -6.6051   -8.3865   13.2959 O   0  0  0  0  0  0  0  0  0  0  0  0
   -7.4847   -6.7228   11.7495 C   0  0  1  0  0  0  0  0  0  0  0  0
   -7.4444   -5.3272   11.3952 O   0  0  0  0  0  0  0  0  0  0  0  0
   -7.2031   -7.5141   10.4844 C   0  0  1  0  0  0  0  0  0  0  0  0
   -8.1167   -8.6095   10.3455 O   0  0  0  0  0  0  0  0  0  0  0  0
   -7.3705   -6.5363    9.3416 C   0  0  0  0  0  0  0  0  0  0  0  0
   -7.3627   -5.1519    9.9731 C   0  0  2  0  0  0  0  0  0  0  0  0
   -5.0090   -0.4602    9.7717 N   0  0  0  0  0  0  0  0  0  0  0  0
   -6.2700   -0.7853   10.1646 C   0  0  1  0  0  0  0  0  0  0  0  0
   -7.1044    0.1976   10.5791 N   0  0  0  0  0  0  0  0  0  0  0  0
   -6.7129   -2.0720   10.1467 N   0  0  0  0  0  0  0  0  0  0  0  0
   -5.9163   -3.0963    9.7373 C   0  0  2  0  0  0  0  0  0  0  0  0
   -4.6239   -2.8253    9.3256 C   0  0  1  0  0  0  0  0  0  0  0  0
   -4.1524   -1.4173    9.3518 C   0  0  0  0  0  0  0  0  0  0  0  0
   -2.9898   -1.1225    8.9945 O   0  0  0  0  0  0  0  0  0  0  0  0
   -4.0500   -3.9912    8.9811 N   0  0  0  0  0  0  0  0  0  0  0  0
   -4.9690   -4.9672    9.1685 C   0  0  0  0  0  0  0  0  0  0  0  0
   -6.1082   -4.4194    9.6294 N   0  0  1  0  0  0  0  0  0  0  0  0
  1  2  1  0  0  0  0
  3  1  1  1  0  0  0
  3  4  1  0  0  0  0
  3  5  1  0  0  0  0
  5  6  1  6  0  0  0
  5  7  1  0  0  0  0
  7  8  1  0  0  0  0
  8  4  1  1  0  0  0
  8 19  1  0  0  0  0
  9 15  1  0  0  0  0
  9 10  1  0  0  0  0
 10 11  1  6  0  0  0
 10 12  1  0  0  0  0
 13 12  1  6  0  0  0
 13 14  1  0  0  0  0
 13 19  1  0  0  0  0
 14 15  1  1  0  0  0
 14 17  1  0  0  0  0
 15 16  2  0  0  0  0
 17 18  1  0  0  0  0
 19 18  1  1  0  0  0
M  END
>  <CHROM.1>
173.16240819,-78.82934383,-6.12907656,-4.30960942,10.32241744,1.97321774
-0.60496024,3.09796866

>  <Name>
ligand

>  <RI>
0

>  <Rbt.Current_Directory>
/home/itssahil/PROJECTS/Mol_Feturizer/New_Systems/rnas/3SKI

>  <Rbt.Executable>
rbdock ($Id: //depot/dev/client3/rdock/2013.1/src/exe/rbdock.cxx#4 $)

>  <Rbt.Library>
libRbt.so (2013.1, Build901 2013/11/27)

>  <Rbt.Parameter_File>
/export/apps/rDock/src/rDock_2013.1_src/data/scripts/dock_solv.prm

>  <Rbt.Receptor>
prm/pocket_docking_4.prm

>  <SCORE>
-17.4079

>  <SCORE.INTER>
-15.0913

>  <SCORE.INTER.CONST>
1

>  <SCORE.INTER.POLAR>
0

>  <SCORE.INTER.ROT>
2

>  <SCORE.INTER.SOLV>
17.8527

>  <SCORE.INTER.VDW>
-20.9451

>  <SCORE.INTER.norm>
-0.794277

>  <SCORE.INTRA>
-2.31669

>  <SCORE.INTRA.DIHEDRAL>
-4.91651

>  <SCORE.INTRA.DIHEDRAL.0>
6.26853

>  <SCORE.INTRA.POLAR>
0

>  <SCORE.INTRA.POLAR.0>
0

>  <SCORE.INTRA.REPUL>
0

>  <SCORE.INTRA.REPUL.0>
0

>  <SCORE.INTRA.SOLV>
-0.0275535

>  <SCORE.INTRA.SOLV.lig_0>
-38.4926

>  <SCORE.INTRA.VDW>
0.155337

>  <SCORE.INTRA.VDW.0>
-0.59057

>  <SCORE.INTRA.norm>
-0.121931

>  <SCORE.RESTR>
0

>  <SCORE.RESTR.CAVITY>
0

>  <SCORE.RESTR.norm>
0

>  <SCORE.SYSTEM>
0

>  <SCORE.SYSTEM.CONST>
0

>  <SCORE.SYSTEM.DIHEDRAL>
0

>  <SCORE.SYSTEM.SOLV>
0

>  <SCORE.SYSTEM.norm>
0

>  <SCORE.heavy>
19

>  <SCORE.norm>
-0.916208

>  <RMSD>
0.810

$$$$
ligand
 OpenBabel11021811483D
libRbt.so/2013.1/901 2013/11/27
 19 21  0  0  0  0  0  0  0  0999 V2000
   -5.9651   -6.6361   13.1181 C   0  0  0  0  0  0  0  0  0  0  0  0
   -6.1143   -7.9873   13.5786 O   0  0  0  0  0  0  0  0  0  0  0  0
   -7.1574   -6.2350   12.2467 C   0  0  1  0  0  0  0  0  0  0  0  0
   -7.0927   -4.8367   11.9070 O   0  0  0  0  0  0  0  0  0  0  0  0
   -7.1665   -7.0125   10.9423 C   0  0  1  0  0  0  0  0  0  0  0  0
   -8.1591   -8.0459   10.9631 O   0  0  0  0  0  0  0  0  0  0  0  0
   -7.4782   -6.0000    9.8618 C   0  0  0  0  0  0  0  0  0  0  0  0
   -7.2640   -4.6337   10.4967 C   0  0  2  0  0  0  0  0  0  0  0  0
   -4.8141   -0.0588    9.6836 N   0  0  0  0  0  0  0  0  0  0  0  0
   -6.0144   -0.3110   10.2716 C   0  0  1  0  0  0  0  0  0  0  0  0
   -6.7474    0.7258   10.7426 N   0  0  0  0  0  0  0  0  0  0  0  0
   -6.4966   -1.5778   10.3933 N   0  0  0  0  0  0  0  0  0  0  0  0
   -5.8015   -2.6541    9.9352 C   0  0  2  0  0  0  0  0  0  0  0  0
   -4.5746   -2.4582    9.3273 C   0  0  1  0  0  0  0  0  0  0  0  0
   -4.0590   -1.0711    9.2026 C   0  0  0  0  0  0  0  0  0  0  0  0
   -2.9518   -0.8433    8.6656 O   0  0  0  0  0  0  0  0  0  0  0  0
   -4.0949   -3.6632    8.9735 N   0  0  0  0  0  0  0  0  0  0  0  0
   -5.0080   -4.5897    9.3479 C   0  0  0  0  0  0  0  0  0  0  0  0
   -6.0498   -3.9722    9.9341 N   0  0  1  0  0  0  0  0  0  0  0  0
  1  2  1  0  0  0  0
  3  1  1  1  0  0  0
  3  4  1  0  0  0  0
  3  5  1  0  0  0  0
  5  6  1  1  0  0  0
  5  7  1  0  0  0  0
  7  8  1  0  0  0  0
  8  4  1  1  0  0  0
  8 19  1  0  0  0  0
  9 15  1  0  0  0  0
  9 10  1  0  0  0  0
 10 11  1  6  0  0  0
 10 12  1  0  0  0  0
 13 12  1  6  0  0  0
 13 14  1  0  0  0  0
 13 19  1  0  0  0  0
 14 15  1  1  0  0  0
 14 17  1  0  0  0  0
 15 16  2  0  0  0  0
 17 18  1  0  0  0  0
 19 18  1  1  0  0  0
M  END
>  <CHROM.1>
173.42388046,-83.93329607,-5.97054979,-3.86786780,10.55430662,1.96826746
-0.65668317,3.03650175

>  <Name>
ligand

>  <RI>
0

>  <Rbt.Current_Directory>
/home/itssahil/PROJECTS/Mol_Feturizer/New_Systems/rnas/3SKI

>  <Rbt.Executable>
rbdock ($Id: //depot/dev/client3/rdock/2013.1/src/exe/rbdock.cxx#4 $)

>  <Rbt.Library>
libRbt.so (2013.1, Build901 2013/11/27)

>  <Rbt.Parameter_File>
/export/apps/rDock/src/rDock_2013.1_src/data/scripts/dock_solv.prm

>  <Rbt.Receptor>
prm/pocket_docking_3.prm

>  <SCORE>
-17.3438

>  <SCORE.INTER>
-14.9569

>  <SCORE.INTER.CONST>
1

>  <SCORE.INTER.POLAR>
0

>  <SCORE.INTER.ROT>
2

>  <SCORE.INTER.SOLV>
18.5682

>  <SCORE.INTER.VDW>
-21.094

>  <SCORE.INTER.norm>
-0.787205

>  <SCORE.INTRA>
-2.38685

>  <SCORE.INTRA.DIHEDRAL>
-4.93094

>  <SCORE.INTRA.DIHEDRAL.0>
6.26853

>  <SCORE.INTRA.POLAR>
0

>  <SCORE.INTRA.POLAR.0>
0

>  <SCORE.INTRA.REPUL>
0

>  <SCORE.INTRA.REPUL.0>
0

>  <SCORE.INTRA.SOLV>
-0.0298846

>  <SCORE.INTRA.SOLV.lig_0>
-38.4926

>  <SCORE.INTRA.VDW>
0.0935579

>  <SCORE.INTRA.VDW.0>
-0.59057

>  <SCORE.INTRA.norm>
-0.125624

>  <SCORE.RESTR>
0

>  <SCORE.RESTR.CAVITY>
0

>  <SCORE.RESTR.norm>
0

>  <SCORE.SYSTEM>
0

>  <SCORE.SYSTEM.CONST>
0

>  <SCORE.SYSTEM.DIHEDRAL>
0

>  <SCORE.SYSTEM.SOLV>
0

>  <SCORE.SYSTEM.norm>
0

>  <SCORE.heavy>
19

>  <SCORE.norm>
-0.912829

>  <RMSD>
0.811

$$$$
ligand
 OpenBabel11021811483D
libRbt.so/2013.1/901 2013/11/27
 19 21  0  0  0  0  0  0  0  0999 V2000
   -6.4442   -7.0756   12.8098 C   0  0  0  0  0  0  0  0  0  0  0  0
   -6.5490   -8.4516   13.2047 O   0  0  0  0  0  0  0  0  0  0  0  0
   -7.4840   -6.7485   11.7356 C   0  0  1  0  0  0  0  0  0  0  0  0
   -7.4401   -5.3500   11.3931 O   0  0  0  0  0  0  0  0  0  0  0  0
   -7.2171   -7.5301   10.4613 C   0  0  1  0  0  0  0  0  0  0  0  0
   -8.1371   -8.6198   10.3208 O   0  0  0  0  0  0  0  0  0  0  0  0
   -7.3896   -6.5416    9.3286 C   0  0  0  0  0  0  0  0  0  0  0  0
   -7.3697   -5.1628    9.9720 C   0  0  2  0  0  0  0  0  0  0  0  0
   -5.0168   -0.4725    9.7310 N   0  0  0  0  0  0  0  0  0  0  0  0
   -6.2785   -0.7942   10.1245 C   0  0  1  0  0  0  0  0  0  0  0  0
   -7.1139    0.1923   10.5281 N   0  0  0  0  0  0  0  0  0  0  0  0
   -6.7210   -2.0811   10.1178 N   0  0  0  0  0  0  0  0  0  0  0  0
   -5.9234   -3.1091    9.7196 C   0  0  2  0  0  0  0  0  0  0  0  0
   -4.6303   -2.8417    9.3079 C   0  0  1  0  0  0  0  0  0  0  0  0
   -4.1591   -1.4333    9.3219 C   0  0  0  0  0  0  0  0  0  0  0  0
   -2.9959   -1.1416    8.9641 O   0  0  0  0  0  0  0  0  0  0  0  0
   -4.0554   -4.0106    8.9755 N   0  0  0  0  0  0  0  0  0  0  0  0
   -4.9746   -4.9850    9.1703 C   0  0  0  0  0  0  0  0  0  0  0  0
   -6.1148   -4.4332    9.6238 N   0  0  1  0  0  0  0  0  0  0  0  0
  1  2  1  0  0  0  0
  3  1  1  1  0  0  0
  3  4  1  0  0  0  0
  3  5  1  0  0  0  0
  5  6  1  6  0  0  0
  5  7  1  0  0  0  0
  7  8  1  0  0  0  0
  8  4  1  1  0  0  0
  8 19  1  0  0  0  0
  9 15  1  0  0  0  0
  9 10  1  0  0  0  0
 10 11  1  6  0  0  0
 10 12  1  0  0  0  0
 13 12  1  6  0  0  0
 13 14  1  0  0  0  0
 13 19  1  0  0  0  0
 14 15  1  1  0  0  0
 14 17  1  0  0  0  0
 15 16  2  0  0  0  0
 17 18  1  0  0  0  0
 19 18  1  1  0  0  0
M  END
>  <CHROM.1>
176.47283638,-80.06386589,-6.13215794,-4.32838775,10.29755219,1.95789245
-0.56543540,3.07655817

>  <Name>
ligand

>  <RI>
0

>  <Rbt.Current_Directory>
/home/itssahil/PROJECTS/Mol_Feturizer/New_Systems/rnas/3SKI

>  <Rbt.Executable>
rbdock ($Id: //depot/dev/client3/rdock/2013.1/src/exe/rbdock.cxx#4 $)

>  <Rbt.Library>
libRbt.so (2013.1, Build901 2013/11/27)

>  <Rbt.Parameter_File>
/export/apps/rDock/src/rDock_2013.1_src/data/scripts/dock_solv.prm

>  <Rbt.Receptor>
prm/pocket_docking_5.prm

>  <SCORE>
-17.5038

>  <SCORE.INTER>
-15.1368

>  <SCORE.INTER.CONST>
1

>  <SCORE.INTER.POLAR>
0

>  <SCORE.INTER.ROT>
2

>  <SCORE.INTER.SOLV>
17.8258

>  <SCORE.INTER.VDW>
-20.9665

>  <SCORE.INTER.norm>
-0.796675

>  <SCORE.INTRA>
-2.36701

>  <SCORE.INTRA.DIHEDRAL>
-5.03835

>  <SCORE.INTRA.DIHEDRAL.0>
6.26853

>  <SCORE.INTRA.POLAR>
0

>  <SCORE.INTRA.POLAR.0>
0

>  <SCORE.INTRA.REPUL>
0

>  <SCORE.INTRA.REPUL.0>
0

>  <SCORE.INTRA.SOLV>
-0.0116396

>  <SCORE.INTRA.SOLV.lig_0>
-38.4926

>  <SCORE.INTRA.VDW>
0.157982

>  <SCORE.INTRA.VDW.0>
-0.59057

>  <SCORE.INTRA.norm>
-0.12458

>  <SCORE.RESTR>
0

>  <SCORE.RESTR.CAVITY>
0

>  <SCORE.RESTR.norm>
0

>  <SCORE.SYSTEM>
0

>  <SCORE.SYSTEM.CONST>
0

>  <SCORE.SYSTEM.DIHEDRAL>
0

>  <SCORE.SYSTEM.SOLV>
0

>  <SCORE.SYSTEM.norm>
0

>  <SCORE.heavy>
19

>  <SCORE.norm>
-0.921254

>  <RMSD>
0.814

$$$$
ligand
 OpenBabel11021811483D
libRbt.so/2013.1/901 2013/11/27
 19 21  0  0  0  0  0  0  0  0999 V2000
   -6.1439   -6.5697   13.1604 C   0  0  0  0  0  0  0  0  0  0  0  0
   -6.2211   -7.9132   13.6595 O   0  0  0  0  0  0  0  0  0  0  0  0
   -7.2513   -6.3174   12.1347 C   0  0  1  0  0  0  0  0  0  0  0  0
   -7.2369   -4.9453   11.6965 O   0  0  0  0  0  0  0  0  0  0  0  0
   -7.0611   -7.1831   10.9017 C   0  0  1  0  0  0  0  0  0  0  0  0
   -7.9819   -8.2811   10.8937 O   0  0  0  0  0  0  0  0  0  0  0  0
   -7.3103   -6.2738    9.7180 C   0  0  0  0  0  0  0  0  0  0  0  0
   -7.2576   -4.8546   10.2644 C   0  0  2  0  0  0  0  0  0  0  0  0
   -4.8757   -0.2033    9.7305 N   0  0  0  0  0  0  0  0  0  0  0  0
   -6.0990   -0.5008   10.2453 C   0  0  1  0  0  0  0  0  0  0  0  0
   -6.8797    0.5036   10.7097 N   0  0  0  0  0  0  0  0  0  0  0  0
   -6.5573   -1.7810   10.3003 N   0  0  0  0  0  0  0  0  0  0  0  0
   -5.8142   -2.8262    9.8455 C   0  0  2  0  0  0  0  0  0  0  0  0
   -4.5619   -2.5837    9.3104 C   0  0  1  0  0  0  0  0  0  0  0  0
   -4.0729   -1.1824    9.2580 C   0  0  0  0  0  0  0  0  0  0  0  0
   -2.9447   -0.9130    8.7884 O   0  0  0  0  0  0  0  0  0  0  0  0
   -4.0364   -3.7656    8.9442 N   0  0  0  0  0  0  0  0  0  0  0  0
   -4.9460   -4.7236    9.2394 C   0  0  0  0  0  0  0  0  0  0  0  0
   -6.0313   -4.1486    9.7889 N   0  0  1  0  0  0  0  0  0  0  0  0
  1  2  1  0  0  0  0
  3  1  1  1  0  0  0
  3  4  1  0  0  0  0
  3  5  1  0  0  0  0
  5  6  1  1  0  0  0
  5  7  1  0  0  0  0
  7  8  1  0  0  0  0
  8  4  1  1  0  0  0
  8 19  1  0  0  0  0
  9 15  1  0  0  0  0
  9 10  1  0  0  0  0
 10 11  1  6  0  0  0
 10 12  1  0  0  0  0
 13 12  1  6  0  0  0
 13 14  1  0  0  0  0
 13 19  1  0  0  0  0
 14 15  1  1  0  0  0
 14 17  1  0  0  0  0
 15 16  2  0  0  0  0
 17 18  1  0  0  0  0
 19 18  1  1  0  0  0
M  END
>  <CHROM.1>
176.10288827,-76.44320957,-5.98553215,-4.00260565,10.50285745,1.99664217
-0.72522426,3.08553694

>  <Name>
ligand

>  <RI>
0

>  <Rbt.Current_Directory>
/home/itssahil/PROJECTS/Mol_Feturizer/New_Systems/rnas/3SKI

>  <Rbt.Executable>
rbdock ($Id: //depot/dev/client3/rdock/2013.1/src/exe/rbdock.cxx#4 $)

>  <Rbt.Library>
libRbt.so (2013.1, Build901 2013/11/27)

>  <Rbt.Parameter_File>
/export/apps/rDock/src/rDock_2013.1_src/data/scripts/dock_solv.prm

>  <Rbt.Receptor>
prm/pocket_docking_4.prm

>  <SCORE>
-17.4196

>  <SCORE.INTER>
-15.0882

>  <SCORE.INTER.CONST>
1

>  <SCORE.INTER.POLAR>
0

>  <SCORE.INTER.ROT>
2

>  <SCORE.INTER.SOLV>
18.2901

>  <SCORE.INTER.VDW>
-21.0888

>  <SCORE.INTER.norm>
-0.794117

>  <SCORE.INTRA>
-2.33142

>  <SCORE.INTRA.DIHEDRAL>
-5.02662

>  <SCORE.INTRA.DIHEDRAL.0>
6.26853

>  <SCORE.INTRA.POLAR>
0

>  <SCORE.INTRA.POLAR.0>
0

>  <SCORE.INTRA.REPUL>
0

>  <SCORE.INTRA.REPUL.0>
0

>  <SCORE.INTRA.SOLV>
-0.0109147

>  <SCORE.INTRA.SOLV.lig_0>
-38.4926

>  <SCORE.INTRA.VDW>
0.187351

>  <SCORE.INTRA.VDW.0>
-0.59057

>  <SCORE.INTRA.norm>
-0.122706

>  <SCORE.RESTR>
0

>  <SCORE.RESTR.CAVITY>
0

>  <SCORE.RESTR.norm>
0

>  <SCORE.SYSTEM>
0

>  <SCORE.SYSTEM.CONST>
0

>  <SCORE.SYSTEM.DIHEDRAL>
0

>  <SCORE.SYSTEM.SOLV>
0

>  <SCORE.SYSTEM.norm>
0

>  <SCORE.heavy>
19

>  <SCORE.norm>
-0.916823

>  <RMSD>
0.816

$$$$
ligand
 OpenBabel11021811483D
libRbt.so/2013.1/901 2013/11/27
 19 21  0  0  0  0  0  0  0  0999 V2000
   -5.9485   -6.7174   13.1170 C   0  0  0  0  0  0  0  0  0  0  0  0
   -6.0626   -8.0947   13.5046 O   0  0  0  0  0  0  0  0  0  0  0  0
   -7.1333   -6.3109   12.2380 C   0  0  1  0  0  0  0  0  0  0  0  0
   -7.0716   -4.9081   11.9165 O   0  0  0  0  0  0  0  0  0  0  0  0
   -7.1250   -7.0720   10.9240 C   0  0  1  0  0  0  0  0  0  0  0  0
   -8.1129   -8.1101   10.9213 O   0  0  0  0  0  0  0  0  0  0  0  0
   -7.4300   -6.0474    9.8529 C   0  0  0  0  0  0  0  0  0  0  0  0
   -7.2289   -4.6883   10.5070 C   0  0  2  0  0  0  0  0  0  0  0  0
   -4.8686   -0.0801    9.6201 N   0  0  0  0  0  0  0  0  0  0  0  0
   -6.0832   -0.3439   10.1727 C   0  0  1  0  0  0  0  0  0  0  0  0
   -6.8597    0.6885   10.5791 N   0  0  0  0  0  0  0  0  0  0  0  0
   -6.5369   -1.6182   10.3221 N   0  0  0  0  0  0  0  0  0  0  0  0
   -5.7977   -2.6907    9.9285 C   0  0  2  0  0  0  0  0  0  0  0  0
   -4.5544   -2.4831    9.3591 C   0  0  1  0  0  0  0  0  0  0  0  0
   -4.0703   -1.0877    9.2036 C   0  0  0  0  0  0  0  0  0  0  0  0
   -2.9500   -0.8490    8.6996 O   0  0  0  0  0  0  0  0  0  0  0  0
   -4.0310   -3.6863    9.0666 N   0  0  0  0  0  0  0  0  0  0  0  0
   -4.9333   -4.6235    9.4405 C   0  0  0  0  0  0  0  0  0  0  0  0
   -6.0119   -4.0142    9.9658 N   0  0  1  0  0  0  0  0  0  0  0  0
  1  2  1  0  0  0  0
  3  1  1  1  0  0  0
  3  4  1  0  0  0  0
  3  5  1  0  0  0  0
  5  6  1  1  0  0  0
  5  7  1  0  0  0  0
  7  8  1  0  0  0  0
  8  4  1  1  0  0  0
  8 19  1  0  0  0  0
  9 15  1  0  0  0  0
  9 10  1  0  0  0  0
 10 11  1  6  0  0  0
 10 12  1  0  0  0  0
 13 12  1  6  0  0  0
 13 14  1  0  0  0  0
 13 19  1  0  0  0  0
 14 15  1  1  0  0  0
 14 17  1  0  0  0  0
 15 16  2  0  0  0  0
 17 18  1  0  0  0  0
 19 18  1  1  0  0  0
M  END
>  <CHROM.1>
176.26901765,-87.30662966,-5.95944277,-3.91494167,10.54011328,-1.92014481
0.54464691,-0.16823439

>  <Name>
ligand

>  <RI>
0

>  <Rbt.Current_Directory>
/home/itssahil/PROJECTS/Mol_Feturizer/New_Systems/rnas/3SKI

>  <Rbt.Executable>
rbdock ($Id: //depot/dev/client3/rdock/2013.1/src/exe/rbdock.cxx#4 $)

>  <Rbt.Library>
libRbt.so (2013.1, Build901 2013/11/27)

>  <Rbt.Parameter_File>
/export/apps/rDock/src/rDock_2013.1_src/data/scripts/dock_solv.prm

>  <Rbt.Receptor>
prm/pocket_docking_4.prm

>  <SCORE>
-17.4741

>  <SCORE.INTER>
-15.0006

>  <SCORE.INTER.CONST>
1

>  <SCORE.INTER.POLAR>
0

>  <SCORE.INTER.ROT>
2

>  <SCORE.INTER.SOLV>
18.3905

>  <SCORE.INTER.VDW>
-21.0639

>  <SCORE.INTER.norm>
-0.789504

>  <SCORE.INTRA>
-2.4735

>  <SCORE.INTRA.DIHEDRAL>
-5.03528

>  <SCORE.INTRA.DIHEDRAL.0>
6.26853

>  <SCORE.INTRA.POLAR>
0

>  <SCORE.INTRA.POLAR.0>
0

>  <SCORE.INTRA.REPUL>
0

>  <SCORE.INTRA.REPUL.0>
0

>  <SCORE.INTRA.SOLV>
-0.0178877

>  <SCORE.INTRA.SOLV.lig_0>
-38.4926

>  <SCORE.INTRA.VDW>
0.0530856

>  <SCORE.INTRA.VDW.0>
-0.59057

>  <SCORE.INTRA.norm>
-0.130184

>  <SCORE.RESTR>
0

>  <SCORE.RESTR.CAVITY>
0

>  <SCORE.RESTR.norm>
0

>  <SCORE.SYSTEM>
0

>  <SCORE.SYSTEM.CONST>
0

>  <SCORE.SYSTEM.DIHEDRAL>
0

>  <SCORE.SYSTEM.SOLV>
0

>  <SCORE.SYSTEM.norm>
0

>  <SCORE.heavy>
19

>  <SCORE.norm>
-0.919688

>  <RMSD>
0.817

$$$$
ligand
 OpenBabel11021811483D
libRbt.so/2013.1/901 2013/11/27
 19 21  0  0  0  0  0  0  0  0999 V2000
   -6.3766   -7.1560   12.8251 C   0  0  0  0  0  0  0  0  0  0  0  0
   -6.4830   -8.5417   13.1842 O   0  0  0  0  0  0  0  0  0  0  0  0
   -7.4508   -6.7870   11.7996 C   0  0  1  0  0  0  0  0  0  0  0  0
   -7.3996   -5.3807   11.4917 O   0  0  0  0  0  0  0  0  0  0  0  0
   -7.2428   -7.5384   10.4965 C   0  0  1  0  0  0  0  0  0  0  0  0
   -8.1829   -8.6117   10.3627 O   0  0  0  0  0  0  0  0  0  0  0  0
   -7.4431   -6.5183    9.3968 C   0  0  0  0  0  0  0  0  0  0  0  0
   -7.3795   -5.1573   10.0742 C   0  0  2  0  0  0  0  0  0  0  0  0
   -5.0213   -0.4761    9.7296 N   0  0  0  0  0  0  0  0  0  0  0  0
   -6.2781   -0.7892   10.1451 C   0  0  1  0  0  0  0  0  0  0  0  0
   -7.1061    0.2051   10.5447 N   0  0  0  0  0  0  0  0  0  0  0  0
   -6.7231   -2.0751   10.1640 N   0  0  0  0  0  0  0  0  0  0  0  0
   -5.9329   -3.1107    9.7709 C   0  0  2  0  0  0  0  0  0  0  0  0
   -4.6449   -2.8523    9.3377 C   0  0  1  0  0  0  0  0  0  0  0  0
   -4.1710   -1.4448    9.3237 C   0  0  0  0  0  0  0  0  0  0  0  0
   -3.0123   -1.1611    8.9458 O   0  0  0  0  0  0  0  0  0  0  0  0
   -4.0769   -4.0273    9.0155 N   0  0  0  0  0  0  0  0  0  0  0  0
   -4.9951   -4.9968    9.2376 C   0  0  0  0  0  0  0  0  0  0  0  0
   -6.1280   -4.4357    9.6980 N   0  0  1  0  0  0  0  0  0  0  0  0
  1  2  1  0  0  0  0
  3  1  1  1  0  0  0
  3  4  1  0  0  0  0
  3  5  1  0  0  0  0
  5  6  1  6  0  0  0
  5  7  1  0  0  0  0
  7  8  1  0  0  0  0
  8  4  1  1  0  0  0
  8 19  1  0  0  0  0
  9 15  1  0  0  0  0
  9 10  1  0  0  0  0
 10 11  1  6  0  0  0
 10 12  1  0  0  0  0
 13 12  1  6  0  0  0
 13 14  1  0  0  0  0
 13 19  1  0  0  0  0
 14 15  1  1  0  0  0
 14 17  1  0  0  0  0
 15 16  2  0  0  0  0
 17 18  1  0  0  0  0
 19 18  1  1  0  0  0
M  END
>  <CHROM.1>
176.70749078,-82.87871916,-6.13317165,-4.34320902,10.33556613,1.94111362
-0.52652736,3.05143327

>  <Name>
ligand

>  <RI>
0

>  <Rbt.Current_Directory>
/home/itssahil/PROJECTS/Mol_Feturizer/New_Systems/rnas/3SKI

>  <Rbt.Executable>
rbdock ($Id: //depot/dev/client3/rdock/2013.1/src/exe/rbdock.cxx#4 $)

>  <Rbt.Library>
libRbt.so (2013.1, Build901 2013/11/27)

>  <Rbt.Parameter_File>
/export/apps/rDock/src/rDock_2013.1_src/data/scripts/dock_solv.prm

>  <Rbt.Receptor>
prm/pocket_docking_2.prm

>  <SCORE>
-17.3447

>  <SCORE.INTER>
-14.9481

>  <SCORE.INTER.CONST>
1

>  <SCORE.INTER.POLAR>
0

>  <SCORE.INTER.ROT>
2

>  <SCORE.INTER.SOLV>
17.7714

>  <SCORE.INTER.VDW>
-20.8225

>  <SCORE.INTER.norm>
-0.786741

>  <SCORE.INTRA>
-2.39661

>  <SCORE.INTRA.DIHEDRAL>
-5.04517

>  <SCORE.INTRA.DIHEDRAL.0>
6.26853

>  <SCORE.INTRA.POLAR>
0

>  <SCORE.INTRA.POLAR.0>
0

>  <SCORE.INTRA.REPUL>
0

>  <SCORE.INTRA.REPUL.0>
0

>  <SCORE.INTRA.SOLV>
-0.0124867

>  <SCORE.INTRA.SOLV.lig_0>
-38.4926

>  <SCORE.INTRA.VDW>
0.13222

>  <SCORE.INTRA.VDW.0>
-0.59057

>  <SCORE.INTRA.norm>
-0.126137

>  <SCORE.RESTR>
0

>  <SCORE.RESTR.CAVITY>
0

>  <SCORE.RESTR.norm>
0

>  <SCORE.SYSTEM>
0

>  <SCORE.SYSTEM.CONST>
0

>  <SCORE.SYSTEM.DIHEDRAL>
0

>  <SCORE.SYSTEM.SOLV>
0

>  <SCORE.SYSTEM.norm>
0

>  <SCORE.heavy>
19

>  <SCORE.norm>
-0.912878

>  <RMSD>
0.820

$$$$
ligand
 OpenBabel11021811483D
libRbt.so/2013.1/901 2013/11/27
 19 21  0  0  0  0  0  0  0  0999 V2000
   -6.4331   -7.0465   12.8160 C   0  0  0  0  0  0  0  0  0  0  0  0
   -6.5567   -8.4081   13.2532 O   0  0  0  0  0  0  0  0  0  0  0  0
   -7.4665   -6.7394   11.7299 C   0  0  1  0  0  0  0  0  0  0  0  0
   -7.4315   -5.3442   11.3733 O   0  0  0  0  0  0  0  0  0  0  0  0
   -7.1825   -7.5317   10.4661 C   0  0  1  0  0  0  0  0  0  0  0  0
   -8.0919   -8.6307   10.3292 O   0  0  0  0  0  0  0  0  0  0  0  0
   -7.3537   -6.5565    9.3217 C   0  0  0  0  0  0  0  0  0  0  0  0
   -7.3509   -5.1710    9.9510 C   0  0  2  0  0  0  0  0  0  0  0  0
   -5.0173   -0.4699    9.7336 N   0  0  0  0  0  0  0  0  0  0  0  0
   -6.2773   -0.7989   10.1265 C   0  0  1  0  0  0  0  0  0  0  0  0
   -7.1164    0.1820   10.5363 N   0  0  0  0  0  0  0  0  0  0  0  0
   -6.7146   -2.0876   10.1131 N   0  0  0  0  0  0  0  0  0  0  0  0
   -5.9132   -3.1100    9.7086 C   0  0  2  0  0  0  0  0  0  0  0  0
   -4.6216   -2.8351    9.2971 C   0  0  1  0  0  0  0  0  0  0  0  0
   -4.1562   -1.4249    9.3184 C   0  0  0  0  0  0  0  0  0  0  0  0
   -2.9945   -1.1265    8.9611 O   0  0  0  0  0  0  0  0  0  0  0  0
   -4.0423   -3.9998    8.9578 N   0  0  0  0  0  0  0  0  0  0  0  0
   -4.9572   -4.9790    9.1480 C   0  0  0  0  0  0  0  0  0  0  0  0
   -6.0993   -4.4344    9.6056 N   0  0  1  0  0  0  0  0  0  0  0  0
  1  2  1  0  0  0  0
  3  1  1  1  0  0  0
  3  4  1  0  0  0  0
  3  5  1  0  0  0  0
  5  6  1  6  0  0  0
  5  7  1  0  0  0  0
  7  8  1  0  0  0  0
  8  4  1  1  0  0  0
  8 19  1  0  0  0  0
  9 15  1  0  0  0  0
  9 10  1  0  0  0  0
 10 11  1  6  0  0  0
 10 12  1  0  0  0  0
 13 12  1  6  0  0  0
 13 14  1  0  0  0  0
 13 19  1  0  0  0  0
 14 15  1  1  0  0  0
 14 17  1  0  0  0  0
 15 16  2  0  0  0  0
 17 18  1  0  0  0  0
 19 18  1  1  0  0  0
M  END
>  <CHROM.1>
174.71783745,-78.98214448,-6.11962885,-4.32389927,10.29481752,1.96377495
-0.59373235,3.08724003

>  <Name>
ligand

>  <RI>
0

>  <Rbt.Current_Directory>
/home/itssahil/PROJECTS/Mol_Feturizer/New_Systems/rnas/3SKI

>  <Rbt.Executable>
rbdock ($Id: //depot/dev/client3/rdock/2013.1/src/exe/rbdock.cxx#4 $)

>  <Rbt.Library>
libRbt.so (2013.1, Build901 2013/11/27)

>  <Rbt.Parameter_File>
/export/apps/rDock/src/rDock_2013.1_src/data/scripts/dock_solv.prm

>  <Rbt.Receptor>
prm/pocket_docking_2.prm

>  <SCORE>
-17.4329

>  <SCORE.INTER>
-15.0938

>  <SCORE.INTER.CONST>
1

>  <SCORE.INTER.POLAR>
0

>  <SCORE.INTER.ROT>
2

>  <SCORE.INTER.SOLV>
17.8533

>  <SCORE.INTER.VDW>
-20.9469

>  <SCORE.INTER.norm>
-0.794408

>  <SCORE.INTRA>
-2.33913

>  <SCORE.INTRA.DIHEDRAL>
-4.98305

>  <SCORE.INTRA.DIHEDRAL.0>
6.26853

>  <SCORE.INTRA.POLAR>
0

>  <SCORE.INTRA.POLAR.0>
0

>  <SCORE.INTRA.REPUL>
0

>  <SCORE.INTRA.REPUL.0>
0

>  <SCORE.INTRA.SOLV>
-0.0197296

>  <SCORE.INTRA.SOLV.lig_0>
-38.4926

>  <SCORE.INTRA.VDW>
0.162261

>  <SCORE.INTRA.VDW.0>
-0.59057

>  <SCORE.INTRA.norm>
-0.123112

>  <SCORE.RESTR>
0

>  <SCORE.RESTR.CAVITY>
0

>  <SCORE.RESTR.norm>
0

>  <SCORE.SYSTEM>
0

>  <SCORE.SYSTEM.CONST>
0

>  <SCORE.SYSTEM.DIHEDRAL>
0

>  <SCORE.SYSTEM.SOLV>
0

>  <SCORE.SYSTEM.norm>
0

>  <SCORE.heavy>
19

>  <SCORE.norm>
-0.917521

>  <RMSD>
0.821

$$$$
ligand
 OpenBabel11021811483D
libRbt.so/2013.1/901 2013/11/27
 19 21  0  0  0  0  0  0  0  0999 V2000
   -6.4422   -7.0315   12.8404 C   0  0  0  0  0  0  0  0  0  0  0  0
   -6.5779   -8.3846   13.2996 O   0  0  0  0  0  0  0  0  0  0  0  0
   -7.4750   -6.7318   11.7517 C   0  0  1  0  0  0  0  0  0  0  0  0
   -7.4404   -5.3389   11.3861 O   0  0  0  0  0  0  0  0  0  0  0  0
   -7.1896   -7.5322   10.4931 C   0  0  1  0  0  0  0  0  0  0  0  0
   -8.0984   -8.6324   10.3627 O   0  0  0  0  0  0  0  0  0  0  0  0
   -7.3605   -6.5644    9.3424 C   0  0  0  0  0  0  0  0  0  0  0  0
   -7.3589   -5.1749    9.9627 C   0  0  2  0  0  0  0  0  0  0  0  0
   -5.0201   -0.4767    9.7378 N   0  0  0  0  0  0  0  0  0  0  0  0
   -6.2794   -0.8041   10.1345 C   0  0  1  0  0  0  0  0  0  0  0  0
   -7.1160    0.1779   10.5466 N   0  0  0  0  0  0  0  0  0  0  0  0
   -6.7183   -2.0922   10.1226 N   0  0  0  0  0  0  0  0  0  0  0  0
   -5.9193   -3.1157    9.7158 C   0  0  2  0  0  0  0  0  0  0  0  0
   -4.6286   -2.8424    9.3005 C   0  0  1  0  0  0  0  0  0  0  0  0
   -4.1613   -1.4328    9.3202 C   0  0  0  0  0  0  0  0  0  0  0  0
   -3.0004   -1.1359    8.9594 O   0  0  0  0  0  0  0  0  0  0  0  0
   -4.0517   -4.0079    8.9596 N   0  0  0  0  0  0  0  0  0  0  0  0
   -4.9673   -4.9860    9.1527 C   0  0  0  0  0  0  0  0  0  0  0  0
   -6.1073   -4.4398    9.6136 N   0  0  1  0  0  0  0  0  0  0  0  0
  1  2  1  0  0  0  0
  3  1  1  1  0  0  0
  3  4  1  0  0  0  0
  3  5  1  0  0  0  0
  5  6  1  6  0  0  0
  5  7  1  0  0  0  0
  7  8  1  0  0  0  0
  8  4  1  1  0  0  0
  8 19  1  0  0  0  0
  9 15  1  0  0  0  0
  9 10  1  0  0  0  0
 10 11  1  6  0  0  0
 10 12  1  0  0  0  0
 13 12  1  6  0  0  0
 13 14  1  0  0  0  0
 13 19  1  0  0  0  0
 14 15  1  1  0  0  0
 14 17  1  0  0  0  0
 15 16  2  0  0  0  0
 17 18  1  0  0  0  0
 19 18  1  1  0  0  0
M  END
>  <CHROM.1>
173.90762249,-78.55268590,-6.12691968,-4.32536673,10.30879090,1.96985698
-0.60818913,3.09142308

>  <Name>
ligand

>  <RI>
0

>  <Rbt.Current_Directory>
/home/itssahil/PROJECTS/Mol_Feturizer/New_Systems/rnas/3SKI

>  <Rbt.Executable>
rbdock ($Id: //depot/dev/client3/rdock/2013.1/src/exe/rbdock.cxx#4 $)

>  <Rbt.Library>
libRbt.so (2013.1, Build901 2013/11/27)

>  <Rbt.Parameter_File>
/export/apps/rDock/src/rDock_2013.1_src/data/scripts/dock_solv.prm

>  <Rbt.Receptor>
prm/pocket_docking_7.prm

>  <SCORE>
-17.4629

>  <SCORE.INTER>
-15.1395

>  <SCORE.INTER.CONST>
1

>  <SCORE.INTER.POLAR>
0

>  <SCORE.INTER.ROT>
2

>  <SCORE.INTER.SOLV>
17.8758

>  <SCORE.INTER.VDW>
-20.985

>  <SCORE.INTER.norm>
-0.796817

>  <SCORE.INTRA>
-2.32337

>  <SCORE.INTRA.DIHEDRAL>
-4.95028

>  <SCORE.INTRA.DIHEDRAL.0>
6.26853

>  <SCORE.INTRA.POLAR>
0

>  <SCORE.INTRA.POLAR.0>
0

>  <SCORE.INTRA.REPUL>
0

>  <SCORE.INTRA.REPUL.0>
0

>  <SCORE.INTRA.SOLV>
-0.0235464

>  <SCORE.INTRA.SOLV.lig_0>
-38.4926

>  <SCORE.INTRA.VDW>
0.163545

>  <SCORE.INTRA.VDW.0>
-0.59057

>  <SCORE.INTRA.norm>
-0.122282

>  <SCORE.RESTR>
0

>  <SCORE.RESTR.CAVITY>
0

>  <SCORE.RESTR.norm>
0

>  <SCORE.SYSTEM>
0

>  <SCORE.SYSTEM.CONST>
0

>  <SCORE.SYSTEM.DIHEDRAL>
0

>  <SCORE.SYSTEM.SOLV>
0

>  <SCORE.SYSTEM.norm>
0

>  <SCORE.heavy>
19

>  <SCORE.norm>
-0.919099

>  <RMSD>
0.825

$$$$
ligand
 OpenBabel11021811483D
libRbt.so/2013.1/901 2013/11/27
 19 21  0  0  0  0  0  0  0  0999 V2000
   -6.4867   -7.1202   12.8109 C   0  0  0  0  0  0  0  0  0  0  0  0
   -6.6262   -8.4883   13.2223 O   0  0  0  0  0  0  0  0  0  0  0  0
   -7.5052   -6.7853   11.7190 C   0  0  1  0  0  0  0  0  0  0  0  0
   -7.4548   -5.3843   11.3877 O   0  0  0  0  0  0  0  0  0  0  0  0
   -7.2132   -7.5574   10.4444 C   0  0  1  0  0  0  0  0  0  0  0  0
   -8.1299   -8.6462   10.2778 O   0  0  0  0  0  0  0  0  0  0  0  0
   -7.3635   -6.5606    9.3158 C   0  0  0  0  0  0  0  0  0  0  0  0
   -7.3566   -5.1866    9.9697 C   0  0  2  0  0  0  0  0  0  0  0  0
   -5.0089   -0.4912    9.7830 N   0  0  0  0  0  0  0  0  0  0  0  0
   -6.2791   -0.8155   10.1459 C   0  0  1  0  0  0  0  0  0  0  0  0
   -7.1262    0.1694   10.5285 N   0  0  0  0  0  0  0  0  0  0  0  0
   -6.7185   -2.1034   10.1293 N   0  0  0  0  0  0  0  0  0  0  0  0
   -5.9091   -3.1298    9.7512 C   0  0  2  0  0  0  0  0  0  0  0  0
   -4.6070   -2.8597    9.3708 C   0  0  1  0  0  0  0  0  0  0  0  0
   -4.1394   -1.4503    9.3953 C   0  0  0  0  0  0  0  0  0  0  0  0
   -2.9686   -1.1562    9.0657 O   0  0  0  0  0  0  0  0  0  0  0  0
   -4.0216   -4.0276    9.0532 N   0  0  0  0  0  0  0  0  0  0  0  0
   -4.9430   -5.0039    9.2262 C   0  0  0  0  0  0  0  0  0  0  0  0
   -6.0952   -4.4544    9.6516 N   0  0  1  0  0  0  0  0  0  0  0  0
  1  2  1  0  0  0  0
  3  1  1  1  0  0  0
  3  4  1  0  0  0  0
  3  5  1  0  0  0  0
  5  6  1  6  0  0  0
  5  7  1  0  0  0  0
  7  8  1  0  0  0  0
  8  4  1  1  0  0  0
  8 19  1  0  0  0  0
  9 15  1  0  0  0  0
  9 10  1  0  0  0  0
 10 11  1  6  0  0  0
 10 12  1  0  0  0  0
 13 12  1  6  0  0  0
 13 14  1  0  0  0  0
 13 19  1  0  0  0  0
 14 15  1  1  0  0  0
 14 17  1  0  0  0  0
 15 16  2  0  0  0  0
 17 18  1  0  0  0  0
 19 18  1  1  0  0  0
M  END
>  <CHROM.1>
174.72395703,-80.60467367,-6.12992936,-4.35292816,10.31983841,1.95668852
-0.53910892,3.07660643

>  <Name>
ligand

>  <RI>
0

>  <Rbt.Current_Directory>
/home/itssahil/PROJECTS/Mol_Feturizer/New_Systems/rnas/3SKI

>  <Rbt.Executable>
rbdock ($Id: //depot/dev/client3/rdock/2013.1/src/exe/rbdock.cxx#4 $)

>  <Rbt.Library>
libRbt.so (2013.1, Build901 2013/11/27)

>  <Rbt.Parameter_File>
/export/apps/rDock/src/rDock_2013.1_src/data/scripts/dock_solv.prm

>  <Rbt.Receptor>
prm/pocket_docking_2.prm

>  <SCORE>
-17.3883

>  <SCORE.INTER>
-15.0239

>  <SCORE.INTER.CONST>
1

>  <SCORE.INTER.POLAR>
0

>  <SCORE.INTER.ROT>
2

>  <SCORE.INTER.SOLV>
17.8219

>  <SCORE.INTER.VDW>
-20.8899

>  <SCORE.INTER.norm>
-0.790734

>  <SCORE.INTRA>
-2.36435

>  <SCORE.INTRA.DIHEDRAL>
-4.98406

>  <SCORE.INTRA.DIHEDRAL.0>
6.26853

>  <SCORE.INTRA.POLAR>
0

>  <SCORE.INTRA.POLAR.0>
0

>  <SCORE.INTRA.REPUL>
0

>  <SCORE.INTRA.REPUL.0>
0

>  <SCORE.INTRA.SOLV>
-0.0208617

>  <SCORE.INTRA.SOLV.lig_0>
-38.4926

>  <SCORE.INTRA.VDW>
0.138109

>  <SCORE.INTRA.VDW.0>
-0.59057

>  <SCORE.INTRA.norm>
-0.12444

>  <SCORE.RESTR>
0

>  <SCORE.RESTR.CAVITY>
0

>  <SCORE.RESTR.norm>
0

>  <SCORE.SYSTEM>
0

>  <SCORE.SYSTEM.CONST>
0

>  <SCORE.SYSTEM.DIHEDRAL>
0

>  <SCORE.SYSTEM.SOLV>
0

>  <SCORE.SYSTEM.norm>
0

>  <SCORE.heavy>
19

>  <SCORE.norm>
-0.915173

>  <RMSD>
0.827

$$$$
ligand
 OpenBabel11021811483D
libRbt.so/2013.1/901 2013/11/27
 19 21  0  0  0  0  0  0  0  0999 V2000
   -6.4648   -7.0389   12.8321 C   0  0  0  0  0  0  0  0  0  0  0  0
   -6.6075   -8.3899   13.2952 O   0  0  0  0  0  0  0  0  0  0  0  0
   -7.4931   -6.7385   11.7392 C   0  0  1  0  0  0  0  0  0  0  0  0
   -7.4558   -5.3457   11.3735 O   0  0  0  0  0  0  0  0  0  0  0  0
   -7.2035   -7.5393   10.4819 C   0  0  1  0  0  0  0  0  0  0  0  0
   -8.1129   -8.6388   10.3482 O   0  0  0  0  0  0  0  0  0  0  0  0
   -7.3691   -6.5716    9.3304 C   0  0  0  0  0  0  0  0  0  0  0  0
   -7.3685   -5.1820    9.9504 C   0  0  2  0  0  0  0  0  0  0  0  0
   -5.0226   -0.4868    9.7390 N   0  0  0  0  0  0  0  0  0  0  0  0
   -6.2835   -0.8130   10.1315 C   0  0  1  0  0  0  0  0  0  0  0  0
   -7.1199    0.1696   10.5426 N   0  0  0  0  0  0  0  0  0  0  0  0
   -6.7241   -2.1005   10.1165 N   0  0  0  0  0  0  0  0  0  0  0  0
   -5.9254   -3.1245    9.7106 C   0  0  2  0  0  0  0  0  0  0  0  0
   -4.6330   -2.8524    9.2995 C   0  0  1  0  0  0  0  0  0  0  0  0
   -4.1639   -1.4435    9.3225 C   0  0  0  0  0  0  0  0  0  0  0  0
   -3.0015   -1.1477    8.9656 O   0  0  0  0  0  0  0  0  0  0  0  0
   -4.0568   -4.0182    8.9587 N   0  0  0  0  0  0  0  0  0  0  0  0
   -4.9743   -4.9953    9.1477 C   0  0  0  0  0  0  0  0  0  0  0  0
   -6.1149   -4.4482    9.6060 N   0  0  1  0  0  0  0  0  0  0  0  0
  1  2  1  0  0  0  0
  3  1  1  1  0  0  0
  3  4  1  0  0  0  0
  3  5  1  0  0  0  0
  5  6  1  6  0  0  0
  5  7  1  0  0  0  0
  7  8  1  0  0  0  0
  8  4  1  1  0  0  0
  8 19  1  0  0  0  0
  9 15  1  0  0  0  0
  9 10  1  0  0  0  0
 10 11  1  6  0  0  0
 10 12  1  0  0  0  0
 13 12  1  6  0  0  0
 13 14  1  0  0  0  0
 13 19  1  0  0  0  0
 14 15  1  1  0  0  0
 14 17  1  0  0  0  0
 15 16  2  0  0  0  0
 17 18  1  0  0  0  0
 19 18  1  1  0  0  0
M  END
>  <CHROM.1>
173.64684426,-78.44256150,-6.13682183,-4.33367866,10.30288441,1.97307863
-0.60849740,3.09496206

>  <Name>
ligand

>  <RI>
0

>  <Rbt.Current_Directory>
/home/itssahil/PROJECTS/Mol_Feturizer/New_Systems/rnas/3SKI

>  <Rbt.Executable>
rbdock ($Id: //depot/dev/client3/rdock/2013.1/src/exe/rbdock.cxx#4 $)

>  <Rbt.Library>
libRbt.so (2013.1, Build901 2013/11/27)

>  <Rbt.Parameter_File>
/export/apps/rDock/src/rDock_2013.1_src/data/scripts/dock_solv.prm

>  <Rbt.Receptor>
prm/pocket_docking_4.prm

>  <SCORE>
-17.4511

>  <SCORE.INTER>
-15.133

>  <SCORE.INTER.CONST>
1

>  <SCORE.INTER.POLAR>
0

>  <SCORE.INTER.ROT>
2

>  <SCORE.INTER.SOLV>
17.8826

>  <SCORE.INTER.VDW>
-20.9828

>  <SCORE.INTER.norm>
-0.796471

>  <SCORE.INTRA>
-2.31819

>  <SCORE.INTRA.DIHEDRAL>
-4.93878

>  <SCORE.INTRA.DIHEDRAL.0>
6.26853

>  <SCORE.INTRA.POLAR>
0

>  <SCORE.INTRA.POLAR.0>
0

>  <SCORE.INTRA.REPUL>
0

>  <SCORE.INTRA.REPUL.0>
0

>  <SCORE.INTRA.SOLV>
-0.024799

>  <SCORE.INTRA.SOLV.lig_0>
-38.4926

>  <SCORE.INTRA.VDW>
0.163604

>  <SCORE.INTRA.VDW.0>
-0.59057

>  <SCORE.INTRA.norm>
-0.12201

>  <SCORE.RESTR>
0

>  <SCORE.RESTR.CAVITY>
0

>  <SCORE.RESTR.norm>
0

>  <SCORE.SYSTEM>
0

>  <SCORE.SYSTEM.CONST>
0

>  <SCORE.SYSTEM.DIHEDRAL>
0

>  <SCORE.SYSTEM.SOLV>
0

>  <SCORE.SYSTEM.norm>
0

>  <SCORE.heavy>
19

>  <SCORE.norm>
-0.918481

>  <RMSD>
0.827

$$$$
ligand
 OpenBabel11021811483D
libRbt.so/2013.1/901 2013/11/27
 19 21  0  0  0  0  0  0  0  0999 V2000
   -6.0376   -6.5398   13.1687 C   0  0  0  0  0  0  0  0  0  0  0  0
   -6.1081   -7.8915   13.6462 O   0  0  0  0  0  0  0  0  0  0  0  0
   -7.1671   -6.2664   12.1730 C   0  0  1  0  0  0  0  0  0  0  0  0
   -7.1578   -4.8870   11.7582 O   0  0  0  0  0  0  0  0  0  0  0  0
   -7.0081   -7.1114   10.9214 C   0  0  1  0  0  0  0  0  0  0  0  0
   -7.9328   -8.2062   10.9156 O   0  0  0  0  0  0  0  0  0  0  0  0
   -7.2810   -6.1811    9.7594 C   0  0  0  0  0  0  0  0  0  0  0  0
   -7.2108   -4.7717   10.3286 C   0  0  2  0  0  0  0  0  0  0  0  0
   -4.8413   -0.1150    9.7862 N   0  0  0  0  0  0  0  0  0  0  0  0
   -6.0557   -0.4169   10.3195 C   0  0  1  0  0  0  0  0  0  0  0  0
   -6.8292    0.5838   10.8036 N   0  0  0  0  0  0  0  0  0  0  0  0
   -6.5121   -1.6978   10.3735 N   0  0  0  0  0  0  0  0  0  0  0  0
   -5.7760   -2.7393    9.8993 C   0  0  2  0  0  0  0  0  0  0  0  0
   -4.5330   -2.4923    9.3450 C   0  0  1  0  0  0  0  0  0  0  0  0
   -4.0460   -1.0902    9.2938 C   0  0  0  0  0  0  0  0  0  0  0  0
   -2.9259   -0.8168    8.8072 O   0  0  0  0  0  0  0  0  0  0  0  0
   -4.0129   -3.6713    8.9620 N   0  0  0  0  0  0  0  0  0  0  0  0
   -4.9167   -4.6319    9.2660 C   0  0  0  0  0  0  0  0  0  0  0  0
   -5.9931   -4.0615    9.8374 N   0  0  1  0  0  0  0  0  0  0  0  0
  1  2  1  0  0  0  0
  3  1  1  1  0  0  0
  3  4  1  0  0  0  0
  3  5  1  0  0  0  0
  5  6  1  1  0  0  0
  5  7  1  0  0  0  0
  7  8  1  0  0  0  0
  8  4  1  1  0  0  0
  8 19  1  0  0  0  0
  9 15  1  0  0  0  0
  9 10  1  0  0  0  0
 10 11  1  6  0  0  0
 10 12  1  0  0  0  0
 13 12  1  6  0  0  0
 13 14  1  0  0  0  0
 13 19  1  0  0  0  0
 14 15  1  1  0  0  0
 14 17  1  0  0  0  0
 15 16  2  0  0  0  0
 17 18  1  0  0  0  0
 19 18  1  1  0  0  0
M  END
>  <CHROM.1>
176.11110614,-77.17307674,-5.93520020,-3.92666314,10.54291436,1.98813634
-0.72948931,3.08680532

>  <Name>
ligand

>  <RI>
0

>  <Rbt.Current_Directory>
/home/itssahil/PROJECTS/Mol_Feturizer/New_Systems/rnas/3SKI

>  <Rbt.Executable>
rbdock ($Id: //depot/dev/client3/rdock/2013.1/src/exe/rbdock.cxx#4 $)

>  <Rbt.Library>
libRbt.so (2013.1, Build901 2013/11/27)

>  <Rbt.Parameter_File>
/export/apps/rDock/src/rDock_2013.1_src/data/scripts/dock_solv.prm

>  <Rbt.Receptor>
prm/pocket_docking_3.prm

>  <SCORE>
-17.3529

>  <SCORE.INTER>
-15.0115

>  <SCORE.INTER.CONST>
1

>  <SCORE.INTER.POLAR>
0

>  <SCORE.INTER.ROT>
2

>  <SCORE.INTER.SOLV>
18.4428

>  <SCORE.INTER.VDW>
-21.0886

>  <SCORE.INTER.norm>
-0.790078

>  <SCORE.INTRA>
-2.34139

>  <SCORE.INTRA.DIHEDRAL>
-5.02729

>  <SCORE.INTRA.DIHEDRAL.0>
6.26853

>  <SCORE.INTRA.POLAR>
0

>  <SCORE.INTRA.POLAR.0>
0

>  <SCORE.INTRA.REPUL>
0

>  <SCORE.INTRA.REPUL.0>
0

>  <SCORE.INTRA.SOLV>
-0.0113923

>  <SCORE.INTRA.SOLV.lig_0>
-38.4926

>  <SCORE.INTRA.VDW>
0.177956

>  <SCORE.INTRA.VDW.0>
-0.59057

>  <SCORE.INTRA.norm>
-0.123231

>  <SCORE.RESTR>
0

>  <SCORE.RESTR.CAVITY>
0

>  <SCORE.RESTR.norm>
0

>  <SCORE.SYSTEM>
0

>  <SCORE.SYSTEM.CONST>
0

>  <SCORE.SYSTEM.DIHEDRAL>
0

>  <SCORE.SYSTEM.SOLV>
0

>  <SCORE.SYSTEM.norm>
0

>  <SCORE.heavy>
19

>  <SCORE.norm>
-0.913309

>  <RMSD>
0.831

$$$$
ligand
 OpenBabel11021811483D
libRbt.so/2013.1/901 2013/11/27
 19 21  0  0  0  0  0  0  0  0999 V2000
   -7.1191   -7.8869   10.6164 C   0  0  0  0  0  0  0  0  0  0  0  0
   -6.6454   -8.2044   11.9337 O   0  0  0  0  0  0  0  0  0  0  0  0
   -8.1150   -6.7264   10.6732 C   0  0  1  0  0  0  0  0  0  0  0  0
   -7.4869   -5.5413   11.1987 O   0  0  0  0  0  0  0  0  0  0  0  0
   -8.6320   -6.3821    9.2876 C   0  0  1  0  0  0  0  0  0  0  0  0
   -9.9658   -6.8703    9.0972 O   0  0  0  0  0  0  0  0  0  0  0  0
   -8.6032   -4.8716    9.2011 C   0  0  0  0  0  0  0  0  0  0  0  0
   -7.7311   -4.4046   10.3574 C   0  0  2  0  0  0  0  0  0  0  0  0
   -4.8116   -0.0879    9.6972 N   0  0  0  0  0  0  0  0  0  0  0  0
   -6.0572   -0.2237   10.2267 C   0  0  1  0  0  0  0  0  0  0  0  0
   -6.7070    0.8779   10.6718 N   0  0  0  0  0  0  0  0  0  0  0  0
   -6.6656   -1.4378   10.3153 N   0  0  0  0  0  0  0  0  0  0  0  0
   -6.0579   -2.5751    9.8809 C   0  0  2  0  0  0  0  0  0  0  0  0
   -4.7906   -2.4978    9.3323 C   0  0  1  0  0  0  0  0  0  0  0  0
   -4.1369   -1.1672    9.2433 C   0  0  0  0  0  0  0  0  0  0  0  0
   -2.9888   -1.0467    8.7603 O   0  0  0  0  0  0  0  0  0  0  0  0
   -4.4145   -3.7426    8.9912 N   0  0  0  0  0  0  0  0  0  0  0  0
   -5.4300   -4.5768    9.3150 C   0  0  0  0  0  0  0  0  0  0  0  0
   -6.4331   -3.8627    9.8574 N   0  0  1  0  0  0  0  0  0  0  0  0
  1  2  1  0  0  0  0
  3  1  1  6  0  0  0
  3  4  1  0  0  0  0
  3  5  1  0  0  0  0
  5  6  1  1  0  0  0
  5  7  1  0  0  0  0
  7  8  1  0  0  0  0
  8  4  1  1  0  0  0
  8 19  1  0  0  0  0
  9 15  1  0  0  0  0
  9 10  1  0  0  0  0
 10 11  1  6  0  0  0
 10 12  1  0  0  0  0
 13 12  1  6  0  0  0
 13 14  1  0  0  0  0
 13 19  1  0  0  0  0
 14 15  1  1  0  0  0
 14 17  1  0  0  0  0
 15 16  2  0  0  0  0
 17 18  1  0  0  0  0
 19 18  1  1  0  0  0
M  END
>  <CHROM.1>
61.38326076,-131.48359388,-6.49775414,-3.83527660,9.94958839,-2.03502411
0.08324454,-0.07115829

>  <Name>
ligand

>  <RI>
0

>  <Rbt.Current_Directory>
/home/itssahil/PROJECTS/Mol_Feturizer/New_Systems/rnas/3SKI

>  <Rbt.Executable>
rbdock ($Id: //depot/dev/client3/rdock/2013.1/src/exe/rbdock.cxx#4 $)

>  <Rbt.Library>
libRbt.so (2013.1, Build901 2013/11/27)

>  <Rbt.Parameter_File>
/export/apps/rDock/src/rDock_2013.1_src/data/scripts/dock_solv.prm

>  <Rbt.Receptor>
prm/pocket_docking_2.prm

>  <SCORE>
-17.0525

>  <SCORE.INTER>
-13.8569

>  <SCORE.INTER.CONST>
1

>  <SCORE.INTER.POLAR>
0

>  <SCORE.INTER.ROT>
2

>  <SCORE.INTER.SOLV>
17.1686

>  <SCORE.INTER.VDW>
-19.8941

>  <SCORE.INTER.norm>
-0.72931

>  <SCORE.INTRA>
-3.19564

>  <SCORE.INTRA.DIHEDRAL>
-5.04742

>  <SCORE.INTRA.DIHEDRAL.0>
6.26853

>  <SCORE.INTRA.POLAR>
0

>  <SCORE.INTRA.POLAR.0>
0

>  <SCORE.INTRA.REPUL>
0

>  <SCORE.INTRA.REPUL.0>
0

>  <SCORE.INTRA.SOLV>
-0.237051

>  <SCORE.INTRA.SOLV.lig_0>
-38.4926

>  <SCORE.INTRA.VDW>
-0.553406

>  <SCORE.INTRA.VDW.0>
-0.59057

>  <SCORE.INTRA.norm>
-0.168192

>  <SCORE.RESTR>
0

>  <SCORE.RESTR.CAVITY>
0

>  <SCORE.RESTR.norm>
0

>  <SCORE.SYSTEM>
0

>  <SCORE.SYSTEM.CONST>
0

>  <SCORE.SYSTEM.DIHEDRAL>
0

>  <SCORE.SYSTEM.SOLV>
0

>  <SCORE.SYSTEM.norm>
0

>  <SCORE.heavy>
19

>  <SCORE.norm>
-0.897502

>  <RMSD>
0.832

$$$$
ligand
 OpenBabel11021811483D
libRbt.so/2013.1/901 2013/11/27
 19 21  0  0  0  0  0  0  0  0999 V2000
   -5.9841   -6.6346   13.1210 C   0  0  0  0  0  0  0  0  0  0  0  0
   -6.0469   -7.9895   13.5904 O   0  0  0  0  0  0  0  0  0  0  0  0
   -7.1301   -6.3543   12.1463 C   0  0  1  0  0  0  0  0  0  0  0  0
   -7.1359   -4.9689   11.7517 O   0  0  0  0  0  0  0  0  0  0  0  0
   -6.9843   -7.1798   10.8802 C   0  0  1  0  0  0  0  0  0  0  0  0
   -7.9019   -8.2806   10.8720 O   0  0  0  0  0  0  0  0  0  0  0  0
   -7.2805   -6.2345    9.7362 C   0  0  0  0  0  0  0  0  0  0  0  0
   -7.2110   -4.8331   10.3250 C   0  0  2  0  0  0  0  0  0  0  0  0
   -4.9164   -0.1440    9.7418 N   0  0  0  0  0  0  0  0  0  0  0  0
   -6.1251   -0.4608   10.2793 C   0  0  1  0  0  0  0  0  0  0  0  0
   -6.9137    0.5313   10.7566 N   0  0  0  0  0  0  0  0  0  0  0  0
   -6.5610   -1.7483   10.3443 N   0  0  0  0  0  0  0  0  0  0  0  0
   -5.8092   -2.7818    9.8773 C   0  0  2  0  0  0  0  0  0  0  0  0
   -4.5711   -2.5195    9.3191 C   0  0  1  0  0  0  0  0  0  0  0  0
   -4.1064   -1.1104    9.2560 C   0  0  0  0  0  0  0  0  0  0  0  0
   -2.9915   -0.8231    8.7655 O   0  0  0  0  0  0  0  0  0  0  0  0
   -4.0328   -3.6932    8.9447 N   0  0  0  0  0  0  0  0  0  0  0  0
   -4.9210   -4.6655    9.2578 C   0  0  0  0  0  0  0  0  0  0  0  0
   -6.0054   -4.1077    9.8263 N   0  0  1  0  0  0  0  0  0  0  0  0
  1  2  1  0  0  0  0
  3  1  1  1  0  0  0
  3  4  1  0  0  0  0
  3  5  1  0  0  0  0
  5  6  1  1  0  0  0
  5  7  1  0  0  0  0
  7  8  1  0  0  0  0
  8  4  1  1  0  0  0
  8 19  1  0  0  0  0
  9 15  1  0  0  0  0
  9 10  1  0  0  0  0
 10 11  1  6  0  0  0
 10 12  1  0  0  0  0
 13 12  1  6  0  0  0
 13 14  1  0  0  0  0
 13 19  1  0  0  0  0
 14 15  1  1  0  0  0
 14 17  1  0  0  0  0
 15 16  2  0  0  0  0
 17 18  1  0  0  0  0
 19 18  1  1  0  0  0
M  END
>  <CHROM.1>
175.50756621,-78.77132713,-5.94867559,-3.97986222,10.51235417,1.95557088
-0.70462183,3.05846709

>  <Name>
ligand

>  <RI>
0

>  <Rbt.Current_Directory>
/home/itssahil/PROJECTS/Mol_Feturizer/New_Systems/rnas/3SKI

>  <Rbt.Executable>
rbdock ($Id: //depot/dev/client3/rdock/2013.1/src/exe/rbdock.cxx#4 $)

>  <Rbt.Library>
libRbt.so (2013.1, Build901 2013/11/27)

>  <Rbt.Parameter_File>
/export/apps/rDock/src/rDock_2013.1_src/data/scripts/dock_solv.prm

>  <Rbt.Receptor>
prm/pocket_docking_5.prm

>  <SCORE>
-17.259

>  <SCORE.INTER>
-14.9165

>  <SCORE.INTER.CONST>
1

>  <SCORE.INTER.POLAR>
0

>  <SCORE.INTER.ROT>
2

>  <SCORE.INTER.SOLV>
18.3571

>  <SCORE.INTER.VDW>
-20.9967

>  <SCORE.INTER.norm>
-0.785079

>  <SCORE.INTRA>
-2.34253

>  <SCORE.INTRA.DIHEDRAL>
-5.01026

>  <SCORE.INTRA.DIHEDRAL.0>
6.26853

>  <SCORE.INTRA.POLAR>
0

>  <SCORE.INTRA.POLAR.0>
0

>  <SCORE.INTRA.REPUL>
0

>  <SCORE.INTRA.REPUL.0>
0

>  <SCORE.INTRA.SOLV>
-0.0155777

>  <SCORE.INTRA.SOLV.lig_0>
-38.4926

>  <SCORE.INTRA.VDW>
0.170386

>  <SCORE.INTRA.VDW.0>
-0.59057

>  <SCORE.INTRA.norm>
-0.123291

>  <SCORE.RESTR>
0

>  <SCORE.RESTR.CAVITY>
0

>  <SCORE.RESTR.norm>
0

>  <SCORE.SYSTEM>
0

>  <SCORE.SYSTEM.CONST>
0

>  <SCORE.SYSTEM.DIHEDRAL>
0

>  <SCORE.SYSTEM.SOLV>
0

>  <SCORE.SYSTEM.norm>
0

>  <SCORE.heavy>
19

>  <SCORE.norm>
-0.908371

>  <RMSD>
0.837

$$$$
ligand
 OpenBabel11021811483D
libRbt.so/2013.1/901 2013/11/27
 19 21  0  0  0  0  0  0  0  0999 V2000
   -5.8746   -6.7278   13.1223 C   0  0  0  0  0  0  0  0  0  0  0  0
   -6.0028   -8.0906   13.5543 O   0  0  0  0  0  0  0  0  0  0  0  0
   -7.0693   -6.3295   12.2529 C   0  0  1  0  0  0  0  0  0  0  0  0
   -7.0218   -4.9255   11.9342 O   0  0  0  0  0  0  0  0  0  0  0  0
   -7.0641   -7.0876   10.9372 C   0  0  1  0  0  0  0  0  0  0  0  0
   -8.0431   -8.1340   10.9394 O   0  0  0  0  0  0  0  0  0  0  0  0
   -7.3856   -6.0632    9.8707 C   0  0  0  0  0  0  0  0  0  0  0  0
   -7.1913   -4.7039   10.5264 C   0  0  2  0  0  0  0  0  0  0  0  0
   -4.8789   -0.0736    9.6285 N   0  0  0  0  0  0  0  0  0  0  0  0
   -6.0874   -0.3489   10.1888 C   0  0  1  0  0  0  0  0  0  0  0  0
   -6.8706    0.6760   10.6014 N   0  0  0  0  0  0  0  0  0  0  0  0
   -6.5285   -1.6275   10.3399 N   0  0  0  0  0  0  0  0  0  0  0  0
   -5.7822   -2.6928    9.9405 C   0  0  2  0  0  0  0  0  0  0  0  0
   -4.5446   -2.4734    9.3631 C   0  0  1  0  0  0  0  0  0  0  0  0
   -4.0742   -1.0735    9.2057 C   0  0  0  0  0  0  0  0  0  0  0  0
   -2.9595   -0.8242    8.6946 O   0  0  0  0  0  0  0  0  0  0  0  0
   -4.0122   -3.6716    9.0659 N   0  0  0  0  0  0  0  0  0  0  0  0
   -4.9035   -4.6172    9.4448 C   0  0  0  0  0  0  0  0  0  0  0  0
   -5.9841   -4.0183    9.9778 N   0  0  1  0  0  0  0  0  0  0  0  0
  1  2  1  0  0  0  0
  3  1  1  1  0  0  0
  3  4  1  0  0  0  0
  3  5  1  0  0  0  0
  5  6  1  1  0  0  0
  5  7  1  0  0  0  0
  7  8  1  0  0  0  0
  8  4  1  1  0  0  0
  8 19  1  0  0  0  0
  9 15  1  0  0  0  0
  9 10  1  0  0  0  0
 10 11  1  6  0  0  0
 10 12  1  0  0  0  0
 13 12  1  6  0  0  0
 13 14  1  0  0  0  0
 13 19  1  0  0  0  0
 14 15  1  1  0  0  0
 14 17  1  0  0  0  0
 15 16  2  0  0  0  0
 17 18  1  0  0  0  0
 19 18  1  1  0  0  0
M  END
>  <CHROM.1>
173.83472667,-87.39750413,-5.93060334,-3.91877383,10.55363283,-1.91096245
0.55655237,-0.17132247

>  <Name>
ligand

>  <RI>
0

>  <Rbt.Current_Directory>
/home/itssahil/PROJECTS/Mol_Feturizer/New_Systems/rnas/3SKI

>  <Rbt.Executable>
rbdock ($Id: //depot/dev/client3/rdock/2013.1/src/exe/rbdock.cxx#4 $)

>  <Rbt.Library>
libRbt.so (2013.1, Build901 2013/11/27)

>  <Rbt.Parameter_File>
/export/apps/rDock/src/rDock_2013.1_src/data/scripts/dock_solv.prm

>  <Rbt.Receptor>
prm/pocket_docking_4.prm

>  <SCORE>
-17.4386

>  <SCORE.INTER>
-14.9843

>  <SCORE.INTER.CONST>
1

>  <SCORE.INTER.POLAR>
0

>  <SCORE.INTER.ROT>
2

>  <SCORE.INTER.SOLV>
18.414

>  <SCORE.INTER.VDW>
-21.0609

>  <SCORE.INTER.norm>
-0.788646

>  <SCORE.INTRA>
-2.4543

>  <SCORE.INTRA.DIHEDRAL>
-4.95008

>  <SCORE.INTRA.DIHEDRAL.0>
6.26853

>  <SCORE.INTRA.POLAR>
0

>  <SCORE.INTRA.POLAR.0>
0

>  <SCORE.INTRA.REPUL>
0

>  <SCORE.INTRA.REPUL.0>
0

>  <SCORE.INTRA.SOLV>
-0.0302888

>  <SCORE.INTRA.SOLV.lig_0>
-38.4926

>  <SCORE.INTRA.VDW>
0.0358833

>  <SCORE.INTRA.VDW.0>
-0.59057

>  <SCORE.INTRA.norm>
-0.129174

>  <SCORE.RESTR>
0

>  <SCORE.RESTR.CAVITY>
0

>  <SCORE.RESTR.norm>
0

>  <SCORE.SYSTEM>
0

>  <SCORE.SYSTEM.CONST>
0

>  <SCORE.SYSTEM.DIHEDRAL>
0

>  <SCORE.SYSTEM.SOLV>
0

>  <SCORE.SYSTEM.norm>
0

>  <SCORE.heavy>
19

>  <SCORE.norm>
-0.91782

>  <RMSD>
0.845

$$$$
ligand
 OpenBabel11021811483D
libRbt.so/2013.1/901 2013/11/27
 19 21  0  0  0  0  0  0  0  0999 V2000
   -5.9379   -6.6056   13.1414 C   0  0  0  0  0  0  0  0  0  0  0  0
   -6.0071   -7.9658   13.5945 O   0  0  0  0  0  0  0  0  0  0  0  0
   -7.0911   -6.3040   12.1817 C   0  0  1  0  0  0  0  0  0  0  0  0
   -7.0850   -4.9154   11.7984 O   0  0  0  0  0  0  0  0  0  0  0  0
   -6.9689   -7.1207   10.9074 C   0  0  1  0  0  0  0  0  0  0  0  0
   -7.8994   -8.2105   10.9004 O   0  0  0  0  0  0  0  0  0  0  0  0
   -7.2665   -6.1626    9.7745 C   0  0  0  0  0  0  0  0  0  0  0  0
   -7.1740   -4.7670   10.3737 C   0  0  2  0  0  0  0  0  0  0  0  0
   -4.8757   -0.0903    9.7107 N   0  0  0  0  0  0  0  0  0  0  0  0
   -6.0875   -0.3964   10.2474 C   0  0  1  0  0  0  0  0  0  0  0  0
   -6.8787    0.6050   10.7004 N   0  0  0  0  0  0  0  0  0  0  0  0
   -6.5239   -1.6824   10.3354 N   0  0  0  0  0  0  0  0  0  0  0  0
   -5.7695   -2.7250    9.8934 C   0  0  2  0  0  0  0  0  0  0  0  0
   -4.5282   -2.4738    9.3373 C   0  0  1  0  0  0  0  0  0  0  0  0
   -4.0630   -1.0662    9.2489 C   0  0  0  0  0  0  0  0  0  0  0  0
   -2.9452   -0.7887    8.7592 O   0  0  0  0  0  0  0  0  0  0  0  0
   -3.9879   -3.6547    8.9894 N   0  0  0  0  0  0  0  0  0  0  0  0
   -4.8779   -4.6206    9.3166 C   0  0  0  0  0  0  0  0  0  0  0  0
   -5.9655   -4.0516    9.8676 N   0  0  1  0  0  0  0  0  0  0  0  0
  1  2  1  0  0  0  0
  3  1  1  1  0  0  0
  3  4  1  0  0  0  0
  3  5  1  0  0  0  0
  5  6  1  1  0  0  0
  5  7  1  0  0  0  0
  7  8  1  0  0  0  0
  8  4  1  1  0  0  0
  8 19  1  0  0  0  0
  9 15  1  0  0  0  0
  9 10  1  0  0  0  0
 10 11  1  6  0  0  0
 10 12  1  0  0  0  0
 13 12  1  6  0  0  0
 13 14  1  0  0  0  0
 13 19  1  0  0  0  0
 14 15  1  1  0  0  0
 14 17  1  0  0  0  0
 15 16  2  0  0  0  0
 17 18  1  0  0  0  0
 19 18  1  1  0  0  0
M  END
>  <CHROM.1>
175.83989142,-80.75823840,-5.91225136,-3.92736141,10.52745778,1.94124438
-0.66127326,3.03010419

>  <Name>
ligand

>  <RI>
0

>  <Rbt.Current_Directory>
/home/itssahil/PROJECTS/Mol_Feturizer/New_Systems/rnas/3SKI

>  <Rbt.Executable>
rbdock ($Id: //depot/dev/client3/rdock/2013.1/src/exe/rbdock.cxx#4 $)

>  <Rbt.Library>
libRbt.so (2013.1, Build901 2013/11/27)

>  <Rbt.Parameter_File>
/export/apps/rDock/src/rDock_2013.1_src/data/scripts/dock_solv.prm

>  <Rbt.Receptor>
prm/pocket_docking_4.prm

>  <SCORE>
-17.3792

>  <SCORE.INTER>
-15.0039

>  <SCORE.INTER.CONST>
1

>  <SCORE.INTER.POLAR>
0

>  <SCORE.INTER.ROT>
2

>  <SCORE.INTER.SOLV>
18.3876

>  <SCORE.INTER.VDW>
-21.0651

>  <SCORE.INTER.norm>
-0.789677

>  <SCORE.INTRA>
-2.37535

>  <SCORE.INTRA.DIHEDRAL>
-5.02142

>  <SCORE.INTRA.DIHEDRAL.0>
6.26853

>  <SCORE.INTRA.POLAR>
0

>  <SCORE.INTRA.POLAR.0>
0

>  <SCORE.INTRA.REPUL>
0

>  <SCORE.INTRA.REPUL.0>
0

>  <SCORE.INTRA.SOLV>
-0.0153242

>  <SCORE.INTRA.SOLV.lig_0>
-38.4926

>  <SCORE.INTRA.VDW>
0.143025

>  <SCORE.INTRA.VDW.0>
-0.59057

>  <SCORE.INTRA.norm>
-0.125018

>  <SCORE.RESTR>
0

>  <SCORE.RESTR.CAVITY>
0

>  <SCORE.RESTR.norm>
0

>  <SCORE.SYSTEM>
0

>  <SCORE.SYSTEM.CONST>
0

>  <SCORE.SYSTEM.DIHEDRAL>
0

>  <SCORE.SYSTEM.SOLV>
0

>  <SCORE.SYSTEM.norm>
0

>  <SCORE.heavy>
19

>  <SCORE.norm>
-0.914695

>  <RMSD>
0.845

$$$$
ligand
 OpenBabel11021811483D
libRbt.so/2013.1/901 2013/11/27
 19 21  0  0  0  0  0  0  0  0999 V2000
   -6.4344   -7.1387   12.7954 C   0  0  0  0  0  0  0  0  0  0  0  0
   -6.5559   -8.5092   13.2043 O   0  0  0  0  0  0  0  0  0  0  0  0
   -7.4636   -6.8127   11.7108 C   0  0  1  0  0  0  0  0  0  0  0  0
   -7.4243   -5.4123   11.3756 O   0  0  0  0  0  0  0  0  0  0  0  0
   -7.1772   -7.5863   10.4359 C   0  0  1  0  0  0  0  0  0  0  0  0
   -8.0887   -8.6809   10.2794 O   0  0  0  0  0  0  0  0  0  0  0  0
   -7.3426   -6.5933    9.3060 C   0  0  0  0  0  0  0  0  0  0  0  0
   -7.3387   -5.2176    9.9564 C   0  0  2  0  0  0  0  0  0  0  0  0
   -5.0088   -0.5131    9.7749 N   0  0  0  0  0  0  0  0  0  0  0  0
   -6.2726   -0.8446   10.1533 C   0  0  1  0  0  0  0  0  0  0  0  0
   -7.1173    0.1343   10.5560 N   0  0  0  0  0  0  0  0  0  0  0  0
   -6.7081   -2.1338   10.1323 N   0  0  0  0  0  0  0  0  0  0  0  0
   -5.9010   -3.1543    9.7342 C   0  0  2  0  0  0  0  0  0  0  0  0
   -4.6053   -2.8768    9.3375 C   0  0  1  0  0  0  0  0  0  0  0  0
   -4.1420   -1.4662    9.3669 C   0  0  0  0  0  0  0  0  0  0  0  0
   -2.9769   -1.1655    9.0230 O   0  0  0  0  0  0  0  0  0  0  0  0
   -4.0209   -4.0401    9.0019 N   0  0  0  0  0  0  0  0  0  0  0  0
   -4.9367   -5.0209    9.1800 C   0  0  0  0  0  0  0  0  0  0  0  0
   -6.0843   -4.4787    9.6263 N   0  0  1  0  0  0  0  0  0  0  0  0
  1  2  1  0  0  0  0
  3  1  1  1  0  0  0
  3  4  1  0  0  0  0
  3  5  1  0  0  0  0
  5  6  1  6  0  0  0
  5  7  1  0  0  0  0
  7  8  1  0  0  0  0
  8  4  1  1  0  0  0
  8 19  1  0  0  0  0
  9 15  1  0  0  0  0
  9 10  1  0  0  0  0
 10 11  1  6  0  0  0
 10 12  1  0  0  0  0
 13 12  1  6  0  0  0
 13 14  1  0  0  0  0
 13 19  1  0  0  0  0
 14 15  1  1  0  0  0
 14 17  1  0  0  0  0
 15 16  2  0  0  0  0
 17 18  1  0  0  0  0
 19 18  1  1  0  0  0
M  END
>  <CHROM.1>
175.14416091,-79.87276257,-6.11050407,-4.37713290,10.30430332,1.95599074
-0.56468888,3.08447138

>  <Name>
ligand

>  <RI>
0

>  <Rbt.Current_Directory>
/home/itssahil/PROJECTS/Mol_Feturizer/New_Systems/rnas/3SKI

>  <Rbt.Executable>
rbdock ($Id: //depot/dev/client3/rdock/2013.1/src/exe/rbdock.cxx#4 $)

>  <Rbt.Library>
libRbt.so (2013.1, Build901 2013/11/27)

>  <Rbt.Parameter_File>
/export/apps/rDock/src/rDock_2013.1_src/data/scripts/dock_solv.prm

>  <Rbt.Receptor>
prm/pocket_docking_5.prm

>  <SCORE>
-17.3676

>  <SCORE.INTER>
-15.0109

>  <SCORE.INTER.CONST>
1

>  <SCORE.INTER.POLAR>
0

>  <SCORE.INTER.ROT>
2

>  <SCORE.INTER.SOLV>
17.6614

>  <SCORE.INTER.VDW>
-20.8277

>  <SCORE.INTER.norm>
-0.790048

>  <SCORE.INTRA>
-2.35665

>  <SCORE.INTRA.DIHEDRAL>
-4.99879

>  <SCORE.INTRA.DIHEDRAL.0>
6.26853

>  <SCORE.INTRA.POLAR>
0

>  <SCORE.INTRA.POLAR.0>
0

>  <SCORE.INTRA.REPUL>
0

>  <SCORE.INTRA.REPUL.0>
0

>  <SCORE.INTRA.SOLV>
-0.0182053

>  <SCORE.INTRA.SOLV.lig_0>
-38.4926

>  <SCORE.INTRA.VDW>
0.151844

>  <SCORE.INTRA.VDW.0>
-0.59057

>  <SCORE.INTRA.norm>
-0.124034

>  <SCORE.RESTR>
0

>  <SCORE.RESTR.CAVITY>
0

>  <SCORE.RESTR.norm>
0

>  <SCORE.SYSTEM>
0

>  <SCORE.SYSTEM.CONST>
0

>  <SCORE.SYSTEM.DIHEDRAL>
0

>  <SCORE.SYSTEM.SOLV>
0

>  <SCORE.SYSTEM.norm>
0

>  <SCORE.heavy>
19

>  <SCORE.norm>
-0.914083

>  <RMSD>
0.848

$$$$
ligand
 OpenBabel11021811483D
libRbt.so/2013.1/901 2013/11/27
 19 21  0  0  0  0  0  0  0  0999 V2000
   -6.9492   -7.9927   10.4641 C   0  0  0  0  0  0  0  0  0  0  0  0
   -6.4329   -8.3980   11.7405 O   0  0  0  0  0  0  0  0  0  0  0  0
   -7.9403   -6.8388   10.6318 C   0  0  1  0  0  0  0  0  0  0  0  0
   -7.2895   -5.6871   11.2021 O   0  0  0  0  0  0  0  0  0  0  0  0
   -8.5129   -6.4116    9.2918 C   0  0  1  0  0  0  0  0  0  0  0  0
   -9.8540   -6.8887    9.1268 O   0  0  0  0  0  0  0  0  0  0  0  0
   -8.4854   -4.8986    9.2961 C   0  0  0  0  0  0  0  0  0  0  0  0
   -7.5662   -4.5017   10.4420 C   0  0  2  0  0  0  0  0  0  0  0  0
   -4.7852   -0.1099    9.6866 N   0  0  0  0  0  0  0  0  0  0  0  0
   -6.0223   -0.2745   10.2275 C   0  0  1  0  0  0  0  0  0  0  0  0
   -6.7026    0.8142   10.6586 N   0  0  0  0  0  0  0  0  0  0  0  0
   -6.5926   -1.5049   10.3413 N   0  0  0  0  0  0  0  0  0  0  0  0
   -5.9533   -2.6305    9.9220 C   0  0  2  0  0  0  0  0  0  0  0  0
   -4.6927   -2.5239    9.3628 C   0  0  1  0  0  0  0  0  0  0  0  0
   -4.0808   -1.1757    9.2462 C   0  0  0  0  0  0  0  0  0  0  0  0
   -2.9403   -1.0285    8.7527 O   0  0  0  0  0  0  0  0  0  0  0  0
   -4.2809   -3.7624    9.0402 N   0  0  0  0  0  0  0  0  0  0  0  0
   -5.2681   -4.6215    9.3857 C   0  0  0  0  0  0  0  0  0  0  0  0
   -6.2889   -3.9291    9.9232 N   0  0  1  0  0  0  0  0  0  0  0  0
  1  2  1  0  0  0  0
  3  1  1  6  0  0  0
  3  4  1  0  0  0  0
  3  5  1  0  0  0  0
  5  6  1  1  0  0  0
  5  7  1  0  0  0  0
  7  8  1  0  0  0  0
  8  4  1  6  0  0  0
  8 19  1  0  0  0  0
  9 15  1  0  0  0  0
  9 10  1  0  0  0  0
 10 11  1  6  0  0  0
 10 12  1  0  0  0  0
 13 12  1  6  0  0  0
 13 14  1  0  0  0  0
 13 19  1  0  0  0  0
 14 15  1  1  0  0  0
 14 17  1  0  0  0  0
 15 16  2  0  0  0  0
 17 18  1  0  0  0  0
 19 18  1  1  0  0  0
M  END
>  <CHROM.1>
61.96880888,-136.65988268,-6.38310809,-3.89648043,9.95160311,-2.01313391
0.08810929,-0.06332864

>  <Name>
ligand

>  <RI>
0

>  <Rbt.Current_Directory>
/home/itssahil/PROJECTS/Mol_Feturizer/New_Systems/rnas/3SKI

>  <Rbt.Executable>
rbdock ($Id: //depot/dev/client3/rdock/2013.1/src/exe/rbdock.cxx#4 $)

>  <Rbt.Library>
libRbt.so (2013.1, Build901 2013/11/27)

>  <Rbt.Parameter_File>
/export/apps/rDock/src/rDock_2013.1_src/data/scripts/dock_solv.prm

>  <Rbt.Receptor>
prm/pocket_docking_2.prm

>  <SCORE>
-17.1241

>  <SCORE.INTER>
-13.918

>  <SCORE.INTER.CONST>
1

>  <SCORE.INTER.POLAR>
0

>  <SCORE.INTER.ROT>
2

>  <SCORE.INTER.SOLV>
16.9586

>  <SCORE.INTER.VDW>
-19.8648

>  <SCORE.INTER.norm>
-0.732524

>  <SCORE.INTRA>
-3.20611

>  <SCORE.INTRA.DIHEDRAL>
-5.03645

>  <SCORE.INTRA.DIHEDRAL.0>
6.26853

>  <SCORE.INTRA.POLAR>
0

>  <SCORE.INTRA.POLAR.0>
0

>  <SCORE.INTRA.REPUL>
0

>  <SCORE.INTRA.REPUL.0>
0

>  <SCORE.INTRA.SOLV>
-0.239485

>  <SCORE.INTRA.SOLV.lig_0>
-38.4926

>  <SCORE.INTRA.VDW>
-0.568139

>  <SCORE.INTRA.VDW.0>
-0.59057

>  <SCORE.INTRA.norm>
-0.168742

>  <SCORE.RESTR>
0

>  <SCORE.RESTR.CAVITY>
0

>  <SCORE.RESTR.norm>
0

>  <SCORE.SYSTEM>
0

>  <SCORE.SYSTEM.CONST>
0

>  <SCORE.SYSTEM.DIHEDRAL>
0

>  <SCORE.SYSTEM.SOLV>
0

>  <SCORE.SYSTEM.norm>
0

>  <SCORE.heavy>
19

>  <SCORE.norm>
-0.901267

>  <RMSD>
0.853

$$$$
ligand
 OpenBabel11021811483D
libRbt.so/2013.1/901 2013/11/27
 19 21  0  0  0  0  0  0  0  0999 V2000
   -6.3405   -7.4093   12.6408 C   0  0  0  0  0  0  0  0  0  0  0  0
   -6.4678   -8.8141   12.9067 O   0  0  0  0  0  0  0  0  0  0  0  0
   -7.4076   -6.9570   11.6416 C   0  0  1  0  0  0  0  0  0  0  0  0
   -7.3392   -5.5333   11.4328 O   0  0  0  0  0  0  0  0  0  0  0  0
   -7.2049   -7.6179   10.2895 C   0  0  1  0  0  0  0  0  0  0  0  0
   -8.1570   -8.6681   10.0794 O   0  0  0  0  0  0  0  0  0  0  0  0
   -7.3904   -6.5213    9.2634 C   0  0  0  0  0  0  0  0  0  0  0  0
   -7.3128   -5.2117   10.0344 C   0  0  2  0  0  0  0  0  0  0  0  0
   -4.9810   -0.5115    9.7815 N   0  0  0  0  0  0  0  0  0  0  0  0
   -6.2523   -0.8342   10.1419 C   0  0  1  0  0  0  0  0  0  0  0  0
   -7.1054    0.1539   10.5019 N   0  0  0  0  0  0  0  0  0  0  0  0
   -6.6869   -2.1239   10.1447 N   0  0  0  0  0  0  0  0  0  0  0  0
   -5.8714   -3.1536    9.7896 C   0  0  2  0  0  0  0  0  0  0  0  0
   -4.5678   -2.8853    9.4129 C   0  0  1  0  0  0  0  0  0  0  0  0
   -4.1056   -1.4739    9.4160 C   0  0  0  0  0  0  0  0  0  0  0  0
   -2.9337   -1.1812    9.0888 O   0  0  0  0  0  0  0  0  0  0  0  0
   -3.9762   -4.0562    9.1193 N   0  0  0  0  0  0  0  0  0  0  0  0
   -4.8952   -5.0329    9.3033 C   0  0  0  0  0  0  0  0  0  0  0  0
   -6.0520   -4.4804    9.7117 N   0  0  1  0  0  0  0  0  0  0  0  0
  1  2  1  0  0  0  0
  3  1  1  1  0  0  0
  3  4  1  0  0  0  0
  3  5  1  0  0  0  0
  5  6  1  6  0  0  0
  5  7  1  0  0  0  0
  7  8  1  0  0  0  0
  8  4  1  1  0  0  0
  8 19  1  0  0  0  0
  9 15  1  0  0  0  0
  9 10  1  0  0  0  0
 10 11  1  6  0  0  0
 10 12  1  0  0  0  0
 13 12  1  6  0  0  0
 13 14  1  0  0  0  0
 13 19  1  0  0  0  0
 14 15  1  1  0  0  0
 14 17  1  0  0  0  0
 15 16  2  0  0  0  0
 17 18  1  0  0  0  0
 19 18  1  1  0  0  0
M  END
>  <CHROM.1>
176.44087433,-87.80972685,-6.08123187,-4.42261095,10.28632098,-1.91342558
0.39495958,-0.10494289

>  <Name>
ligand

>  <RI>
0

>  <Rbt.Current_Directory>
/home/itssahil/PROJECTS/Mol_Feturizer/New_Systems/rnas/3SKI

>  <Rbt.Executable>
rbdock ($Id: //depot/dev/client3/rdock/2013.1/src/exe/rbdock.cxx#4 $)

>  <Rbt.Library>
libRbt.so (2013.1, Build901 2013/11/27)

>  <Rbt.Parameter_File>
/export/apps/rDock/src/rDock_2013.1_src/data/scripts/dock_solv.prm

>  <Rbt.Receptor>
prm/pocket_docking_6.prm

>  <SCORE>
-17.2726

>  <SCORE.INTER>
-14.7894

>  <SCORE.INTER.CONST>
1

>  <SCORE.INTER.POLAR>
0

>  <SCORE.INTER.ROT>
2

>  <SCORE.INTER.SOLV>
17.4421

>  <SCORE.INTER.VDW>
-20.607

>  <SCORE.INTER.norm>
-0.778391

>  <SCORE.INTRA>
-2.48322

>  <SCORE.INTRA.DIHEDRAL>
-5.03978

>  <SCORE.INTRA.DIHEDRAL.0>
6.26853

>  <SCORE.INTRA.POLAR>
0

>  <SCORE.INTRA.POLAR.0>
0

>  <SCORE.INTRA.REPUL>
0

>  <SCORE.INTRA.REPUL.0>
0

>  <SCORE.INTRA.SOLV>
-0.0173876

>  <SCORE.INTRA.SOLV.lig_0>
-38.4926

>  <SCORE.INTRA.VDW>
0.0453678

>  <SCORE.INTRA.VDW.0>
-0.59057

>  <SCORE.INTRA.norm>
-0.130696

>  <SCORE.RESTR>
0

>  <SCORE.RESTR.CAVITY>
0

>  <SCORE.RESTR.norm>
0

>  <SCORE.SYSTEM>
0

>  <SCORE.SYSTEM.CONST>
0

>  <SCORE.SYSTEM.DIHEDRAL>
0

>  <SCORE.SYSTEM.SOLV>
0

>  <SCORE.SYSTEM.norm>
0

>  <SCORE.heavy>
19

>  <SCORE.norm>
-0.909086

>  <RMSD>
0.858

$$$$
ligand
 OpenBabel11021811483D
libRbt.so/2013.1/901 2013/11/27
 19 21  0  0  0  0  0  0  0  0999 V2000
   -5.8770   -6.6543   13.1429 C   0  0  0  0  0  0  0  0  0  0  0  0
   -5.9622   -8.0115   13.6020 O   0  0  0  0  0  0  0  0  0  0  0  0
   -7.0639   -6.3229   12.2355 C   0  0  1  0  0  0  0  0  0  0  0  0
   -7.0510   -4.9301   11.8680 O   0  0  0  0  0  0  0  0  0  0  0  0
   -7.0080   -7.1261   10.9480 C   0  0  1  0  0  0  0  0  0  0  0  0
   -7.9557   -8.2009   10.9674 O   0  0  0  0  0  0  0  0  0  0  0  0
   -7.3365   -6.1499    9.8394 C   0  0  0  0  0  0  0  0  0  0  0  0
   -7.1965   -4.7632   10.4500 C   0  0  2  0  0  0  0  0  0  0  0  0
   -4.8590   -0.1144    9.7301 N   0  0  0  0  0  0  0  0  0  0  0  0
   -6.0533   -0.4074   10.3114 C   0  0  1  0  0  0  0  0  0  0  0  0
   -6.8120    0.6015   10.8017 N   0  0  0  0  0  0  0  0  0  0  0  0
   -6.5043   -1.6878   10.4076 N   0  0  0  0  0  0  0  0  0  0  0  0
   -5.7826   -2.7376    9.9294 C   0  0  2  0  0  0  0  0  0  0  0  0
   -4.5604   -2.4997    9.3271 C   0  0  1  0  0  0  0  0  0  0  0  0
   -4.0789   -1.0981    9.2303 C   0  0  0  0  0  0  0  0  0  0  0  0
   -2.9771   -0.8327    8.6994 O   0  0  0  0  0  0  0  0  0  0  0  0
   -4.0509   -3.6854    8.9505 N   0  0  0  0  0  0  0  0  0  0  0  0
   -4.9412   -4.6412    9.3054 C   0  0  0  0  0  0  0  0  0  0  0  0
   -5.9984   -4.0611    9.9022 N   0  0  1  0  0  0  0  0  0  0  0  0
  1  2  1  0  0  0  0
  3  1  1  1  0  0  0
  3  4  1  0  0  0  0
  3  5  1  0  0  0  0
  5  6  1  1  0  0  0
  5  7  1  0  0  0  0
  7  8  1  0  0  0  0
  8  4  1  1  0  0  0
  8 19  1  0  0  0  0
  9 15  1  0  0  0  0
  9 10  1  0  0  0  0
 10 11  1  6  0  0  0
 10 12  1  0  0  0  0
 13 12  1  6  0  0  0
 13 14  1  0  0  0  0
 13 19  1  0  0  0  0
 14 15  1  1  0  0  0
 14 17  1  0  0  0  0
 15 16  2  0  0  0  0
 17 18  1  0  0  0  0
 19 18  1  1  0  0  0
M  END
>  <CHROM.1>
174.82640739,-81.08075025,-5.91878812,-3.94473596,10.55755873,1.95397862
-0.70003572,3.04598468

>  <Name>
ligand

>  <RI>
0

>  <Rbt.Current_Directory>
/home/itssahil/PROJECTS/Mol_Feturizer/New_Systems/rnas/3SKI

>  <Rbt.Executable>
rbdock ($Id: //depot/dev/client3/rdock/2013.1/src/exe/rbdock.cxx#4 $)

>  <Rbt.Library>
libRbt.so (2013.1, Build901 2013/11/27)

>  <Rbt.Parameter_File>
/export/apps/rDock/src/rDock_2013.1_src/data/scripts/dock_solv.prm

>  <Rbt.Receptor>
prm/pocket_docking_3.prm

>  <SCORE>
-17.3763

>  <SCORE.INTER>
-15.0033

>  <SCORE.INTER.CONST>
1

>  <SCORE.INTER.POLAR>
0

>  <SCORE.INTER.ROT>
2

>  <SCORE.INTER.SOLV>
18.4026

>  <SCORE.INTER.VDW>
-21.0697

>  <SCORE.INTER.norm>
-0.789648

>  <SCORE.INTRA>
-2.37295

>  <SCORE.INTRA.DIHEDRAL>
-4.98806

>  <SCORE.INTRA.DIHEDRAL.0>
6.26853

>  <SCORE.INTRA.POLAR>
0

>  <SCORE.INTRA.POLAR.0>
0

>  <SCORE.INTRA.REPUL>
0

>  <SCORE.INTRA.REPUL.0>
0

>  <SCORE.INTRA.SOLV>
-0.0206837

>  <SCORE.INTRA.SOLV.lig_0>
-38.4926

>  <SCORE.INTRA.VDW>
0.13142

>  <SCORE.INTRA.VDW.0>
-0.59057

>  <SCORE.INTRA.norm>
-0.124892

>  <SCORE.RESTR>
0

>  <SCORE.RESTR.CAVITY>
0

>  <SCORE.RESTR.norm>
0

>  <SCORE.SYSTEM>
0

>  <SCORE.SYSTEM.CONST>
0

>  <SCORE.SYSTEM.DIHEDRAL>
0

>  <SCORE.SYSTEM.SOLV>
0

>  <SCORE.SYSTEM.norm>
0

>  <SCORE.heavy>
19

>  <SCORE.norm>
-0.91454

>  <RMSD>
0.860

$$$$
ligand
 OpenBabel11021811483D
libRbt.so/2013.1/901 2013/11/27
 19 21  0  0  0  0  0  0  0  0999 V2000
   -7.5770   -7.6715   11.2627 C   0  0  0  0  0  0  0  0  0  0  0  0
   -7.2310   -7.7886   12.6508 O   0  0  0  0  0  0  0  0  0  0  0  0
   -8.5626   -6.5196   11.0542 C   0  0  1  0  0  0  0  0  0  0  0  0
   -7.9636   -5.2631   11.4248 O   0  0  0  0  0  0  0  0  0  0  0  0
   -8.9715   -6.4079    9.5961 C   0  0  1  0  0  0  0  0  0  0  0  0
  -10.2922   -6.9237    9.3882 O   0  0  0  0  0  0  0  0  0  0  0  0
   -8.9211   -4.9318    9.2665 C   0  0  0  0  0  0  0  0  0  0  0  0
   -8.1330   -4.2799   10.3932 C   0  0  2  0  0  0  0  0  0  0  0  0
   -4.9075   -0.1730    9.8248 N   0  0  0  0  0  0  0  0  0  0  0  0
   -6.1634   -0.2282   10.3444 C   0  0  1  0  0  0  0  0  0  0  0  0
   -6.7360    0.9096   10.8045 N   0  0  0  0  0  0  0  0  0  0  0  0
   -6.8578   -1.3968   10.4085 N   0  0  0  0  0  0  0  0  0  0  0  0
   -6.3298   -2.5673    9.9583 C   0  0  2  0  0  0  0  0  0  0  0  0
   -5.0562   -2.5718    9.4188 C   0  0  1  0  0  0  0  0  0  0  0  0
   -4.3085   -1.2902    9.3566 C   0  0  0  0  0  0  0  0  0  0  0  0
   -3.1512   -1.2442    8.8826 O   0  0  0  0  0  0  0  0  0  0  0  0
   -4.7677   -3.8345    9.0586 N   0  0  0  0  0  0  0  0  0  0  0  0
   -5.8426   -4.5991    9.3619 C   0  0  0  0  0  0  0  0  0  0  0  0
   -6.7960   -3.8241    9.9104 N   0  0  1  0  0  0  0  0  0  0  0  0
  1  2  1  0  0  0  0
  3  1  1  6  0  0  0
  3  4  1  0  0  0  0
  3  5  1  0  0  0  0
  5  6  1  1  0  0  0
  5  7  1  0  0  0  0
  7  8  1  0  0  0  0
  8  4  1  1  0  0  0
  8 19  1  0  0  0  0
  9 15  1  0  0  0  0
  9 10  1  0  0  0  0
 10 11  1  6  0  0  0
 10 12  1  0  0  0  0
 13 12  1  6  0  0  0
 13 14  1  0  0  0  0
 13 19  1  0  0  0  0
 14 15  1  1  0  0  0
 14 17  1  0  0  0  0
 15 16  2  0  0  0  0
 17 18  1  0  0  0  0
 19 18  1  1  0  0  0
M  END
>  <CHROM.1>
62.77678469,-119.72089193,-6.80554657,-3.79803267,10.15279599,-2.09341098
0.11159188,-0.09787962

>  <Name>
ligand

>  <RI>
0

>  <Rbt.Current_Directory>
/home/itssahil/PROJECTS/Mol_Feturizer/New_Systems/rnas/3SKI

>  <Rbt.Executable>
rbdock ($Id: //depot/dev/client3/rdock/2013.1/src/exe/rbdock.cxx#4 $)

>  <Rbt.Library>
libRbt.so (2013.1, Build901 2013/11/27)

>  <Rbt.Parameter_File>
/export/apps/rDock/src/rDock_2013.1_src/data/scripts/dock_solv.prm

>  <Rbt.Receptor>
prm/pocket_docking_3.prm

>  <SCORE>
-17.0905

>  <SCORE.INTER>
-13.972

>  <SCORE.INTER.CONST>
1

>  <SCORE.INTER.POLAR>
0

>  <SCORE.INTER.ROT>
2

>  <SCORE.INTER.SOLV>
18.5964

>  <SCORE.INTER.VDW>
-20.4468

>  <SCORE.INTER.norm>
-0.735367

>  <SCORE.INTRA>
-3.1185

>  <SCORE.INTRA.DIHEDRAL>
-5.03679

>  <SCORE.INTRA.DIHEDRAL.0>
6.26853

>  <SCORE.INTRA.POLAR>
0

>  <SCORE.INTRA.POLAR.0>
0

>  <SCORE.INTRA.REPUL>
0

>  <SCORE.INTRA.REPUL.0>
0

>  <SCORE.INTRA.SOLV>
-0.242456

>  <SCORE.INTRA.SOLV.lig_0>
-38.4926

>  <SCORE.INTRA.VDW>
-0.478879

>  <SCORE.INTRA.VDW.0>
-0.59057

>  <SCORE.INTRA.norm>
-0.164132

>  <SCORE.RESTR>
0

>  <SCORE.RESTR.CAVITY>
0

>  <SCORE.RESTR.norm>
0

>  <SCORE.SYSTEM>
0

>  <SCORE.SYSTEM.CONST>
0

>  <SCORE.SYSTEM.DIHEDRAL>
0

>  <SCORE.SYSTEM.SOLV>
0

>  <SCORE.SYSTEM.norm>
0

>  <SCORE.heavy>
19

>  <SCORE.norm>
-0.899499

>  <RMSD>
0.862

$$$$
ligand
 OpenBabel11021811483D
libRbt.so/2013.1/901 2013/11/27
 19 21  0  0  0  0  0  0  0  0999 V2000
   -7.0533   -7.9868   10.4714 C   0  0  0  0  0  0  0  0  0  0  0  0
   -6.5674   -8.3759   11.7647 O   0  0  0  0  0  0  0  0  0  0  0  0
   -8.0480   -6.8311   10.6010 C   0  0  1  0  0  0  0  0  0  0  0  0
   -7.4082   -5.6687   11.1617 O   0  0  0  0  0  0  0  0  0  0  0  0
   -8.5976   -6.4287    9.2438 C   0  0  1  0  0  0  0  0  0  0  0  0
   -9.9353   -6.9102    9.0641 O   0  0  0  0  0  0  0  0  0  0  0  0
   -8.5714   -4.9159    9.2213 C   0  0  0  0  0  0  0  0  0  0  0  0
   -7.6726   -4.4974   10.3757 C   0  0  2  0  0  0  0  0  0  0  0  0
   -4.7989   -0.1417    9.7734 N   0  0  0  0  0  0  0  0  0  0  0  0
   -6.0349   -0.3006   10.3184 C   0  0  1  0  0  0  0  0  0  0  0  0
   -6.6868    0.7847   10.7993 N   0  0  0  0  0  0  0  0  0  0  0  0
   -6.6321   -1.5215   10.3875 N   0  0  0  0  0  0  0  0  0  0  0  0
   -6.0219   -2.6431    9.9172 C   0  0  2  0  0  0  0  0  0  0  0  0
   -4.7638   -2.5421    9.3513 C   0  0  1  0  0  0  0  0  0  0  0  0
   -4.1225   -1.2042    9.2839 C   0  0  0  0  0  0  0  0  0  0  0  0
   -2.9830   -1.0626    8.7864 O   0  0  0  0  0  0  0  0  0  0  0  0
   -4.3829   -3.7752    8.9752 N   0  0  0  0  0  0  0  0  0  0  0  0
   -5.3865   -4.6255    9.2946 C   0  0  0  0  0  0  0  0  0  0  0  0
   -6.3869   -3.9329    9.8689 N   0  0  1  0  0  0  0  0  0  0  0  0
  1  2  1  0  0  0  0
  3  1  1  6  0  0  0
  3  4  1  0  0  0  0
  3  5  1  0  0  0  0
  5  6  1  1  0  0  0
  5  7  1  0  0  0  0
  7  8  1  0  0  0  0
  8  4  1  1  0  0  0
  8 19  1  0  0  0  0
  9 15  1  0  0  0  0
  9 10  1  0  0  0  0
 10 11  1  6  0  0  0
 10 12  1  0  0  0  0
 13 12  1  6  0  0  0
 13 14  1  0  0  0  0
 13 19  1  0  0  0  0
 14 15  1  1  0  0  0
 14 17  1  0  0  0  0
 15 16  2  0  0  0  0
 17 18  1  0  0  0  0
 19 18  1  1  0  0  0
M  END
>  <CHROM.1>
62.44931897,-132.74882294,-6.45840326,-3.90744311,9.94722942,-2.02795146
0.09844436,-0.04163375

>  <Name>
ligand

>  <RI>
0

>  <Rbt.Current_Directory>
/home/itssahil/PROJECTS/Mol_Feturizer/New_Systems/rnas/3SKI

>  <Rbt.Executable>
rbdock ($Id: //depot/dev/client3/rdock/2013.1/src/exe/rbdock.cxx#4 $)

>  <Rbt.Library>
libRbt.so (2013.1, Build901 2013/11/27)

>  <Rbt.Parameter_File>
/export/apps/rDock/src/rDock_2013.1_src/data/scripts/dock_solv.prm

>  <Rbt.Receptor>
prm/pocket_docking_2.prm

>  <SCORE>
-16.9906

>  <SCORE.INTER>
-13.7759

>  <SCORE.INTER.CONST>
1

>  <SCORE.INTER.POLAR>
0

>  <SCORE.INTER.ROT>
2

>  <SCORE.INTER.SOLV>
17.0321

>  <SCORE.INTER.VDW>
-19.7947

>  <SCORE.INTER.norm>
-0.725048

>  <SCORE.INTRA>
-3.21471

>  <SCORE.INTRA.DIHEDRAL>
-5.03132

>  <SCORE.INTRA.DIHEDRAL.0>
6.26853

>  <SCORE.INTRA.POLAR>
0

>  <SCORE.INTRA.POLAR.0>
0

>  <SCORE.INTRA.REPUL>
0

>  <SCORE.INTRA.REPUL.0>
0

>  <SCORE.INTRA.SOLV>
-0.241084

>  <SCORE.INTRA.SOLV.lig_0>
-38.4926

>  <SCORE.INTRA.VDW>
-0.57851

>  <SCORE.INTRA.VDW.0>
-0.59057

>  <SCORE.INTRA.norm>
-0.169195

>  <SCORE.RESTR>
0

>  <SCORE.RESTR.CAVITY>
0

>  <SCORE.RESTR.norm>
0

>  <SCORE.SYSTEM>
0

>  <SCORE.SYSTEM.CONST>
0

>  <SCORE.SYSTEM.DIHEDRAL>
0

>  <SCORE.SYSTEM.SOLV>
0

>  <SCORE.SYSTEM.norm>
0

>  <SCORE.heavy>
19

>  <SCORE.norm>
-0.894243

>  <RMSD>
0.874

$$$$
ligand
 OpenBabel11021811483D
libRbt.so/2013.1/901 2013/11/27
 19 21  0  0  0  0  0  0  0  0999 V2000
   -6.4234   -7.0184   12.9041 C   0  0  0  0  0  0  0  0  0  0  0  0
   -6.4883   -8.3846   13.3393 O   0  0  0  0  0  0  0  0  0  0  0  0
   -7.4484   -6.7622   11.7971 C   0  0  1  0  0  0  0  0  0  0  0  0
   -7.4339   -5.3776   11.3998 O   0  0  0  0  0  0  0  0  0  0  0  0
   -7.1343   -7.5859   10.5607 C   0  0  1  0  0  0  0  0  0  0  0  0
   -8.0222   -8.7048   10.4455 O   0  0  0  0  0  0  0  0  0  0  0  0
   -7.3086   -6.6479    9.3860 C   0  0  0  0  0  0  0  0  0  0  0  0
   -7.3385   -5.2448    9.9740 C   0  0  2  0  0  0  0  0  0  0  0  0
   -5.0460   -0.5233    9.7630 N   0  0  0  0  0  0  0  0  0  0  0  0
   -6.2998   -0.8649   10.1647 C   0  0  1  0  0  0  0  0  0  0  0  0
   -7.1434    0.1066   10.5870 N   0  0  0  0  0  0  0  0  0  0  0  0
   -6.7265   -2.1571   10.1479 N   0  0  0  0  0  0  0  0  0  0  0  0
   -5.9200   -3.1706    9.7309 C   0  0  2  0  0  0  0  0  0  0  0  0
   -4.6343   -2.8826    9.3100 C   0  0  1  0  0  0  0  0  0  0  0  0
   -4.1804   -1.4688    9.3352 C   0  0  0  0  0  0  0  0  0  0  0  0
   -3.0244   -1.1588    8.9697 O   0  0  0  0  0  0  0  0  0  0  0  0
   -4.0483   -4.0406    8.9594 N   0  0  0  0  0  0  0  0  0  0  0  0
   -4.9534   -5.0285    9.1519 C   0  0  0  0  0  0  0  0  0  0  0  0
   -6.0960   -4.4959    9.6222 N   0  0  1  0  0  0  0  0  0  0  0  0
  1  2  1  0  0  0  0
  3  1  1  1  0  0  0
  3  4  1  0  0  0  0
  3  5  1  0  0  0  0
  5  6  1  6  0  0  0
  5  7  1  0  0  0  0
  7  8  1  0  0  0  0
  8  4  1  1  0  0  0
  8 19  1  0  0  0  0
  9 15  1  0  0  0  0
  9 10  1  0  0  0  0
 10 11  1  6  0  0  0
 10 12  1  0  0  0  0
 13 12  1  6  0  0  0
 13 14  1  0  0  0  0
 13 19  1  0  0  0  0
 14 15  1  1  0  0  0
 14 17  1  0  0  0  0
 15 16  2  0  0  0  0
 17 18  1  0  0  0  0
 19 18  1  1  0  0  0
M  END
>  <CHROM.1>
177.23479966,-76.58465527,-6.11292025,-4.37036442,10.33822264,1.96557579
-0.63205143,3.09186749

>  <Name>
ligand

>  <RI>
0

>  <Rbt.Current_Directory>
/home/itssahil/PROJECTS/Mol_Feturizer/New_Systems/rnas/3SKI

>  <Rbt.Executable>
rbdock ($Id: //depot/dev/client3/rdock/2013.1/src/exe/rbdock.cxx#4 $)

>  <Rbt.Library>
libRbt.so (2013.1, Build901 2013/11/27)

>  <Rbt.Parameter_File>
/export/apps/rDock/src/rDock_2013.1_src/data/scripts/dock_solv.prm

>  <Rbt.Receptor>
prm/pocket_docking_4.prm

>  <SCORE>
-17.4859

>  <SCORE.INTER>
-15.1502

>  <SCORE.INTER.CONST>
1

>  <SCORE.INTER.POLAR>
0

>  <SCORE.INTER.ROT>
2

>  <SCORE.INTER.SOLV>
17.7685

>  <SCORE.INTER.VDW>
-20.9563

>  <SCORE.INTER.norm>
-0.797378

>  <SCORE.INTRA>
-2.33567

>  <SCORE.INTRA.DIHEDRAL>
-5.05343

>  <SCORE.INTRA.DIHEDRAL.0>
6.26853

>  <SCORE.INTRA.POLAR>
0

>  <SCORE.INTRA.POLAR.0>
0

>  <SCORE.INTRA.REPUL>
0

>  <SCORE.INTRA.REPUL.0>
0

>  <SCORE.INTRA.SOLV>
-0.00533647

>  <SCORE.INTRA.SOLV.lig_0>
-38.4926

>  <SCORE.INTRA.VDW>
0.193712

>  <SCORE.INTRA.VDW.0>
-0.59057

>  <SCORE.INTRA.norm>
-0.12293

>  <SCORE.RESTR>
0

>  <SCORE.RESTR.CAVITY>
0

>  <SCORE.RESTR.norm>
0

>  <SCORE.SYSTEM>
0

>  <SCORE.SYSTEM.CONST>
0

>  <SCORE.SYSTEM.DIHEDRAL>
0

>  <SCORE.SYSTEM.SOLV>
0

>  <SCORE.SYSTEM.norm>
0

>  <SCORE.heavy>
19

>  <SCORE.norm>
-0.920308

>  <RMSD>
0.875

$$$$
ligand
 OpenBabel11021811483D
libRbt.so/2013.1/901 2013/11/27
 19 21  0  0  0  0  0  0  0  0999 V2000
   -6.9478   -7.9727   10.2987 C   0  0  0  0  0  0  0  0  0  0  0  0
   -6.4254   -8.4499   11.5476 O   0  0  0  0  0  0  0  0  0  0  0  0
   -7.9277   -6.8214   10.5356 C   0  0  1  0  0  0  0  0  0  0  0  0
   -7.2591   -5.7007   11.1455 O   0  0  0  0  0  0  0  0  0  0  0  0
   -8.5206   -6.3308    9.2266 C   0  0  1  0  0  0  0  0  0  0  0  0
   -9.8677   -6.7917    9.0641 O   0  0  0  0  0  0  0  0  0  0  0  0
   -8.4826   -4.8197    9.2984 C   0  0  0  0  0  0  0  0  0  0  0  0
   -7.5408   -4.4805   10.4445 C   0  0  2  0  0  0  0  0  0  0  0  0
   -4.7866   -0.0624    9.7460 N   0  0  0  0  0  0  0  0  0  0  0  0
   -6.0205   -0.2422   10.2895 C   0  0  1  0  0  0  0  0  0  0  0  0
   -6.7048    0.8360   10.7402 N   0  0  0  0  0  0  0  0  0  0  0  0
   -6.5837   -1.4773   10.3865 N   0  0  0  0  0  0  0  0  0  0  0  0
   -5.9402   -2.5927    9.9470 C   0  0  2  0  0  0  0  0  0  0  0  0
   -4.6825   -2.4706    9.3843 C   0  0  1  0  0  0  0  0  0  0  0  0
   -4.0784   -1.1175    9.2862 C   0  0  0  0  0  0  0  0  0  0  0  0
   -2.9408   -0.9564    8.7903 O   0  0  0  0  0  0  0  0  0  0  0  0
   -4.2655   -3.7016    9.0407 N   0  0  0  0  0  0  0  0  0  0  0  0
   -5.2466   -4.5714    9.3769 C   0  0  0  0  0  0  0  0  0  0  0  0
   -6.2688   -3.8930    9.9294 N   0  0  1  0  0  0  0  0  0  0  0  0
  1  2  1  0  0  0  0
  3  1  1  6  0  0  0
  3  4  1  0  0  0  0
  3  5  1  0  0  0  0
  5  6  1  1  0  0  0
  5  7  1  0  0  0  0
  7  8  1  0  0  0  0
  8  4  1  6  0  0  0
  8 19  1  0  0  0  0
  9 15  1  0  0  0  0
  9 10  1  0  0  0  0
 10 11  1  6  0  0  0
 10 12  1  0  0  0  0
 13 12  1  6  0  0  0
 13 14  1  0  0  0  0
 13 19  1  0  0  0  0
 14 15  1  1  0  0  0
 14 17  1  0  0  0  0
 15 16  2  0  0  0  0
 17 18  1  0  0  0  0
 19 18  1  1  0  0  0
M  END
>  <CHROM.1>
62.72002136,-138.63561709,-6.37547206,-3.85783115,9.93486062,-2.01156864
0.09337194,-0.03725468

>  <Name>
ligand

>  <RI>
0

>  <Rbt.Current_Directory>
/home/itssahil/PROJECTS/Mol_Feturizer/New_Systems/rnas/3SKI

>  <Rbt.Executable>
rbdock ($Id: //depot/dev/client3/rdock/2013.1/src/exe/rbdock.cxx#4 $)

>  <Rbt.Library>
libRbt.so (2013.1, Build901 2013/11/27)

>  <Rbt.Parameter_File>
/export/apps/rDock/src/rDock_2013.1_src/data/scripts/dock_solv.prm

>  <Rbt.Receptor>
prm/pocket_docking_3.prm

>  <SCORE>
-17.1616

>  <SCORE.INTER>
-13.9386

>  <SCORE.INTER.CONST>
1

>  <SCORE.INTER.POLAR>
0

>  <SCORE.INTER.ROT>
2

>  <SCORE.INTER.SOLV>
17.1205

>  <SCORE.INTER.VDW>
-19.9326

>  <SCORE.INTER.norm>
-0.733612

>  <SCORE.INTRA>
-3.22293

>  <SCORE.INTRA.DIHEDRAL>
-5.02234

>  <SCORE.INTRA.DIHEDRAL.0>
6.26853

>  <SCORE.INTRA.POLAR>
0

>  <SCORE.INTRA.POLAR.0>
0

>  <SCORE.INTRA.REPUL>
0

>  <SCORE.INTRA.REPUL.0>
0

>  <SCORE.INTRA.SOLV>
-0.242437

>  <SCORE.INTRA.SOLV.lig_0>
-38.4926

>  <SCORE.INTRA.VDW>
-0.590541

>  <SCORE.INTRA.VDW.0>
-0.59057

>  <SCORE.INTRA.norm>
-0.169628

>  <SCORE.RESTR>
0

>  <SCORE.RESTR.CAVITY>
0

>  <SCORE.RESTR.norm>
0

>  <SCORE.SYSTEM>
0

>  <SCORE.SYSTEM.CONST>
0

>  <SCORE.SYSTEM.DIHEDRAL>
0

>  <SCORE.SYSTEM.SOLV>
0

>  <SCORE.SYSTEM.norm>
0

>  <SCORE.heavy>
19

>  <SCORE.norm>
-0.90324

>  <RMSD>
0.914

$$$$
ligand
 OpenBabel11021811483D
libRbt.so/2013.1/901 2013/11/27
 19 21  0  0  0  0  0  0  0  0999 V2000
   -6.9377   -7.9553   10.1909 C   0  0  0  0  0  0  0  0  0  0  0  0
   -6.4381   -8.4529   11.4411 O   0  0  0  0  0  0  0  0  0  0  0  0
   -7.9201   -6.8063   10.4286 C   0  0  1  0  0  0  0  0  0  0  0  0
   -7.2579   -5.6913   11.0558 O   0  0  0  0  0  0  0  0  0  0  0  0
   -8.4996   -6.3033    9.1183 C   0  0  1  0  0  0  0  0  0  0  0  0
   -9.8450   -6.7626    8.9377 O   0  0  0  0  0  0  0  0  0  0  0  0
   -8.4624   -4.7929    9.2047 C   0  0  0  0  0  0  0  0  0  0  0  0
   -7.5324   -4.4646   10.3635 C   0  0  2  0  0  0  0  0  0  0  0  0
   -4.7697   -0.0408    9.7387 N   0  0  0  0  0  0  0  0  0  0  0  0
   -6.0089   -0.2257   10.2683 C   0  0  1  0  0  0  0  0  0  0  0  0
   -6.6970    0.8480   10.7239 N   0  0  0  0  0  0  0  0  0  0  0  0
   -6.5735   -1.4614   10.3467 N   0  0  0  0  0  0  0  0  0  0  0  0
   -5.9262   -2.5725    9.9016 C   0  0  2  0  0  0  0  0  0  0  0  0
   -4.6632   -2.4451    9.3524 C   0  0  1  0  0  0  0  0  0  0  0  0
   -4.0576   -1.0913    9.2745 C   0  0  0  0  0  0  0  0  0  0  0  0
   -2.9151   -0.9255    8.7914 O   0  0  0  0  0  0  0  0  0  0  0  0
   -4.2433   -3.6725    8.9998 N   0  0  0  0  0  0  0  0  0  0  0  0
   -5.2281   -4.5453    9.3172 C   0  0  0  0  0  0  0  0  0  0  0  0
   -6.2553   -3.8723    9.8670 N   0  0  1  0  0  0  0  0  0  0  0  0
  1  2  1  0  0  0  0
  3  1  1  6  0  0  0
  3  4  1  0  0  0  0
  3  5  1  0  0  0  0
  5  6  1  1  0  0  0
  5  7  1  0  0  0  0
  7  8  1  0  0  0  0
  8  4  1  6  0  0  0
  8 19  1  0  0  0  0
  9 15  1  0  0  0  0
  9 10  1  0  0  0  0
 10 11  1  6  0  0  0
 10 12  1  0  0  0  0
 13 12  1  6  0  0  0
 13 14  1  0  0  0  0
 13 19  1  0  0  0  0
 14 15  1  1  0  0  0
 14 17  1  0  0  0  0
 15 16  2  0  0  0  0
 17 18  1  0  0  0  0
 19 18  1  1  0  0  0
M  END
>  <CHROM.1>
63.28859590,-138.55354459,-6.36208471,-3.83787625,9.87282338,-2.01219721
0.08415663,-0.02690552

>  <Name>
ligand

>  <RI>
0

>  <Rbt.Current_Directory>
/home/itssahil/PROJECTS/Mol_Feturizer/New_Systems/rnas/3SKI

>  <Rbt.Executable>
rbdock ($Id: //depot/dev/client3/rdock/2013.1/src/exe/rbdock.cxx#4 $)

>  <Rbt.Library>
libRbt.so (2013.1, Build901 2013/11/27)

>  <Rbt.Parameter_File>
/export/apps/rDock/src/rDock_2013.1_src/data/scripts/dock_solv.prm

>  <Rbt.Receptor>
prm/pocket_docking_6.prm

>  <SCORE>
-17.1818

>  <SCORE.INTER>
-13.9636

>  <SCORE.INTER.CONST>
1

>  <SCORE.INTER.POLAR>
0

>  <SCORE.INTER.ROT>
2

>  <SCORE.INTER.SOLV>
17.1791

>  <SCORE.INTER.VDW>
-19.9687

>  <SCORE.INTER.norm>
-0.734924

>  <SCORE.INTRA>
-3.21821

>  <SCORE.INTRA.DIHEDRAL>
-5.00989

>  <SCORE.INTRA.DIHEDRAL.0>
6.26853

>  <SCORE.INTRA.POLAR>
0

>  <SCORE.INTRA.POLAR.0>
0

>  <SCORE.INTRA.REPUL>
0

>  <SCORE.INTRA.REPUL.0>
0

>  <SCORE.INTRA.SOLV>
-0.244547

>  <SCORE.INTRA.SOLV.lig_0>
-38.4926

>  <SCORE.INTRA.VDW>
-0.59099

>  <SCORE.INTRA.VDW.0>
-0.59057

>  <SCORE.INTRA.norm>
-0.169379

>  <SCORE.RESTR>
0

>  <SCORE.RESTR.CAVITY>
0

>  <SCORE.RESTR.norm>
0

>  <SCORE.SYSTEM>
0

>  <SCORE.SYSTEM.CONST>
0

>  <SCORE.SYSTEM.DIHEDRAL>
0

>  <SCORE.SYSTEM.SOLV>
0

>  <SCORE.SYSTEM.norm>
0

>  <SCORE.heavy>
19

>  <SCORE.norm>
-0.904303

>  <RMSD>
0.951

$$$$
ligand
 OpenBabel11021811483D
libRbt.so/2013.1/901 2013/11/27
 19 21  0  0  0  0  0  0  0  0999 V2000
   -7.5506   -7.5100   11.5878 C   0  0  0  0  0  0  0  0  0  0  0  0
   -8.1033   -8.8250   11.4284 O   0  0  0  0  0  0  0  0  0  0  0  0
   -8.5589   -6.4499   11.1391 C   0  0  1  0  0  0  0  0  0  0  0  0
   -8.0505   -5.1254   11.3884 O   0  0  0  0  0  0  0  0  0  0  0  0
   -8.8315   -6.5515    9.6487 C   0  0  1  0  0  0  0  0  0  0  0  0
  -10.1039   -7.1603    9.3961 O   0  0  0  0  0  0  0  0  0  0  0  0
   -8.8113   -5.1305    9.1288 C   0  0  0  0  0  0  0  0  0  0  0  0
   -8.1616   -4.2957   10.2227 C   0  0  2  0  0  0  0  0  0  0  0  0
   -4.9021   -0.1916    9.8699 N   0  0  0  0  0  0  0  0  0  0  0  0
   -6.1779   -0.2522   10.3376 C   0  0  1  0  0  0  0  0  0  0  0  0
   -6.7646    0.8781   10.7981 N   0  0  0  0  0  0  0  0  0  0  0  0
   -6.8783   -1.4190   10.3493 N   0  0  0  0  0  0  0  0  0  0  0  0
   -6.3367   -2.5821    9.8962 C   0  0  2  0  0  0  0  0  0  0  0  0
   -5.0426   -2.5808    9.4080 C   0  0  1  0  0  0  0  0  0  0  0  0
   -4.2886   -1.3013    9.4026 C   0  0  0  0  0  0  0  0  0  0  0  0
   -3.1131   -1.2503    8.9763 O   0  0  0  0  0  0  0  0  0  0  0  0
   -4.7441   -3.8369    9.0332 N   0  0  0  0  0  0  0  0  0  0  0  0
   -5.8329   -4.6031    9.2773 C   0  0  0  0  0  0  0  0  0  0  0  0
   -6.8048   -3.8357    9.8033 N   0  0  1  0  0  0  0  0  0  0  0  0
  1  2  1  0  0  0  0
  3  1  1  6  0  0  0
  3  4  1  0  0  0  0
  3  5  1  0  0  0  0
  5  6  1  1  0  0  0
  5  7  1  0  0  0  0
  7  8  1  0  0  0  0
  8  4  1  1  0  0  0
  8 19  1  0  0  0  0
  9 15  1  0  0  0  0
  9 10  1  0  0  0  0
 10 11  1  6  0  0  0
 10 12  1  0  0  0  0
 13 12  1  6  0  0  0
 13 14  1  0  0  0  0
 13 19  1  0  0  0  0
 14 15  1  1  0  0  0
 14 17  1  0  0  0  0
 15 16  2  0  0  0  0
 17 18  1  0  0  0  0
 19 18  1  1  0  0  0
M  END
>  <CHROM.1>
175.73671146,-109.92899012,-6.83794066,-3.88193529,10.07668261,-2.09931865
0.25074572,0.01906189

>  <Name>
ligand

>  <RI>
0

>  <Rbt.Current_Directory>
/home/itssahil/PROJECTS/Mol_Feturizer/New_Systems/rnas/3SKI

>  <Rbt.Executable>
rbdock ($Id: //depot/dev/client3/rdock/2013.1/src/exe/rbdock.cxx#4 $)

>  <Rbt.Library>
libRbt.so (2013.1, Build901 2013/11/27)

>  <Rbt.Parameter_File>
/export/apps/rDock/src/rDock_2013.1_src/data/scripts/dock_solv.prm

>  <Rbt.Receptor>
prm/blind_docking_20.prm

>  <SCORE>
-17.2047

>  <SCORE.INTER>
-14.3514

>  <SCORE.INTER.CONST>
1

>  <SCORE.INTER.POLAR>
0

>  <SCORE.INTER.ROT>
2

>  <SCORE.INTER.SOLV>
18.2659

>  <SCORE.INTER.VDW>
-20.5896

>  <SCORE.INTER.norm>
-0.755335

>  <SCORE.INTRA>
-2.85336

>  <SCORE.INTRA.DIHEDRAL>
-5.01083

>  <SCORE.INTRA.DIHEDRAL.0>
6.26853

>  <SCORE.INTRA.POLAR>
0

>  <SCORE.INTRA.POLAR.0>
0

>  <SCORE.INTRA.REPUL>
0

>  <SCORE.INTRA.REPUL.0>
0

>  <SCORE.INTRA.SOLV>
-0.0290688

>  <SCORE.INTRA.SOLV.lig_0>
-38.4926

>  <SCORE.INTRA.VDW>
-0.333416

>  <SCORE.INTRA.VDW.0>
-0.59057

>  <SCORE.INTRA.norm>
-0.150177

>  <SCORE.RESTR>
0

>  <SCORE.RESTR.CAVITY>
0

>  <SCORE.RESTR.norm>
0

>  <SCORE.SYSTEM>
0

>  <SCORE.SYSTEM.CONST>
0

>  <SCORE.SYSTEM.DIHEDRAL>
0

>  <SCORE.SYSTEM.SOLV>
0

>  <SCORE.SYSTEM.norm>
0

>  <SCORE.heavy>
19

>  <SCORE.norm>
-0.905512

>  <RMSD>
1.042

$$$$
ligand
 OpenBabel11021811483D
libRbt.so/2013.1/901 2013/11/27
 19 21  0  0  0  0  0  0  0  0999 V2000
   -8.2962   -5.8372   12.2368 C   0  0  0  0  0  0  0  0  0  0  0  0
   -6.9329   -5.4908   12.5230 O   0  0  0  0  0  0  0  0  0  0  0  0
   -8.4951   -6.0189   10.7304 C   0  0  1  0  0  0  0  0  0  0  0  0
   -8.1101   -4.8274   10.0182 O   0  0  0  0  0  0  0  0  0  0  0  0
   -7.6381   -7.1544   10.1994 C   0  0  1  0  0  0  0  0  0  0  0  0
   -8.4274   -8.3234    9.9462 O   0  0  0  0  0  0  0  0  0  0  0  0
   -7.0243   -6.6410    8.9150 C   0  0  0  0  0  0  0  0  0  0  0  0
   -7.2227   -5.1324    8.9323 C   0  0  2  0  0  0  0  0  0  0  0  0
   -4.9126   -0.5754   10.1533 N   0  0  0  0  0  0  0  0  0  0  0  0
   -6.2339   -0.8804   10.0465 C   0  0  1  0  0  0  0  0  0  0  0  0
   -7.1534    0.0874   10.2741 N   0  0  0  0  0  0  0  0  0  0  0  0
   -6.6520   -2.1317    9.7127 N   0  0  0  0  0  0  0  0  0  0  0  0
   -5.7700   -3.1394    9.4716 C   0  0  2  0  0  0  0  0  0  0  0  0
   -4.4131   -2.8874    9.5646 C   0  0  1  0  0  0  0  0  0  0  0  0
   -3.9702   -1.5182    9.9316 C   0  0  0  0  0  0  0  0  0  0  0  0
   -2.7538   -1.2425   10.0340 O   0  0  0  0  0  0  0  0  0  0  0  0
   -3.7635   -4.0318    9.2896 N   0  0  0  0  0  0  0  0  0  0  0  0
   -4.6972   -4.9752    9.0245 C   0  0  0  0  0  0  0  0  0  0  0  0
   -5.9218   -4.4288    9.1351 N   0  0  1  0  0  0  0  0  0  0  0  0
  1  2  1  0  0  0  0
  3  1  1  1  0  0  0
  3  4  1  0  0  0  0
  3  5  1  0  0  0  0
  5  6  1  6  0  0  0
  5  7  1  0  0  0  0
  7  8  1  0  0  0  0
  8  4  1  1  0  0  0
  8 19  1  0  0  0  0
  9 15  1  0  0  0  0
  9 10  1  0  0  0  0
 10 11  1  6  0  0  0
 10 12  1  0  0  0  0
 13 12  1  6  0  0  0
 13 14  1  0  0  0  0
 13 19  1  0  0  0  0
 14 15  1  1  0  0  0
 14 17  1  0  0  0  0
 15 16  2  0  0  0  0
 17 18  1  0  0  0  0
 19 18  1  1  0  0  0
M  END
>  <CHROM.1>
-56.95394177,-46.96915444,-6.26985507,-4.01090920,10.04227486,2.15734902
-0.41630414,-2.97179360

>  <Name>
ligand

>  <RI>
0

>  <Rbt.Current_Directory>
/home/itssahil/PROJECTS/Mol_Feturizer/New_Systems/rnas/3SKI

>  <Rbt.Executable>
rbdock ($Id: //depot/dev/client3/rdock/2013.1/src/exe/rbdock.cxx#4 $)

>  <Rbt.Library>
libRbt.so (2013.1, Build901 2013/11/27)

>  <Rbt.Parameter_File>
/export/apps/rDock/src/rDock_2013.1_src/data/scripts/dock_solv.prm

>  <Rbt.Receptor>
prm/pocket_docking_4.prm

>  <SCORE>
-15.1495

>  <SCORE.INTER>
-12.7311

>  <SCORE.INTER.CONST>
1

>  <SCORE.INTER.POLAR>
0

>  <SCORE.INTER.ROT>
2

>  <SCORE.INTER.SOLV>
19.2234

>  <SCORE.INTER.VDW>
-19.8285

>  <SCORE.INTER.norm>
-0.670058

>  <SCORE.INTRA>
-2.41836

>  <SCORE.INTRA.DIHEDRAL>
-5.01953

>  <SCORE.INTRA.DIHEDRAL.0>
6.26853

>  <SCORE.INTRA.POLAR>
0

>  <SCORE.INTRA.POLAR.0>
0

>  <SCORE.INTRA.REPUL>
0

>  <SCORE.INTRA.REPUL.0>
0

>  <SCORE.INTRA.SOLV>
0.232672

>  <SCORE.INTRA.SOLV.lig_0>
-38.4926

>  <SCORE.INTRA.VDW>
-0.0249339

>  <SCORE.INTRA.VDW.0>
-0.59057

>  <SCORE.INTRA.norm>
-0.127282

>  <SCORE.RESTR>
0

>  <SCORE.RESTR.CAVITY>
0

>  <SCORE.RESTR.norm>
0

>  <SCORE.SYSTEM>
0

>  <SCORE.SYSTEM.CONST>
0

>  <SCORE.SYSTEM.DIHEDRAL>
0

>  <SCORE.SYSTEM.SOLV>
0

>  <SCORE.SYSTEM.norm>
0

>  <SCORE.heavy>
19

>  <SCORE.norm>
-0.79734

>  <RMSD>
1.045

$$$$
ligand
 OpenBabel11021811483D
libRbt.so/2013.1/901 2013/11/27
 19 21  0  0  0  0  0  0  0  0999 V2000
   -8.3047   -5.8337   12.2319 C   0  0  0  0  0  0  0  0  0  0  0  0
   -6.9398   -5.4979   12.5225 O   0  0  0  0  0  0  0  0  0  0  0  0
   -8.4985   -6.0209   10.7255 C   0  0  1  0  0  0  0  0  0  0  0  0
   -8.1137   -4.8311   10.0106 O   0  0  0  0  0  0  0  0  0  0  0  0
   -7.6374   -7.1565   10.2010 C   0  0  1  0  0  0  0  0  0  0  0  0
   -8.4235   -8.3279    9.9493 O   0  0  0  0  0  0  0  0  0  0  0  0
   -7.0207   -6.6460    8.9169 C   0  0  0  0  0  0  0  0  0  0  0  0
   -7.2223   -5.1378    8.9285 C   0  0  2  0  0  0  0  0  0  0  0  0
   -4.9258   -0.5745   10.1515 N   0  0  0  0  0  0  0  0  0  0  0  0
   -6.2462   -0.8830   10.0429 C   0  0  1  0  0  0  0  0  0  0  0  0
   -7.1685    0.0825   10.2689 N   0  0  0  0  0  0  0  0  0  0  0  0
   -6.6606   -2.1355    9.7089 N   0  0  0  0  0  0  0  0  0  0  0  0
   -5.7756   -3.1409    9.4693 C   0  0  2  0  0  0  0  0  0  0  0  0
   -4.4195   -2.8854    9.5642 C   0  0  1  0  0  0  0  0  0  0  0  0
   -3.9806   -1.5149    9.9315 C   0  0  0  0  0  0  0  0  0  0  0  0
   -2.7651   -1.2361   10.0355 O   0  0  0  0  0  0  0  0  0  0  0  0
   -3.7665   -4.0282    9.2905 N   0  0  0  0  0  0  0  0  0  0  0  0
   -4.6974   -4.9741    9.0243 C   0  0  0  0  0  0  0  0  0  0  0  0
   -5.9235   -4.4308    9.1330 N   0  0  1  0  0  0  0  0  0  0  0  0
  1  2  1  0  0  0  0
  3  1  1  1  0  0  0
  3  4  1  0  0  0  0
  3  5  1  0  0  0  0
  5  6  1  6  0  0  0
  5  7  1  0  0  0  0
  7  8  1  0  0  0  0
  8  4  1  1  0  0  0
  8 19  1  0  0  0  0
  9 15  1  0  0  0  0
  9 10  1  0  0  0  0
 10 11  1  6  0  0  0
 10 12  1  0  0  0  0
 13 12  1  6  0  0  0
 13 14  1  0  0  0  0
 13 19  1  0  0  0  0
 14 15  1  1  0  0  0
 14 17  1  0  0  0  0
 15 16  2  0  0  0  0
 17 18  1  0  0  0  0
 19 18  1  1  0  0  0
M  END
>  <CHROM.1>
-57.58368121,-46.76623264,-6.27516564,-4.01222763,10.04060608,2.15517563
-0.41518458,-2.97377649

>  <Name>
ligand

>  <RI>
0

>  <Rbt.Current_Directory>
/home/itssahil/PROJECTS/Mol_Feturizer/New_Systems/rnas/3SKI

>  <Rbt.Executable>
rbdock ($Id: //depot/dev/client3/rdock/2013.1/src/exe/rbdock.cxx#4 $)

>  <Rbt.Library>
libRbt.so (2013.1, Build901 2013/11/27)

>  <Rbt.Parameter_File>
/export/apps/rDock/src/rDock_2013.1_src/data/scripts/dock_solv.prm

>  <Rbt.Receptor>
prm/pocket_docking_4.prm

>  <SCORE>
-15.1486

>  <SCORE.INTER>
-12.7278

>  <SCORE.INTER.CONST>
1

>  <SCORE.INTER.POLAR>
0

>  <SCORE.INTER.ROT>
2

>  <SCORE.INTER.SOLV>
19.263

>  <SCORE.INTER.VDW>
-19.8395

>  <SCORE.INTER.norm>
-0.669883

>  <SCORE.INTRA>
-2.42083

>  <SCORE.INTRA.DIHEDRAL>
-5.03199

>  <SCORE.INTRA.DIHEDRAL.0>
6.26853

>  <SCORE.INTRA.POLAR>
0

>  <SCORE.INTRA.POLAR.0>
0

>  <SCORE.INTRA.REPUL>
0

>  <SCORE.INTRA.REPUL.0>
0

>  <SCORE.INTRA.SOLV>
0.234163

>  <SCORE.INTRA.SOLV.lig_0>
-38.4926

>  <SCORE.INTRA.VDW>
-0.021912

>  <SCORE.INTRA.VDW.0>
-0.59057

>  <SCORE.INTRA.norm>
-0.127412

>  <SCORE.RESTR>
0

>  <SCORE.RESTR.CAVITY>
0

>  <SCORE.RESTR.norm>
0

>  <SCORE.SYSTEM>
0

>  <SCORE.SYSTEM.CONST>
0

>  <SCORE.SYSTEM.DIHEDRAL>
0

>  <SCORE.SYSTEM.SOLV>
0

>  <SCORE.SYSTEM.norm>
0

>  <SCORE.heavy>
19

>  <SCORE.norm>
-0.797294

>  <RMSD>
1.049

$$$$
ligand
 OpenBabel11021811483D
libRbt.so/2013.1/901 2013/11/27
 19 21  0  0  0  0  0  0  0  0999 V2000
   -7.5415   -7.6323   11.3412 C   0  0  0  0  0  0  0  0  0  0  0  0
   -8.1171   -8.9140   11.0480 O   0  0  0  0  0  0  0  0  0  0  0  0
   -8.5380   -6.5150   11.0240 C   0  0  1  0  0  0  0  0  0  0  0  0
   -7.9804   -5.2274   11.3497 O   0  0  0  0  0  0  0  0  0  0  0  0
   -8.8813   -6.4931    9.5450 C   0  0  1  0  0  0  0  0  0  0  0  0
  -10.1811   -7.0478    9.3075 O   0  0  0  0  0  0  0  0  0  0  0  0
   -8.8436   -5.0368    9.1353 C   0  0  0  0  0  0  0  0  0  0  0  0
   -8.1206   -4.3067   10.2577 C   0  0  2  0  0  0  0  0  0  0  0  0
   -4.8752   -0.2020    9.7978 N   0  0  0  0  0  0  0  0  0  0  0  0
   -6.1432   -0.2586   10.2868 C   0  0  1  0  0  0  0  0  0  0  0  0
   -6.7247    0.8768   10.7415 N   0  0  0  0  0  0  0  0  0  0  0  0
   -6.8410   -1.4264   10.3253 N   0  0  0  0  0  0  0  0  0  0  0  0
   -6.3045   -2.5945    9.8791 C   0  0  2  0  0  0  0  0  0  0  0  0
   -5.0184   -2.5974    9.3702 C   0  0  1  0  0  0  0  0  0  0  0  0
   -4.2671   -1.3168    9.3356 C   0  0  0  0  0  0  0  0  0  0  0  0
   -3.0987   -1.2695    8.8898 O   0  0  0  0  0  0  0  0  0  0  0  0
   -4.7235   -3.8579    9.0075 N   0  0  0  0  0  0  0  0  0  0  0  0
   -5.8068   -4.6227    9.2792 C   0  0  0  0  0  0  0  0  0  0  0  0
   -6.7716   -3.8499    9.8105 N   0  0  1  0  0  0  0  0  0  0  0  0
  1  2  1  0  0  0  0
  3  1  1  6  0  0  0
  3  4  1  0  0  0  0
  3  5  1  0  0  0  0
  5  6  1  1  0  0  0
  5  7  1  0  0  0  0
  7  8  1  0  0  0  0
  8  4  1  1  0  0  0
  8 19  1  0  0  0  0
  9 15  1  0  0  0  0
  9 10  1  0  0  0  0
 10 11  1  6  0  0  0
 10 12  1  0  0  0  0
 13 12  1  6  0  0  0
 13 14  1  0  0  0  0
 13 19  1  0  0  0  0
 14 15  1  1  0  0  0
 14 17  1  0  0  0  0
 15 16  2  0  0  0  0
 17 18  1  0  0  0  0
 19 18  1  1  0  0  0
M  END
>  <CHROM.1>
178.44891179,-115.67602816,-6.82413666,-3.89648898,10.00119639,-2.10067970
0.23647864,0.02830802

>  <Name>
ligand

>  <RI>
0

>  <Rbt.Current_Directory>
/home/itssahil/PROJECTS/Mol_Feturizer/New_Systems/rnas/3SKI

>  <Rbt.Executable>
rbdock ($Id: //depot/dev/client3/rdock/2013.1/src/exe/rbdock.cxx#4 $)

>  <Rbt.Library>
libRbt.so (2013.1, Build901 2013/11/27)

>  <Rbt.Parameter_File>
/export/apps/rDock/src/rDock_2013.1_src/data/scripts/dock_solv.prm

>  <Rbt.Receptor>
prm/pocket_docking_3.prm

>  <SCORE>
-17.0765

>  <SCORE.INTER>
-14.1535

>  <SCORE.INTER.CONST>
1

>  <SCORE.INTER.POLAR>
0

>  <SCORE.INTER.ROT>
2

>  <SCORE.INTER.SOLV>
17.9068

>  <SCORE.INTER.VDW>
-20.3379

>  <SCORE.INTER.norm>
-0.744919

>  <SCORE.INTRA>
-2.92308

>  <SCORE.INTRA.DIHEDRAL>
-5.06138

>  <SCORE.INTRA.DIHEDRAL.0>
6.26853

>  <SCORE.INTRA.POLAR>
0

>  <SCORE.INTRA.POLAR.0>
0

>  <SCORE.INTRA.REPUL>
0

>  <SCORE.INTRA.REPUL.0>
0

>  <SCORE.INTRA.SOLV>
-0.0146362

>  <SCORE.INTRA.SOLV.lig_0>
-38.4926

>  <SCORE.INTRA.VDW>
-0.385075

>  <SCORE.INTRA.VDW.0>
-0.59057

>  <SCORE.INTRA.norm>
-0.153846

>  <SCORE.RESTR>
0

>  <SCORE.RESTR.CAVITY>
0

>  <SCORE.RESTR.norm>
0

>  <SCORE.SYSTEM>
0

>  <SCORE.SYSTEM.CONST>
0

>  <SCORE.SYSTEM.DIHEDRAL>
0

>  <SCORE.SYSTEM.SOLV>
0

>  <SCORE.SYSTEM.norm>
0

>  <SCORE.heavy>
19

>  <SCORE.norm>
-0.898765

>  <RMSD>
1.106

$$$$
ligand
 OpenBabel11021811483D
libRbt.so/2013.1/901 2013/11/27
 19 21  0  0  0  0  0  0  0  0999 V2000
   -7.2156   -8.0487    9.5966 C   0  0  0  0  0  0  0  0  0  0  0  0
   -6.6310   -8.7713   10.6903 O   0  0  0  0  0  0  0  0  0  0  0  0
   -8.0899   -6.9065   10.1189 C   0  0  1  0  0  0  0  0  0  0  0  0
   -7.2986   -5.9554   10.8566 O   0  0  0  0  0  0  0  0  0  0  0  0
   -8.7443   -6.1525    8.9747 C   0  0  1  0  0  0  0  0  0  0  0  0
  -10.1293   -6.4992    8.8520 O   0  0  0  0  0  0  0  0  0  0  0  0
   -8.5931   -4.6845    9.3094 C   0  0  0  0  0  0  0  0  0  0  0  0
   -7.5450   -4.6139   10.4103 C   0  0  2  0  0  0  0  0  0  0  0  0
   -4.8604   -0.1635    9.6489 N   0  0  0  0  0  0  0  0  0  0  0  0
   -6.0975   -0.3535   10.1814 C   0  0  1  0  0  0  0  0  0  0  0  0
   -6.8061    0.7218   10.6004 N   0  0  0  0  0  0  0  0  0  0  0  0
   -6.6401   -1.5960   10.2985 N   0  0  0  0  0  0  0  0  0  0  0  0
   -5.9717   -2.7090    9.8911 C   0  0  2  0  0  0  0  0  0  0  0  0
   -4.7096   -2.5767    9.3409 C   0  0  1  0  0  0  0  0  0  0  0  0
   -4.1281   -1.2154    9.2206 C   0  0  0  0  0  0  0  0  0  0  0  0
   -2.9875   -1.0448    8.7350 O   0  0  0  0  0  0  0  0  0  0  0  0
   -4.2668   -3.8072    9.0292 N   0  0  0  0  0  0  0  0  0  0  0  0
   -5.2366   -4.6868    9.3725 C   0  0  0  0  0  0  0  0  0  0  0  0
   -6.2773   -4.0150    9.8978 N   0  0  1  0  0  0  0  0  0  0  0  0
  1  2  1  0  0  0  0
  3  1  1  6  0  0  0
  3  4  1  0  0  0  0
  3  5  1  0  0  0  0
  5  6  1  1  0  0  0
  5  7  1  0  0  0  0
  7  8  1  0  0  0  0
  8  4  1  6  0  0  0
  8 19  1  0  0  0  0
  9 15  1  0  0  0  0
  9 10  1  0  0  0  0
 10 11  1  6  0  0  0
 10 12  1  0  0  0  0
 13 12  1  6  0  0  0
 13 14  1  0  0  0  0
 13 19  1  0  0  0  0
 14 15  1  1  0  0  0
 14 17  1  0  0  0  0
 15 16  2  0  0  0  0
 17 18  1  0  0  0  0
 19 18  1  1  0  0  0
M  END
>  <CHROM.1>
62.50607276,-152.29529516,-6.47013215,-3.93470238,9.74364151,-2.02832547
0.09420946,0.01767630

>  <Name>
ligand

>  <RI>
0

>  <Rbt.Current_Directory>
/home/itssahil/PROJECTS/Mol_Feturizer/New_Systems/rnas/3SKI

>  <Rbt.Executable>
rbdock ($Id: //depot/dev/client3/rdock/2013.1/src/exe/rbdock.cxx#4 $)

>  <Rbt.Library>
libRbt.so (2013.1, Build901 2013/11/27)

>  <Rbt.Parameter_File>
/export/apps/rDock/src/rDock_2013.1_src/data/scripts/dock_solv.prm

>  <Rbt.Receptor>
prm/pocket_docking_6.prm

>  <SCORE>
-17.3626

>  <SCORE.INTER>
-14.1813

>  <SCORE.INTER.CONST>
1

>  <SCORE.INTER.POLAR>
0

>  <SCORE.INTER.ROT>
2

>  <SCORE.INTER.SOLV>
17.3796

>  <SCORE.INTER.VDW>
-20.1808

>  <SCORE.INTER.norm>
-0.746386

>  <SCORE.INTRA>
-3.18125

>  <SCORE.INTRA.DIHEDRAL>
-5.02357

>  <SCORE.INTRA.DIHEDRAL.0>
6.26853

>  <SCORE.INTRA.POLAR>
0

>  <SCORE.INTRA.POLAR.0>
0

>  <SCORE.INTRA.REPUL>
0

>  <SCORE.INTRA.REPUL.0>
0

>  <SCORE.INTRA.SOLV>
-0.243459

>  <SCORE.INTRA.SOLV.lig_0>
-38.4926

>  <SCORE.INTRA.VDW>
-0.547736

>  <SCORE.INTRA.VDW.0>
-0.59057

>  <SCORE.INTRA.norm>
-0.167434

>  <SCORE.RESTR>
0

>  <SCORE.RESTR.CAVITY>
0

>  <SCORE.RESTR.norm>
0

>  <SCORE.SYSTEM>
0

>  <SCORE.SYSTEM.CONST>
0

>  <SCORE.SYSTEM.DIHEDRAL>
0

>  <SCORE.SYSTEM.SOLV>
0

>  <SCORE.SYSTEM.norm>
0

>  <SCORE.heavy>
19

>  <SCORE.norm>
-0.913821

>  <RMSD>
1.221

$$$$
ligand
 OpenBabel11021811483D
libRbt.so/2013.1/901 2013/11/27
 19 21  0  0  0  0  0  0  0  0999 V2000
   -7.2912   -7.8709    9.1593 C   0  0  0  0  0  0  0  0  0  0  0  0
   -6.6354   -8.6712   10.1542 O   0  0  0  0  0  0  0  0  0  0  0  0
   -8.1210   -6.7696    9.8230 C   0  0  1  0  0  0  0  0  0  0  0  0
   -7.2849   -5.9172   10.6287 O   0  0  0  0  0  0  0  0  0  0  0  0
   -8.7893   -5.8877    8.7830 C   0  0  1  0  0  0  0  0  0  0  0  0
  -10.1856   -6.1894    8.6693 O   0  0  0  0  0  0  0  0  0  0  0  0
   -8.5916   -4.4656    9.2612 C   0  0  0  0  0  0  0  0  0  0  0  0
   -7.5105   -4.5317   10.3299 C   0  0  2  0  0  0  0  0  0  0  0  0
   -4.8277   -0.0523    9.7549 N   0  0  0  0  0  0  0  0  0  0  0  0
   -6.0641   -0.2651   10.2805 C   0  0  1  0  0  0  0  0  0  0  0  0
   -6.7723    0.7912   10.7459 N   0  0  0  0  0  0  0  0  0  0  0  0
   -6.6063   -1.5117   10.3453 N   0  0  0  0  0  0  0  0  0  0  0  0
   -5.9382   -2.6061    9.8900 C   0  0  2  0  0  0  0  0  0  0  0  0
   -4.6769   -2.4502    9.3442 C   0  0  1  0  0  0  0  0  0  0  0  0
   -4.0959   -1.0849    9.2812 C   0  0  0  0  0  0  0  0  0  0  0  0
   -2.9559   -0.8935    8.8016 O   0  0  0  0  0  0  0  0  0  0  0  0
   -4.2343   -3.6662    8.9798 N   0  0  0  0  0  0  0  0  0  0  0  0
   -5.2035   -4.5599    9.2867 C   0  0  0  0  0  0  0  0  0  0  0  0
   -6.2436   -3.9113    9.8416 N   0  0  1  0  0  0  0  0  0  0  0  0
  1  2  1  0  0  0  0
  3  1  1  6  0  0  0
  3  4  1  0  0  0  0
  3  5  1  0  0  0  0
  5  6  1  1  0  0  0
  5  7  1  0  0  0  0
  7  8  1  0  0  0  0
  8  4  1  6  0  0  0
  8 19  1  0  0  0  0
  9 15  1  0  0  0  0
  9 10  1  0  0  0  0
 10 11  1  6  0  0  0
 10 12  1  0  0  0  0
 13 12  1  6  0  0  0
 13 14  1  0  0  0  0
 13 19  1  0  0  0  0
 14 15  1  1  0  0  0
 14 17  1  0  0  0  0
 15 16  2  0  0  0  0
 17 18  1  0  0  0  0
 19 18  1  1  0  0  0
M  END
>  <CHROM.1>
59.41452044,-156.35886961,-6.46061338,-3.79879337,9.64916835,-2.04043970
0.09987014,0.08371673

>  <Name>
ligand

>  <RI>
0

>  <Rbt.Current_Directory>
/home/itssahil/PROJECTS/Mol_Feturizer/New_Systems/rnas/3SKI

>  <Rbt.Executable>
rbdock ($Id: //depot/dev/client3/rdock/2013.1/src/exe/rbdock.cxx#4 $)

>  <Rbt.Library>
libRbt.so (2013.1, Build901 2013/11/27)

>  <Rbt.Parameter_File>
/export/apps/rDock/src/rDock_2013.1_src/data/scripts/dock_solv.prm

>  <Rbt.Receptor>
prm/pocket_docking_5.prm

>  <SCORE>
-17.5816

>  <SCORE.INTER>
-14.4359

>  <SCORE.INTER.CONST>
1

>  <SCORE.INTER.POLAR>
0

>  <SCORE.INTER.ROT>
2

>  <SCORE.INTER.SOLV>
18.1748

>  <SCORE.INTER.VDW>
-20.6155

>  <SCORE.INTER.norm>
-0.759783

>  <SCORE.INTRA>
-3.14572

>  <SCORE.INTRA.DIHEDRAL>
-5.04706

>  <SCORE.INTRA.DIHEDRAL.0>
6.26853

>  <SCORE.INTRA.POLAR>
0

>  <SCORE.INTRA.POLAR.0>
0

>  <SCORE.INTRA.REPUL>
0

>  <SCORE.INTRA.REPUL.0>
0

>  <SCORE.INTRA.SOLV>
-0.232637

>  <SCORE.INTRA.SOLV.lig_0>
-38.4926

>  <SCORE.INTRA.VDW>
-0.50587

>  <SCORE.INTRA.VDW.0>
-0.59057

>  <SCORE.INTRA.norm>
-0.165564

>  <SCORE.RESTR>
0

>  <SCORE.RESTR.CAVITY>
0

>  <SCORE.RESTR.norm>
0

>  <SCORE.SYSTEM>
0

>  <SCORE.SYSTEM.CONST>
0

>  <SCORE.SYSTEM.DIHEDRAL>
0

>  <SCORE.SYSTEM.SOLV>
0

>  <SCORE.SYSTEM.norm>
0

>  <SCORE.heavy>
19

>  <SCORE.norm>
-0.925347

>  <RMSD>
1.387

$$$$
ligand
 OpenBabel11021811483D
libRbt.so/2013.1/901 2013/11/27
 19 21  0  0  0  0  0  0  0  0999 V2000
   -7.3028   -7.8547    9.1642 C   0  0  0  0  0  0  0  0  0  0  0  0
   -6.6561   -8.6864   10.1391 O   0  0  0  0  0  0  0  0  0  0  0  0
   -8.1112   -6.7539    9.8545 C   0  0  1  0  0  0  0  0  0  0  0  0
   -7.2532   -5.9159   10.6524 O   0  0  0  0  0  0  0  0  0  0  0  0
   -8.7924   -5.8565    8.8364 C   0  0  1  0  0  0  0  0  0  0  0  0
  -10.1929   -6.1465    8.7465 O   0  0  0  0  0  0  0  0  0  0  0  0
   -8.5746   -4.4408    9.3247 C   0  0  0  0  0  0  0  0  0  0  0  0
   -7.4737   -4.5259   10.3717 C   0  0  2  0  0  0  0  0  0  0  0  0
   -4.8291   -0.0437    9.6579 N   0  0  0  0  0  0  0  0  0  0  0  0
   -6.0643   -0.2505   10.1887 C   0  0  1  0  0  0  0  0  0  0  0  0
   -6.7823    0.8138   10.6196 N   0  0  0  0  0  0  0  0  0  0  0  0
   -6.5958   -1.4991   10.2924 N   0  0  0  0  0  0  0  0  0  0  0  0
   -5.9177   -2.6016    9.8727 C   0  0  2  0  0  0  0  0  0  0  0  0
   -4.6570   -2.4520    9.3236 C   0  0  1  0  0  0  0  0  0  0  0  0
   -4.0878   -1.0844    9.2179 C   0  0  0  0  0  0  0  0  0  0  0  0
   -2.9489   -0.8984    8.7338 O   0  0  0  0  0  0  0  0  0  0  0  0
   -4.2034   -3.6750    8.9983 N   0  0  0  0  0  0  0  0  0  0  0  0
   -5.1652   -4.5670    9.3324 C   0  0  0  0  0  0  0  0  0  0  0  0
   -6.2116   -3.9102    9.8653 N   0  0  1  0  0  0  0  0  0  0  0  0
  1  2  1  0  0  0  0
  3  1  1  6  0  0  0
  3  4  1  0  0  0  0
  3  5  1  0  0  0  0
  5  6  1  1  0  0  0
  5  7  1  0  0  0  0
  7  8  1  0  0  0  0
  8  4  1  6  0  0  0
  8 19  1  0  0  0  0
  9 15  1  0  0  0  0
  9 10  1  0  0  0  0
 10 11  1  6  0  0  0
 10 12  1  0  0  0  0
 13 12  1  6  0  0  0
 13 14  1  0  0  0  0
 13 19  1  0  0  0  0
 14 15  1  1  0  0  0
 14 17  1  0  0  0  0
 15 16  2  0  0  0  0
 17 18  1  0  0  0  0
 19 18  1  1  0  0  0
M  END
>  <CHROM.1>
60.57426034,-159.17726519,-6.45017698,-3.79004773,9.64093613,-2.04090464
0.10398423,0.06768706

>  <Name>
ligand

>  <RI>
0

>  <Rbt.Current_Directory>
/home/itssahil/PROJECTS/Mol_Feturizer/New_Systems/rnas/3SKI

>  <Rbt.Executable>
rbdock ($Id: //depot/dev/client3/rdock/2013.1/src/exe/rbdock.cxx#4 $)

>  <Rbt.Library>
libRbt.so (2013.1, Build901 2013/11/27)

>  <Rbt.Parameter_File>
/export/apps/rDock/src/rDock_2013.1_src/data/scripts/dock_solv.prm

>  <Rbt.Receptor>
prm/pocket_docking_7.prm

>  <SCORE>
-17.4766

>  <SCORE.INTER>
-14.3429

>  <SCORE.INTER.CONST>
1

>  <SCORE.INTER.POLAR>
0

>  <SCORE.INTER.ROT>
2

>  <SCORE.INTER.SOLV>
18.0745

>  <SCORE.INTER.VDW>
-20.5201

>  <SCORE.INTER.norm>
-0.754889

>  <SCORE.INTRA>
-3.13373

>  <SCORE.INTRA.DIHEDRAL>
-5.04782

>  <SCORE.INTRA.DIHEDRAL.0>
6.26853

>  <SCORE.INTRA.POLAR>
0

>  <SCORE.INTRA.POLAR.0>
0

>  <SCORE.INTRA.REPUL>
0

>  <SCORE.INTRA.REPUL.0>
0

>  <SCORE.INTRA.SOLV>
-0.237665

>  <SCORE.INTRA.SOLV.lig_0>
-38.4926

>  <SCORE.INTRA.VDW>
-0.490985

>  <SCORE.INTRA.VDW.0>
-0.59057

>  <SCORE.INTRA.norm>
-0.164933

>  <SCORE.RESTR>
0

>  <SCORE.RESTR.CAVITY>
0

>  <SCORE.RESTR.norm>
0

>  <SCORE.SYSTEM>
0

>  <SCORE.SYSTEM.CONST>
0

>  <SCORE.SYSTEM.DIHEDRAL>
0

>  <SCORE.SYSTEM.SOLV>
0

>  <SCORE.SYSTEM.norm>
0

>  <SCORE.heavy>
19

>  <SCORE.norm>
-0.919822

>  <RMSD>
1.388

$$$$
ligand
 OpenBabel11021811483D
libRbt.so/2013.1/901 2013/11/27
 19 21  0  0  0  0  0  0  0  0999 V2000
   -7.3428   -7.8496    9.1770 C   0  0  0  0  0  0  0  0  0  0  0  0
   -6.7106   -8.6951   10.1495 O   0  0  0  0  0  0  0  0  0  0  0  0
   -8.1428   -6.7448    9.8707 C   0  0  1  0  0  0  0  0  0  0  0  0
   -7.2769   -5.9097   10.6631 O   0  0  0  0  0  0  0  0  0  0  0  0
   -8.8257   -5.8454    8.8554 C   0  0  1  0  0  0  0  0  0  0  0  0
  -10.2279   -6.1295    8.7734 O   0  0  0  0  0  0  0  0  0  0  0  0
   -8.5992   -4.4303    9.3412 C   0  0  0  0  0  0  0  0  0  0  0  0
   -7.4930   -4.5190   10.3823 C   0  0  2  0  0  0  0  0  0  0  0  0
   -4.7879   -0.0612    9.7469 N   0  0  0  0  0  0  0  0  0  0  0  0
   -6.0156   -0.2636   10.2966 C   0  0  1  0  0  0  0  0  0  0  0  0
   -6.7067    0.7989   10.7734 N   0  0  0  0  0  0  0  0  0  0  0  0
   -6.5659   -1.5059   10.3743 N   0  0  0  0  0  0  0  0  0  0  0  0
   -5.9150   -2.6063    9.9084 C   0  0  2  0  0  0  0  0  0  0  0  0
   -4.6633   -2.4610    9.3382 C   0  0  1  0  0  0  0  0  0  0  0  0
   -4.0732   -1.1002    9.2613 C   0  0  0  0  0  0  0  0  0  0  0  0
   -2.9413   -0.9184    8.7596 O   0  0  0  0  0  0  0  0  0  0  0  0
   -4.2370   -3.6809    8.9678 N   0  0  0  0  0  0  0  0  0  0  0  0
   -5.2068   -4.5667    9.2950 C   0  0  0  0  0  0  0  0  0  0  0  0
   -6.2311   -3.9092    9.8685 N   0  0  1  0  0  0  0  0  0  0  0  0
  1  2  1  0  0  0  0
  3  1  1  6  0  0  0
  3  4  1  0  0  0  0
  3  5  1  0  0  0  0
  5  6  1  1  0  0  0
  5  7  1  0  0  0  0
  7  8  1  0  0  0  0
  8  4  1  6  0  0  0
  8 19  1  0  0  0  0
  9 15  1  0  0  0  0
  9 10  1  0  0  0  0
 10 11  1  6  0  0  0
 10 12  1  0  0  0  0
 13 12  1  6  0  0  0
 13 14  1  0  0  0  0
 13 19  1  0  0  0  0
 14 15  1  1  0  0  0
 14 17  1  0  0  0  0
 15 16  2  0  0  0  0
 17 18  1  0  0  0  0
 19 18  1  1  0  0  0
M  END
>  <CHROM.1>
61.43514461,-157.10201931,-6.45848597,-3.79251847,9.67281783,-2.05223495
0.12025538,0.08732214

>  <Name>
ligand

>  <RI>
0

>  <Rbt.Current_Directory>
/home/itssahil/PROJECTS/Mol_Feturizer/New_Systems/rnas/3SKI

>  <Rbt.Executable>
rbdock ($Id: //depot/dev/client3/rdock/2013.1/src/exe/rbdock.cxx#4 $)

>  <Rbt.Library>
libRbt.so (2013.1, Build901 2013/11/27)

>  <Rbt.Parameter_File>
/export/apps/rDock/src/rDock_2013.1_src/data/scripts/dock_solv.prm

>  <Rbt.Receptor>
prm/pocket_docking_3.prm

>  <SCORE>
-17.585

>  <SCORE.INTER>
-14.4407

>  <SCORE.INTER.CONST>
1

>  <SCORE.INTER.POLAR>
0

>  <SCORE.INTER.ROT>
2

>  <SCORE.INTER.SOLV>
18.0252

>  <SCORE.INTER.VDW>
-20.5689

>  <SCORE.INTER.norm>
-0.760037

>  <SCORE.INTRA>
-3.1443

>  <SCORE.INTRA.DIHEDRAL>
-5.04039

>  <SCORE.INTRA.DIHEDRAL.0>
6.26853

>  <SCORE.INTRA.POLAR>
0

>  <SCORE.INTRA.POLAR.0>
0

>  <SCORE.INTRA.REPUL>
0

>  <SCORE.INTRA.REPUL.0>
0

>  <SCORE.INTRA.SOLV>
-0.240429

>  <SCORE.INTRA.SOLV.lig_0>
-38.4926

>  <SCORE.INTRA.VDW>
-0.503886

>  <SCORE.INTRA.VDW.0>
-0.59057

>  <SCORE.INTRA.norm>
-0.165489

>  <SCORE.RESTR>
0

>  <SCORE.RESTR.CAVITY>
0

>  <SCORE.RESTR.norm>
0

>  <SCORE.SYSTEM>
0

>  <SCORE.SYSTEM.CONST>
0

>  <SCORE.SYSTEM.DIHEDRAL>
0

>  <SCORE.SYSTEM.SOLV>
0

>  <SCORE.SYSTEM.norm>
0

>  <SCORE.heavy>
19

>  <SCORE.norm>
-0.925526

>  <RMSD>
1.392

$$$$
ligand
 OpenBabel11021811483D
libRbt.so/2013.1/901 2013/11/27
 19 21  0  0  0  0  0  0  0  0999 V2000
   -7.3607   -7.9045    9.1638 C   0  0  0  0  0  0  0  0  0  0  0  0
   -6.6875   -8.7047   10.1470 O   0  0  0  0  0  0  0  0  0  0  0  0
   -8.1693   -6.7959    9.8413 C   0  0  1  0  0  0  0  0  0  0  0  0
   -7.3140   -5.9588   10.6429 O   0  0  0  0  0  0  0  0  0  0  0  0
   -8.8361   -5.8998    8.8126 C   0  0  1  0  0  0  0  0  0  0  0  0
  -10.2373   -6.1826    8.7112 O   0  0  0  0  0  0  0  0  0  0  0  0
   -8.6150   -4.4830    9.2959 C   0  0  0  0  0  0  0  0  0  0  0  0
   -7.5242   -4.5689   10.3535 C   0  0  2  0  0  0  0  0  0  0  0  0
   -4.8372   -0.1077    9.6675 N   0  0  0  0  0  0  0  0  0  0  0  0
   -6.0769   -0.3054   10.1911 C   0  0  1  0  0  0  0  0  0  0  0  0
   -6.7880    0.7638   10.6215 N   0  0  0  0  0  0  0  0  0  0  0  0
   -6.6198   -1.5496   10.2881 N   0  0  0  0  0  0  0  0  0  0  0  0
   -5.9490   -2.6566    9.8686 C   0  0  2  0  0  0  0  0  0  0  0  0
   -4.6841   -2.5164    9.3267 C   0  0  1  0  0  0  0  0  0  0  0  0
   -4.1025   -1.1534    9.2283 C   0  0  0  0  0  0  0  0  0  0  0  0
   -2.9595   -0.9758    8.7508 O   0  0  0  0  0  0  0  0  0  0  0  0
   -4.2394   -3.7423    9.0001 N   0  0  0  0  0  0  0  0  0  0  0  0
   -5.2106   -4.6269    9.3263 C   0  0  0  0  0  0  0  0  0  0  0  0
   -6.2541   -3.9627    9.8557 N   0  0  1  0  0  0  0  0  0  0  0  0
  1  2  1  0  0  0  0
  3  1  1  6  0  0  0
  3  4  1  0  0  0  0
  3  5  1  0  0  0  0
  5  6  1  1  0  0  0
  5  7  1  0  0  0  0
  7  8  1  0  0  0  0
  8  4  1  6  0  0  0
  8 19  1  0  0  0  0
  9 15  1  0  0  0  0
  9 10  1  0  0  0  0
 10 11  1  6  0  0  0
 10 12  1  0  0  0  0
 13 12  1  6  0  0  0
 13 14  1  0  0  0  0
 13 19  1  0  0  0  0
 14 15  1  1  0  0  0
 14 17  1  0  0  0  0
 15 16  2  0  0  0  0
 17 18  1  0  0  0  0
 19 18  1  1  0  0  0
M  END
>  <CHROM.1>
58.43686059,-158.63902471,-6.48434971,-3.84127782,9.63562961,-2.04733967
0.09650814,0.06833565

>  <Name>
ligand

>  <RI>
0

>  <Rbt.Current_Directory>
/home/itssahil/PROJECTS/Mol_Feturizer/New_Systems/rnas/3SKI

>  <Rbt.Executable>
rbdock ($Id: //depot/dev/client3/rdock/2013.1/src/exe/rbdock.cxx#4 $)

>  <Rbt.Library>
libRbt.so (2013.1, Build901 2013/11/27)

>  <Rbt.Parameter_File>
/export/apps/rDock/src/rDock_2013.1_src/data/scripts/dock_solv.prm

>  <Rbt.Receptor>
prm/pocket_docking_6.prm

>  <SCORE>
-17.5334

>  <SCORE.INTER>
-14.4066

>  <SCORE.INTER.CONST>
1

>  <SCORE.INTER.POLAR>
0

>  <SCORE.INTER.ROT>
2

>  <SCORE.INTER.SOLV>
17.9401

>  <SCORE.INTER.VDW>
-20.5178

>  <SCORE.INTER.norm>
-0.758244

>  <SCORE.INTRA>
-3.12679

>  <SCORE.INTRA.DIHEDRAL>
-5.0407

>  <SCORE.INTRA.DIHEDRAL.0>
6.26853

>  <SCORE.INTRA.POLAR>
0

>  <SCORE.INTRA.POLAR.0>
0

>  <SCORE.INTRA.REPUL>
0

>  <SCORE.INTRA.REPUL.0>
0

>  <SCORE.INTRA.SOLV>
-0.229433

>  <SCORE.INTRA.SOLV.lig_0>
-38.4926

>  <SCORE.INTRA.VDW>
-0.491724

>  <SCORE.INTRA.VDW.0>
-0.59057

>  <SCORE.INTRA.norm>
-0.164568

>  <SCORE.RESTR>
0

>  <SCORE.RESTR.CAVITY>
0

>  <SCORE.RESTR.norm>
0

>  <SCORE.SYSTEM>
0

>  <SCORE.SYSTEM.CONST>
0

>  <SCORE.SYSTEM.DIHEDRAL>
0

>  <SCORE.SYSTEM.SOLV>
0

>  <SCORE.SYSTEM.norm>
0

>  <SCORE.heavy>
19

>  <SCORE.norm>
-0.922812

>  <RMSD>
1.394

$$$$
ligand
 OpenBabel11021811483D
libRbt.so/2013.1/901 2013/11/27
 19 21  0  0  0  0  0  0  0  0999 V2000
   -7.2887   -7.8655    9.1451 C   0  0  0  0  0  0  0  0  0  0  0  0
   -6.6817   -8.7169   10.1283 O   0  0  0  0  0  0  0  0  0  0  0  0
   -8.1032   -6.7625    9.8246 C   0  0  1  0  0  0  0  0  0  0  0  0
   -7.2520   -5.9204   10.6254 O   0  0  0  0  0  0  0  0  0  0  0  0
   -8.7775   -5.8700    8.7976 C   0  0  1  0  0  0  0  0  0  0  0  0
  -10.1771   -6.1616    8.6985 O   0  0  0  0  0  0  0  0  0  0  0  0
   -8.5646   -4.4521    9.2816 C   0  0  0  0  0  0  0  0  0  0  0  0
   -7.4715   -4.5317   10.3372 C   0  0  2  0  0  0  0  0  0  0  0  0
   -4.7714   -0.0653    9.7429 N   0  0  0  0  0  0  0  0  0  0  0  0
   -6.0038   -0.2725   10.2800 C   0  0  1  0  0  0  0  0  0  0  0  0
   -6.7022    0.7867   10.7535 N   0  0  0  0  0  0  0  0  0  0  0  0
   -6.5518   -1.5164   10.3482 N   0  0  0  0  0  0  0  0  0  0  0  0
   -5.8937   -2.6136    9.8850 C   0  0  2  0  0  0  0  0  0  0  0  0
   -4.6369   -2.4633    9.3274 C   0  0  1  0  0  0  0  0  0  0  0  0
   -4.0495   -1.1009    9.2607 C   0  0  0  0  0  0  0  0  0  0  0  0
   -2.9132   -0.9147    8.7706 O   0  0  0  0  0  0  0  0  0  0  0  0
   -4.2040   -3.6810    8.9571 N   0  0  0  0  0  0  0  0  0  0  0  0
   -5.1748   -4.5702    9.2720 C   0  0  0  0  0  0  0  0  0  0  0  0
   -6.2062   -3.9171    9.8377 N   0  0  1  0  0  0  0  0  0  0  0  0
  1  2  1  0  0  0  0
  3  1  1  6  0  0  0
  3  4  1  0  0  0  0
  3  5  1  0  0  0  0
  5  6  1  1  0  0  0
  5  7  1  0  0  0  0
  7  8  1  0  0  0  0
  8  4  1  6  0  0  0
  8 19  1  0  0  0  0
  9 15  1  0  0  0  0
  9 10  1  0  0  0  0
 10 11  1  6  0  0  0
 10 12  1  0  0  0  0
 13 12  1  6  0  0  0
 13 14  1  0  0  0  0
 13 19  1  0  0  0  0
 14 15  1  1  0  0  0
 14 17  1  0  0  0  0
 15 16  2  0  0  0  0
 17 18  1  0  0  0  0
 19 18  1  1  0  0  0
M  END
>  <CHROM.1>
62.32418894,-156.65244892,-6.42986389,-3.80391381,9.64462991,-2.04749310
0.11057651,0.08773255

>  <Name>
ligand

>  <RI>
0

>  <Rbt.Current_Directory>
/home/itssahil/PROJECTS/Mol_Feturizer/New_Systems/rnas/3SKI

>  <Rbt.Executable>
rbdock ($Id: //depot/dev/client3/rdock/2013.1/src/exe/rbdock.cxx#4 $)

>  <Rbt.Library>
libRbt.so (2013.1, Build901 2013/11/27)

>  <Rbt.Parameter_File>
/export/apps/rDock/src/rDock_2013.1_src/data/scripts/dock_solv.prm

>  <Rbt.Receptor>
prm/pocket_docking_5.prm

>  <SCORE>
-17.5734

>  <SCORE.INTER>
-14.4111

>  <SCORE.INTER.CONST>
1

>  <SCORE.INTER.POLAR>
0

>  <SCORE.INTER.ROT>
2

>  <SCORE.INTER.SOLV>
18.0827

>  <SCORE.INTER.VDW>
-20.5683

>  <SCORE.INTER.norm>
-0.75848

>  <SCORE.INTRA>
-3.1623

>  <SCORE.INTRA.DIHEDRAL>
-5.02786

>  <SCORE.INTRA.DIHEDRAL.0>
6.26853

>  <SCORE.INTRA.POLAR>
0

>  <SCORE.INTRA.POLAR.0>
0

>  <SCORE.INTRA.REPUL>
0

>  <SCORE.INTRA.REPUL.0>
0

>  <SCORE.INTRA.SOLV>
-0.243661

>  <SCORE.INTRA.SOLV.lig_0>
-38.4926

>  <SCORE.INTRA.VDW>
-0.526537

>  <SCORE.INTRA.VDW.0>
-0.59057

>  <SCORE.INTRA.norm>
-0.166437

>  <SCORE.RESTR>
0

>  <SCORE.RESTR.CAVITY>
0

>  <SCORE.RESTR.norm>
0

>  <SCORE.SYSTEM>
0

>  <SCORE.SYSTEM.CONST>
0

>  <SCORE.SYSTEM.DIHEDRAL>
0

>  <SCORE.SYSTEM.SOLV>
0

>  <SCORE.SYSTEM.norm>
0

>  <SCORE.heavy>
19

>  <SCORE.norm>
-0.924917

>  <RMSD>
1.397

$$$$
ligand
 OpenBabel11021811483D
libRbt.so/2013.1/901 2013/11/27
 19 21  0  0  0  0  0  0  0  0999 V2000
   -7.2980   -7.8882    9.1267 C   0  0  0  0  0  0  0  0  0  0  0  0
   -6.6525   -8.6905   10.1265 O   0  0  0  0  0  0  0  0  0  0  0  0
   -8.1278   -6.7830    9.7839 C   0  0  1  0  0  0  0  0  0  0  0  0
   -7.2932   -5.9319   10.5927 O   0  0  0  0  0  0  0  0  0  0  0  0
   -8.7874   -5.9005    8.7388 C   0  0  1  0  0  0  0  0  0  0  0  0
  -10.1840   -6.1977    8.6179 O   0  0  0  0  0  0  0  0  0  0  0  0
   -8.5875   -4.4783    9.2155 C   0  0  0  0  0  0  0  0  0  0  0  0
   -7.5124   -4.5462   10.2903 C   0  0  2  0  0  0  0  0  0  0  0  0
   -4.7882   -0.0848    9.7733 N   0  0  0  0  0  0  0  0  0  0  0  0
   -6.0254   -0.2933   10.2988 C   0  0  1  0  0  0  0  0  0  0  0  0
   -6.7224    0.7629   10.7810 N   0  0  0  0  0  0  0  0  0  0  0  0
   -6.5794   -1.5355   10.3470 N   0  0  0  0  0  0  0  0  0  0  0  0
   -5.9229   -2.6296    9.8743 C   0  0  2  0  0  0  0  0  0  0  0  0
   -4.6614   -2.4778    9.3278 C   0  0  1  0  0  0  0  0  0  0  0  0
   -4.0674   -1.1174    9.2830 C   0  0  0  0  0  0  0  0  0  0  0  0
   -2.9268   -0.9300    8.8035 O   0  0  0  0  0  0  0  0  0  0  0  0
   -4.2313   -3.6926    8.9448 N   0  0  0  0  0  0  0  0  0  0  0  0
   -5.2082   -4.5814    9.2412 C   0  0  0  0  0  0  0  0  0  0  0  0
   -6.2408   -3.9309    9.8079 N   0  0  1  0  0  0  0  0  0  0  0  0
  1  2  1  0  0  0  0
  3  1  1  6  0  0  0
  3  4  1  0  0  0  0
  3  5  1  0  0  0  0
  5  6  1  1  0  0  0
  5  7  1  0  0  0  0
  7  8  1  0  0  0  0
  8  4  1  6  0  0  0
  8 19  1  0  0  0  0
  9 15  1  0  0  0  0
  9 10  1  0  0  0  0
 10 11  1  6  0  0  0
 10 12  1  0  0  0  0
 13 12  1  6  0  0  0
 13 14  1  0  0  0  0
 13 19  1  0  0  0  0
 14 15  1  1  0  0  0
 14 17  1  0  0  0  0
 15 16  2  0  0  0  0
 17 18  1  0  0  0  0
 19 18  1  1  0  0  0
M  END
>  <CHROM.1>
59.52390754,-155.27304354,-6.44993988,-3.82038785,9.62853059,-2.04678759
0.09988499,0.09273295

>  <Name>
ligand

>  <RI>
0

>  <Rbt.Current_Directory>
/home/itssahil/PROJECTS/Mol_Feturizer/New_Systems/rnas/3SKI

>  <Rbt.Executable>
rbdock ($Id: //depot/dev/client3/rdock/2013.1/src/exe/rbdock.cxx#4 $)

>  <Rbt.Library>
libRbt.so (2013.1, Build901 2013/11/27)

>  <Rbt.Parameter_File>
/export/apps/rDock/src/rDock_2013.1_src/data/scripts/dock_solv.prm

>  <Rbt.Receptor>
prm/pocket_docking_3.prm

>  <SCORE>
-17.5436

>  <SCORE.INTER>
-14.392

>  <SCORE.INTER.CONST>
1

>  <SCORE.INTER.POLAR>
0

>  <SCORE.INTER.ROT>
2

>  <SCORE.INTER.SOLV>
18.1229

>  <SCORE.INTER.VDW>
-20.569

>  <SCORE.INTER.norm>
-0.757475

>  <SCORE.INTRA>
-3.15161

>  <SCORE.INTRA.DIHEDRAL>
-5.0471

>  <SCORE.INTRA.DIHEDRAL.0>
6.26853

>  <SCORE.INTRA.POLAR>
0

>  <SCORE.INTRA.POLAR.0>
0

>  <SCORE.INTRA.REPUL>
0

>  <SCORE.INTRA.REPUL.0>
0

>  <SCORE.INTRA.SOLV>
-0.232822

>  <SCORE.INTRA.SOLV.lig_0>
-38.4926

>  <SCORE.INTRA.VDW>
-0.511646

>  <SCORE.INTRA.VDW.0>
-0.59057

>  <SCORE.INTRA.norm>
-0.165874

>  <SCORE.RESTR>
0

>  <SCORE.RESTR.CAVITY>
0

>  <SCORE.RESTR.norm>
0

>  <SCORE.SYSTEM>
0

>  <SCORE.SYSTEM.CONST>
0

>  <SCORE.SYSTEM.DIHEDRAL>
0

>  <SCORE.SYSTEM.SOLV>
0

>  <SCORE.SYSTEM.norm>
0

>  <SCORE.heavy>
19

>  <SCORE.norm>
-0.92335

>  <RMSD>
1.402

$$$$
ligand
 OpenBabel11021811483D
libRbt.so/2013.1/901 2013/11/27
 19 21  0  0  0  0  0  0  0  0999 V2000
   -7.3149   -7.8998    9.1154 C   0  0  0  0  0  0  0  0  0  0  0  0
   -6.6787   -8.7224   10.1047 O   0  0  0  0  0  0  0  0  0  0  0  0
   -8.1416   -6.8010    9.7870 C   0  0  1  0  0  0  0  0  0  0  0  0
   -7.3032   -5.9574   10.5996 O   0  0  0  0  0  0  0  0  0  0  0  0
   -8.8065   -5.9090    8.7535 C   0  0  1  0  0  0  0  0  0  0  0  0
  -10.2037   -6.2054    8.6367 O   0  0  0  0  0  0  0  0  0  0  0  0
   -8.6046   -4.4913    9.2426 C   0  0  0  0  0  0  0  0  0  0  0  0
   -7.5242   -4.5690   10.3114 C   0  0  2  0  0  0  0  0  0  0  0  0
   -4.8182   -0.0969    9.7911 N   0  0  0  0  0  0  0  0  0  0  0  0
   -6.0545   -0.3101   10.3169 C   0  0  1  0  0  0  0  0  0  0  0  0
   -6.7558    0.7436   10.7984 N   0  0  0  0  0  0  0  0  0  0  0  0
   -6.6034   -1.5544   10.3659 N   0  0  0  0  0  0  0  0  0  0  0  0
   -5.9425   -2.6462    9.8940 C   0  0  2  0  0  0  0  0  0  0  0  0
   -4.6817   -2.4897    9.3473 C   0  0  1  0  0  0  0  0  0  0  0  0
   -4.0933   -1.1268    9.3015 C   0  0  0  0  0  0  0  0  0  0  0  0
   -2.9534   -0.9351    8.8218 O   0  0  0  0  0  0  0  0  0  0  0  0
   -4.2466   -3.7030    8.9651 N   0  0  0  0  0  0  0  0  0  0  0  0
   -5.2200   -4.5955    9.2621 C   0  0  0  0  0  0  0  0  0  0  0  0
   -6.2551   -3.9489    9.8284 N   0  0  1  0  0  0  0  0  0  0  0  0
  1  2  1  0  0  0  0
  3  1  1  6  0  0  0
  3  4  1  0  0  0  0
  3  5  1  0  0  0  0
  5  6  1  1  0  0  0
  5  7  1  0  0  0  0
  7  8  1  0  0  0  0
  8  4  1  6  0  0  0
  8 19  1  0  0  0  0
  9 15  1  0  0  0  0
  9 10  1  0  0  0  0
 10 11  1  6  0  0  0
 10 12  1  0  0  0  0
 13 12  1  6  0  0  0
 13 14  1  0  0  0  0
 13 19  1  0  0  0  0
 14 15  1  1  0  0  0
 14 17  1  0  0  0  0
 15 16  2  0  0  0  0
 17 18  1  0  0  0  0
 19 18  1  1  0  0  0
M  END
>  <CHROM.1>
60.29936013,-155.95094869,-6.47024068,-3.83584572,9.64223959,-2.04488715
0.10157662,0.09566189

>  <Name>
ligand

>  <RI>
0

>  <Rbt.Current_Directory>
/home/itssahil/PROJECTS/Mol_Feturizer/New_Systems/rnas/3SKI

>  <Rbt.Executable>
rbdock ($Id: //depot/dev/client3/rdock/2013.1/src/exe/rbdock.cxx#4 $)

>  <Rbt.Library>
libRbt.so (2013.1, Build901 2013/11/27)

>  <Rbt.Parameter_File>
/export/apps/rDock/src/rDock_2013.1_src/data/scripts/dock_solv.prm

>  <Rbt.Receptor>
prm/pocket_docking_4.prm

>  <SCORE>
-17.5152

>  <SCORE.INTER>
-14.3645

>  <SCORE.INTER.CONST>
1

>  <SCORE.INTER.POLAR>
0

>  <SCORE.INTER.ROT>
2

>  <SCORE.INTER.SOLV>
18.1617

>  <SCORE.INTER.VDW>
-20.5636

>  <SCORE.INTER.norm>
-0.756026

>  <SCORE.INTRA>
-3.15074

>  <SCORE.INTRA.DIHEDRAL>
-5.04752

>  <SCORE.INTRA.DIHEDRAL.0>
6.26853

>  <SCORE.INTRA.POLAR>
0

>  <SCORE.INTRA.POLAR.0>
0

>  <SCORE.INTRA.REPUL>
0

>  <SCORE.INTRA.REPUL.0>
0

>  <SCORE.INTRA.SOLV>
-0.2359

>  <SCORE.INTRA.SOLV.lig_0>
-38.4926

>  <SCORE.INTRA.VDW>
-0.509023

>  <SCORE.INTRA.VDW.0>
-0.59057

>  <SCORE.INTRA.norm>
-0.165828

>  <SCORE.RESTR>
0

>  <SCORE.RESTR.CAVITY>
0

>  <SCORE.RESTR.norm>
0

>  <SCORE.SYSTEM>
0

>  <SCORE.SYSTEM.CONST>
0

>  <SCORE.SYSTEM.DIHEDRAL>
0

>  <SCORE.SYSTEM.SOLV>
0

>  <SCORE.SYSTEM.norm>
0

>  <SCORE.heavy>
19

>  <SCORE.norm>
-0.921854

>  <RMSD>
1.410

$$$$
ligand
 OpenBabel11021811483D
libRbt.so/2013.1/901 2013/11/27
 19 21  0  0  0  0  0  0  0  0999 V2000
   -7.4028   -7.8939    9.1336 C   0  0  0  0  0  0  0  0  0  0  0  0
   -6.7460   -8.7166   10.1093 O   0  0  0  0  0  0  0  0  0  0  0  0
   -8.1997   -6.7835    9.8220 C   0  0  1  0  0  0  0  0  0  0  0  0
   -7.3326   -5.9514   10.6162 O   0  0  0  0  0  0  0  0  0  0  0  0
   -8.8739   -5.8826    8.8023 C   0  0  1  0  0  0  0  0  0  0  0  0
  -10.2773   -6.1595    8.7154 O   0  0  0  0  0  0  0  0  0  0  0  0
   -8.6420   -4.4677    9.2862 C   0  0  0  0  0  0  0  0  0  0  0  0
   -7.5403   -4.5601   10.3318 C   0  0  2  0  0  0  0  0  0  0  0  0
   -4.7963   -0.1221    9.7260 N   0  0  0  0  0  0  0  0  0  0  0  0
   -6.0255   -0.3175   10.2748 C   0  0  1  0  0  0  0  0  0  0  0  0
   -6.7070    0.7478   10.7591 N   0  0  0  0  0  0  0  0  0  0  0  0
   -6.5867   -1.5553   10.3442 N   0  0  0  0  0  0  0  0  0  0  0  0
   -5.9457   -2.6581    9.8705 C   0  0  2  0  0  0  0  0  0  0  0  0
   -4.6929   -2.5200    9.3008 C   0  0  1  0  0  0  0  0  0  0  0  0
   -4.0909   -1.1640    9.2330 C   0  0  0  0  0  0  0  0  0  0  0  0
   -2.9576   -0.9887    8.7321 O   0  0  0  0  0  0  0  0  0  0  0  0
   -4.2775   -3.7411    8.9219 N   0  0  0  0  0  0  0  0  0  0  0  0
   -5.2550   -4.6205    9.2434 C   0  0  0  0  0  0  0  0  0  0  0  0
   -6.2732   -3.9579    9.8217 N   0  0  1  0  0  0  0  0  0  0  0  0
  1  2  1  0  0  0  0
  3  1  1  6  0  0  0
  3  4  1  0  0  0  0
  3  5  1  0  0  0  0
  5  6  1  1  0  0  0
  5  7  1  0  0  0  0
  7  8  1  0  0  0  0
  8  4  1  6  0  0  0
  8 19  1  0  0  0  0
  9 15  1  0  0  0  0
  9 10  1  0  0  0  0
 10 11  1  6  0  0  0
 10 12  1  0  0  0  0
 13 12  1  6  0  0  0
 13 14  1  0  0  0  0
 13 19  1  0  0  0  0
 14 15  1  1  0  0  0
 14 17  1  0  0  0  0
 15 16  2  0  0  0  0
 17 18  1  0  0  0  0
 19 18  1  1  0  0  0
M  END
>  <CHROM.1>
59.69947380,-156.50434319,-6.49347597,-3.84021664,9.63277756,-2.05901793
0.11828615,0.09158166

>  <Name>
ligand

>  <RI>
0

>  <Rbt.Current_Directory>
/home/itssahil/PROJECTS/Mol_Feturizer/New_Systems/rnas/3SKI

>  <Rbt.Executable>
rbdock ($Id: //depot/dev/client3/rdock/2013.1/src/exe/rbdock.cxx#4 $)

>  <Rbt.Library>
libRbt.so (2013.1, Build901 2013/11/27)

>  <Rbt.Parameter_File>
/export/apps/rDock/src/rDock_2013.1_src/data/scripts/dock_solv.prm

>  <Rbt.Receptor>
prm/pocket_docking_4.prm

>  <SCORE>
-17.4976

>  <SCORE.INTER>
-14.3514

>  <SCORE.INTER.CONST>
1

>  <SCORE.INTER.POLAR>
0

>  <SCORE.INTER.ROT>
2

>  <SCORE.INTER.SOLV>
17.9702

>  <SCORE.INTER.VDW>
-20.491

>  <SCORE.INTER.norm>
-0.755336

>  <SCORE.INTRA>
-3.14626

>  <SCORE.INTRA.DIHEDRAL>
-5.04792

>  <SCORE.INTRA.DIHEDRAL.0>
6.26853

>  <SCORE.INTRA.POLAR>
0

>  <SCORE.INTRA.POLAR.0>
0

>  <SCORE.INTRA.REPUL>
0

>  <SCORE.INTRA.REPUL.0>
0

>  <SCORE.INTRA.SOLV>
-0.233749

>  <SCORE.INTRA.SOLV.lig_0>
-38.4926

>  <SCORE.INTRA.VDW>
-0.505423

>  <SCORE.INTRA.VDW.0>
-0.59057

>  <SCORE.INTRA.norm>
-0.165592

>  <SCORE.RESTR>
0

>  <SCORE.RESTR.CAVITY>
0

>  <SCORE.RESTR.norm>
0

>  <SCORE.SYSTEM>
0

>  <SCORE.SYSTEM.CONST>
0

>  <SCORE.SYSTEM.DIHEDRAL>
0

>  <SCORE.SYSTEM.SOLV>
0

>  <SCORE.SYSTEM.norm>
0

>  <SCORE.heavy>
19

>  <SCORE.norm>
-0.920928

>  <RMSD>
1.417

$$$$
ligand
 OpenBabel11021811483D
libRbt.so/2013.1/901 2013/11/27
 19 21  0  0  0  0  0  0  0  0999 V2000
   -7.2840   -7.8660    9.0808 C   0  0  0  0  0  0  0  0  0  0  0  0
   -6.6728   -8.7303   10.0501 O   0  0  0  0  0  0  0  0  0  0  0  0
   -8.0997   -6.7752    9.7783 C   0  0  1  0  0  0  0  0  0  0  0  0
   -7.2489   -5.9432   10.5901 O   0  0  0  0  0  0  0  0  0  0  0  0
   -8.7779   -5.8689    8.7660 C   0  0  1  0  0  0  0  0  0  0  0  0
  -10.1770   -6.1622    8.6650 O   0  0  0  0  0  0  0  0  0  0  0  0
   -8.5673   -4.4579    9.2708 C   0  0  0  0  0  0  0  0  0  0  0  0
   -7.4722   -4.5509   10.3232 C   0  0  2  0  0  0  0  0  0  0  0  0
   -4.8007   -0.0640    9.7538 N   0  0  0  0  0  0  0  0  0  0  0  0
   -6.0338   -0.2815   10.2853 C   0  0  1  0  0  0  0  0  0  0  0  0
   -6.7413    0.7714   10.7594 N   0  0  0  0  0  0  0  0  0  0  0  0
   -6.5734   -1.5293   10.3474 N   0  0  0  0  0  0  0  0  0  0  0  0
   -5.9059   -2.6205    9.8834 C   0  0  2  0  0  0  0  0  0  0  0  0
   -4.6479   -2.4597    9.3313 C   0  0  1  0  0  0  0  0  0  0  0  0
   -4.0697   -1.0931    9.2713 C   0  0  0  0  0  0  0  0  0  0  0  0
   -2.9327   -0.8975    8.7864 O   0  0  0  0  0  0  0  0  0  0  0  0
   -4.2051   -3.6732    8.9589 N   0  0  0  0  0  0  0  0  0  0  0  0
   -5.1710   -4.5701    9.2671 C   0  0  0  0  0  0  0  0  0  0  0  0
   -6.2091   -3.9259    9.8307 N   0  0  1  0  0  0  0  0  0  0  0  0
  1  2  1  0  0  0  0
  3  1  1  6  0  0  0
  3  4  1  0  0  0  0
  3  5  1  0  0  0  0
  5  6  1  1  0  0  0
  5  7  1  0  0  0  0
  7  8  1  0  0  0  0
  8  4  1  6  0  0  0
  8 19  1  0  0  0  0
  9 15  1  0  0  0  0
  9 10  1  0  0  0  0
 10 11  1  6  0  0  0
 10 12  1  0  0  0  0
 13 12  1  6  0  0  0
 13 14  1  0  0  0  0
 13 19  1  0  0  0  0
 14 15  1  1  0  0  0
 14 17  1  0  0  0  0
 15 16  2  0  0  0  0
 17 18  1  0  0  0  0
 19 18  1  1  0  0  0
M  END
>  <CHROM.1>
62.30066511,-157.45290402,-6.43831648,-3.80868406,9.62917609,-2.04282023
0.10833058,0.09480309

>  <Name>
ligand

>  <RI>
0

>  <Rbt.Current_Directory>
/home/itssahil/PROJECTS/Mol_Feturizer/New_Systems/rnas/3SKI

>  <Rbt.Executable>
rbdock ($Id: //depot/dev/client3/rdock/2013.1/src/exe/rbdock.cxx#4 $)

>  <Rbt.Library>
libRbt.so (2013.1, Build901 2013/11/27)

>  <Rbt.Parameter_File>
/export/apps/rDock/src/rDock_2013.1_src/data/scripts/dock_solv.prm

>  <Rbt.Receptor>
prm/pocket_docking_5.prm

>  <SCORE>
-17.5465

>  <SCORE.INTER>
-14.3883

>  <SCORE.INTER.CONST>
1

>  <SCORE.INTER.POLAR>
0

>  <SCORE.INTER.ROT>
2

>  <SCORE.INTER.SOLV>
18.2484

>  <SCORE.INTER.VDW>
-20.6083

>  <SCORE.INTER.norm>
-0.757277

>  <SCORE.INTRA>
-3.15822

>  <SCORE.INTRA.DIHEDRAL>
-5.02855

>  <SCORE.INTRA.DIHEDRAL.0>
6.26853

>  <SCORE.INTRA.POLAR>
0

>  <SCORE.INTRA.POLAR.0>
0

>  <SCORE.INTRA.REPUL>
0

>  <SCORE.INTRA.REPUL.0>
0

>  <SCORE.INTRA.SOLV>
-0.24375

>  <SCORE.INTRA.SOLV.lig_0>
-38.4926

>  <SCORE.INTRA.VDW>
-0.522074

>  <SCORE.INTRA.VDW.0>
-0.59057

>  <SCORE.INTRA.norm>
-0.166222

>  <SCORE.RESTR>
0

>  <SCORE.RESTR.CAVITY>
0

>  <SCORE.RESTR.norm>
0

>  <SCORE.SYSTEM>
0

>  <SCORE.SYSTEM.CONST>
0

>  <SCORE.SYSTEM.DIHEDRAL>
0

>  <SCORE.SYSTEM.SOLV>
0

>  <SCORE.SYSTEM.norm>
0

>  <SCORE.heavy>
19

>  <SCORE.norm>
-0.9235

>  <RMSD>
1.420

$$$$
ligand
 OpenBabel11021811483D
libRbt.so/2013.1/901 2013/11/27
 19 21  0  0  0  0  0  0  0  0999 V2000
   -7.4419   -7.8897    9.1314 C   0  0  0  0  0  0  0  0  0  0  0  0
   -6.7651   -8.7022   10.1020 O   0  0  0  0  0  0  0  0  0  0  0  0
   -8.2323   -6.7778    9.8248 C   0  0  1  0  0  0  0  0  0  0  0  0
   -7.3585   -5.9471   10.6131 O   0  0  0  0  0  0  0  0  0  0  0  0
   -8.9116   -5.8759    8.8094 C   0  0  1  0  0  0  0  0  0  0  0  0
  -10.3160   -6.1504    8.7317 O   0  0  0  0  0  0  0  0  0  0  0  0
   -8.6740   -4.4613    9.2914 C   0  0  0  0  0  0  0  0  0  0  0  0
   -7.5657   -4.5555   10.3298 C   0  0  2  0  0  0  0  0  0  0  0  0
   -4.8108   -0.1247    9.7197 N   0  0  0  0  0  0  0  0  0  0  0  0
   -6.0359   -0.3181   10.2784 C   0  0  1  0  0  0  0  0  0  0  0  0
   -6.7093    0.7475   10.7735 N   0  0  0  0  0  0  0  0  0  0  0  0
   -6.6010   -1.5542   10.3472 N   0  0  0  0  0  0  0  0  0  0  0  0
   -5.9682   -2.6572    9.8630 C   0  0  2  0  0  0  0  0  0  0  0  0
   -4.7199   -2.5210    9.2829 C   0  0  1  0  0  0  0  0  0  0  0  0
   -4.1136   -1.1669    9.2159 C   0  0  0  0  0  0  0  0  0  0  0  0
   -2.9841   -0.9935    8.7058 O   0  0  0  0  0  0  0  0  0  0  0  0
   -4.3124   -3.7419    8.8948 N   0  0  0  0  0  0  0  0  0  0  0  0
   -5.2902   -4.6192    9.2210 C   0  0  0  0  0  0  0  0  0  0  0  0
   -6.3009   -3.9556    9.8113 N   0  0  1  0  0  0  0  0  0  0  0  0
  1  2  1  0  0  0  0
  3  1  1  6  0  0  0
  3  4  1  0  0  0  0
  3  5  1  0  0  0  0
  5  6  1  1  0  0  0
  5  7  1  0  0  0  0
  7  8  1  0  0  0  0
  8  4  1  6  0  0  0
  8 19  1  0  0  0  0
  9 15  1  0  0  0  0
  9 10  1  0  0  0  0
 10 11  1  6  0  0  0
 10 12  1  0  0  0  0
 13 12  1  6  0  0  0
 13 14  1  0  0  0  0
 13 19  1  0  0  0  0
 14 15  1  1  0  0  0
 14 17  1  0  0  0  0
 15 16  2  0  0  0  0
 17 18  1  0  0  0  0
 19 18  1  1  0  0  0
M  END
>  <CHROM.1>
58.90300097,-156.18859942,-6.51925158,-3.83752339,9.62782866,-2.06241611
0.12597271,0.09471030

>  <Name>
ligand

>  <RI>
0

>  <Rbt.Current_Directory>
/home/itssahil/PROJECTS/Mol_Feturizer/New_Systems/rnas/3SKI

>  <Rbt.Executable>
rbdock ($Id: //depot/dev/client3/rdock/2013.1/src/exe/rbdock.cxx#4 $)

>  <Rbt.Library>
libRbt.so (2013.1, Build901 2013/11/27)

>  <Rbt.Parameter_File>
/export/apps/rDock/src/rDock_2013.1_src/data/scripts/dock_solv.prm

>  <Rbt.Receptor>
prm/blind_docking_20.prm

>  <SCORE>
-17.5042

>  <SCORE.INTER>
-14.3606

>  <SCORE.INTER.CONST>
1

>  <SCORE.INTER.POLAR>
0

>  <SCORE.INTER.ROT>
2

>  <SCORE.INTER.SOLV>
17.9855

>  <SCORE.INTER.VDW>
-20.5023

>  <SCORE.INTER.norm>
-0.755824

>  <SCORE.INTRA>
-3.14351

>  <SCORE.INTRA.DIHEDRAL>
-5.04407

>  <SCORE.INTRA.DIHEDRAL.0>
6.26853

>  <SCORE.INTRA.POLAR>
0

>  <SCORE.INTRA.POLAR.0>
0

>  <SCORE.INTRA.REPUL>
0

>  <SCORE.INTRA.REPUL.0>
0

>  <SCORE.INTRA.SOLV>
-0.230657

>  <SCORE.INTRA.SOLV.lig_0>
-38.4926

>  <SCORE.INTRA.VDW>
-0.506141

>  <SCORE.INTRA.VDW.0>
-0.59057

>  <SCORE.INTRA.norm>
-0.165448

>  <SCORE.RESTR>
0

>  <SCORE.RESTR.CAVITY>
0

>  <SCORE.RESTR.norm>
0

>  <SCORE.SYSTEM>
0

>  <SCORE.SYSTEM.CONST>
0

>  <SCORE.SYSTEM.DIHEDRAL>
0

>  <SCORE.SYSTEM.SOLV>
0

>  <SCORE.SYSTEM.norm>
0

>  <SCORE.heavy>
19

>  <SCORE.norm>
-0.921271

>  <RMSD>
1.424

$$$$
ligand
 OpenBabel11021811483D
libRbt.so/2013.1/901 2013/11/27
 19 21  0  0  0  0  0  0  0  0999 V2000
   -7.3645   -7.9048    9.0588 C   0  0  0  0  0  0  0  0  0  0  0  0
   -6.7722   -8.7863   10.0244 O   0  0  0  0  0  0  0  0  0  0  0  0
   -8.1658   -6.8062    9.7606 C   0  0  1  0  0  0  0  0  0  0  0  0
   -7.3050   -5.9920   10.5798 O   0  0  0  0  0  0  0  0  0  0  0  0
   -8.8275   -5.8838    8.7520 C   0  0  1  0  0  0  0  0  0  0  0  0
  -10.2305   -6.1554    8.6454 O   0  0  0  0  0  0  0  0  0  0  0  0
   -8.5973   -4.4792    9.2659 C   0  0  0  0  0  0  0  0  0  0  0  0
   -7.5066   -4.5949   10.3207 C   0  0  2  0  0  0  0  0  0  0  0  0
   -4.8288   -0.1263    9.6464 N   0  0  0  0  0  0  0  0  0  0  0  0
   -6.0741   -0.3265   10.1559 C   0  0  1  0  0  0  0  0  0  0  0  0
   -6.7944    0.7419   10.5727 N   0  0  0  0  0  0  0  0  0  0  0  0
   -6.6131   -1.5724   10.2522 N   0  0  0  0  0  0  0  0  0  0  0  0
   -5.9330   -2.6787    9.8460 C   0  0  2  0  0  0  0  0  0  0  0  0
   -4.6623   -2.5359    9.3187 C   0  0  1  0  0  0  0  0  0  0  0  0
   -4.0849   -1.1711    9.2210 C   0  0  0  0  0  0  0  0  0  0  0  0
   -2.9368   -0.9912    8.7565 O   0  0  0  0  0  0  0  0  0  0  0  0
   -4.2089   -3.7615    9.0032 N   0  0  0  0  0  0  0  0  0  0  0  0
   -5.1805   -4.6485    9.3218 C   0  0  0  0  0  0  0  0  0  0  0  0
   -6.2330   -3.9859    9.8354 N   0  0  1  0  0  0  0  0  0  0  0  0
  1  2  1  0  0  0  0
  3  1  1  6  0  0  0
  3  4  1  0  0  0  0
  3  5  1  0  0  0  0
  5  6  1  1  0  0  0
  5  7  1  0  0  0  0
  7  8  1  0  0  0  0
  8  4  1  6  0  0  0
  8 19  1  0  0  0  0
  9 15  1  0  0  0  0
  9 10  1  0  0  0  0
 10 11  1  6  0  0  0
 10 12  1  0  0  0  0
 13 12  1  6  0  0  0
 13 14  1  0  0  0  0
 13 19  1  0  0  0  0
 14 15  1  1  0  0  0
 14 17  1  0  0  0  0
 15 16  2  0  0  0  0
 17 18  1  0  0  0  0
 19 18  1  1  0  0  0
M  END
>  <CHROM.1>
62.46623359,-160.41172255,-6.47765849,-3.85876632,9.59449018,-2.04867181
0.08887210,0.07392109

>  <Name>
ligand

>  <RI>
0

>  <Rbt.Current_Directory>
/home/itssahil/PROJECTS/Mol_Feturizer/New_Systems/rnas/3SKI

>  <Rbt.Executable>
rbdock ($Id: //depot/dev/client3/rdock/2013.1/src/exe/rbdock.cxx#4 $)

>  <Rbt.Library>
libRbt.so (2013.1, Build901 2013/11/27)

>  <Rbt.Parameter_File>
/export/apps/rDock/src/rDock_2013.1_src/data/scripts/dock_solv.prm

>  <Rbt.Receptor>
prm/pocket_docking_3.prm

>  <SCORE>
-17.5615

>  <SCORE.INTER>
-14.4211

>  <SCORE.INTER.CONST>
1

>  <SCORE.INTER.POLAR>
0

>  <SCORE.INTER.ROT>
2

>  <SCORE.INTER.SOLV>
18.0381

>  <SCORE.INTER.VDW>
-20.5601

>  <SCORE.INTER.norm>
-0.759008

>  <SCORE.INTRA>
-3.14036

>  <SCORE.INTRA.DIHEDRAL>
-5.02699

>  <SCORE.INTRA.DIHEDRAL.0>
6.26853

>  <SCORE.INTRA.POLAR>
0

>  <SCORE.INTRA.POLAR.0>
0

>  <SCORE.INTRA.REPUL>
0

>  <SCORE.INTRA.REPUL.0>
0

>  <SCORE.INTRA.SOLV>
-0.245065

>  <SCORE.INTRA.SOLV.lig_0>
-38.4926

>  <SCORE.INTRA.VDW>
-0.504331

>  <SCORE.INTRA.VDW.0>
-0.59057

>  <SCORE.INTRA.norm>
-0.165282

>  <SCORE.RESTR>
0

>  <SCORE.RESTR.CAVITY>
0

>  <SCORE.RESTR.norm>
0

>  <SCORE.SYSTEM>
0

>  <SCORE.SYSTEM.CONST>
0

>  <SCORE.SYSTEM.DIHEDRAL>
0

>  <SCORE.SYSTEM.SOLV>
0

>  <SCORE.SYSTEM.norm>
0

>  <SCORE.heavy>
19

>  <SCORE.norm>
-0.92429

>  <RMSD>
1.442

$$$$
ligand
 OpenBabel11021811483D
libRbt.so/2013.1/901 2013/11/27
 19 21  0  0  0  0  0  0  0  0999 V2000
   -7.4691   -7.8846    9.1195 C   0  0  0  0  0  0  0  0  0  0  0  0
   -6.9095   -8.7631   10.1072 O   0  0  0  0  0  0  0  0  0  0  0  0
   -8.2705   -6.7678    9.7921 C   0  0  1  0  0  0  0  0  0  0  0  0
   -7.4120   -5.9404   10.6004 O   0  0  0  0  0  0  0  0  0  0  0  0
   -8.9203   -5.8639    8.7593 C   0  0  1  0  0  0  0  0  0  0  0  0
  -10.3237   -6.1314    8.6479 O   0  0  0  0  0  0  0  0  0  0  0  0
   -8.6873   -4.4498    9.2453 C   0  0  0  0  0  0  0  0  0  0  0  0
   -7.6051   -4.5482   10.3105 C   0  0  2  0  0  0  0  0  0  0  0  0
   -4.8201   -0.1300    9.7481 N   0  0  0  0  0  0  0  0  0  0  0  0
   -6.0601   -0.3162   10.2753 C   0  0  1  0  0  0  0  0  0  0  0  0
   -6.7428    0.7544   10.7463 N   0  0  0  0  0  0  0  0  0  0  0  0
   -6.6310   -1.5500   10.3362 N   0  0  0  0  0  0  0  0  0  0  0  0
   -5.9894   -2.6579    9.8752 C   0  0  2  0  0  0  0  0  0  0  0  0
   -4.7258   -2.5291    9.3276 C   0  0  1  0  0  0  0  0  0  0  0  0
   -4.1134   -1.1774    9.2689 C   0  0  0  0  0  0  0  0  0  0  0  0
   -2.9702   -1.0106    8.7879 O   0  0  0  0  0  0  0  0  0  0  0  0
   -4.3123   -3.7535    8.9574 N   0  0  0  0  0  0  0  0  0  0  0  0
   -5.3014   -4.6257    9.2627 C   0  0  0  0  0  0  0  0  0  0  0  0
   -6.3251   -3.9554    9.8222 N   0  0  1  0  0  0  0  0  0  0  0  0
  1  2  1  0  0  0  0
  3  1  1  6  0  0  0
  3  4  1  0  0  0  0
  3  5  1  0  0  0  0
  5  6  1  1  0  0  0
  5  7  1  0  0  0  0
  7  8  1  0  0  0  0
  8  4  1  6  0  0  0
  8 19  1  0  0  0  0
  9 15  1  0  0  0  0
  9 10  1  0  0  0  0
 10 11  1  6  0  0  0
 10 12  1  0  0  0  0
 13 12  1  6  0  0  0
 13 14  1  0  0  0  0
 13 19  1  0  0  0  0
 14 15  1  1  0  0  0
 14 17  1  0  0  0  0
 15 16  2  0  0  0  0
 17 18  1  0  0  0  0
 19 18  1  1  0  0  0
M  END
>  <CHROM.1>
63.57534064,-156.48935118,-6.54553536,-3.83977294,9.62930488,-2.06452576
0.10172865,0.09130177

>  <Name>
ligand

>  <RI>
0

>  <Rbt.Current_Directory>
/home/itssahil/PROJECTS/Mol_Feturizer/New_Systems/rnas/3SKI

>  <Rbt.Executable>
rbdock ($Id: //depot/dev/client3/rdock/2013.1/src/exe/rbdock.cxx#4 $)

>  <Rbt.Library>
libRbt.so (2013.1, Build901 2013/11/27)

>  <Rbt.Parameter_File>
/export/apps/rDock/src/rDock_2013.1_src/data/scripts/dock_solv.prm

>  <Rbt.Receptor>
prm/pocket_docking_3.prm

>  <SCORE>
-17.4989

>  <SCORE.INTER>
-14.3459

>  <SCORE.INTER.CONST>
1

>  <SCORE.INTER.POLAR>
0

>  <SCORE.INTER.ROT>
2

>  <SCORE.INTER.SOLV>
18.008

>  <SCORE.INTER.VDW>
-20.5

>  <SCORE.INTER.norm>
-0.75505

>  <SCORE.INTRA>
-3.15295

>  <SCORE.INTRA.DIHEDRAL>
-5.00079

>  <SCORE.INTRA.DIHEDRAL.0>
6.26853

>  <SCORE.INTRA.POLAR>
0

>  <SCORE.INTRA.POLAR.0>
0

>  <SCORE.INTRA.REPUL>
0

>  <SCORE.INTRA.REPUL.0>
0

>  <SCORE.INTRA.SOLV>
-0.248284

>  <SCORE.INTRA.SOLV.lig_0>
-38.4926

>  <SCORE.INTRA.VDW>
-0.528419

>  <SCORE.INTRA.VDW.0>
-0.59057

>  <SCORE.INTRA.norm>
-0.165945

>  <SCORE.RESTR>
0

>  <SCORE.RESTR.CAVITY>
0

>  <SCORE.RESTR.norm>
0

>  <SCORE.SYSTEM>
0

>  <SCORE.SYSTEM.CONST>
0

>  <SCORE.SYSTEM.DIHEDRAL>
0

>  <SCORE.SYSTEM.SOLV>
0

>  <SCORE.SYSTEM.norm>
0

>  <SCORE.heavy>
19

>  <SCORE.norm>
-0.920995

>  <RMSD>
1.443

$$$$
ligand
 OpenBabel11021811483D
libRbt.so/2013.1/901 2013/11/27
 19 21  0  0  0  0  0  0  0  0999 V2000
   -7.3697   -7.9177    9.0564 C   0  0  0  0  0  0  0  0  0  0  0  0
   -6.7671   -8.7859   10.0276 O   0  0  0  0  0  0  0  0  0  0  0  0
   -8.1757   -6.8182    9.7514 C   0  0  1  0  0  0  0  0  0  0  0  0
   -7.3166   -5.9880   10.5561 O   0  0  0  0  0  0  0  0  0  0  0  0
   -8.8515   -5.9124    8.7371 C   0  0  1  0  0  0  0  0  0  0  0  0
  -10.2529   -6.1969    8.6425 O   0  0  0  0  0  0  0  0  0  0  0  0
   -8.6298   -4.5004    9.2343 C   0  0  0  0  0  0  0  0  0  0  0  0
   -7.5315   -4.5955   10.2832 C   0  0  2  0  0  0  0  0  0  0  0  0
   -4.8168   -0.1344    9.7158 N   0  0  0  0  0  0  0  0  0  0  0  0
   -6.0475   -0.3417   10.2569 C   0  0  1  0  0  0  0  0  0  0  0  0
   -6.7394    0.7160   10.7432 N   0  0  0  0  0  0  0  0  0  0  0  0
   -6.6000   -1.5839   10.3167 N   0  0  0  0  0  0  0  0  0  0  0  0
   -5.9484   -2.6795    9.8406 C   0  0  2  0  0  0  0  0  0  0  0  0
   -4.6936   -2.5291    9.2784 C   0  0  1  0  0  0  0  0  0  0  0  0
   -4.1012   -1.1685    9.2211 C   0  0  0  0  0  0  0  0  0  0  0  0
   -2.9665   -0.9823    8.7273 O   0  0  0  0  0  0  0  0  0  0  0  0
   -4.2673   -3.7452    8.8952 N   0  0  0  0  0  0  0  0  0  0  0  0
   -5.2400   -4.6334    9.2068 C   0  0  0  0  0  0  0  0  0  0  0  0
   -6.2662   -3.9813    9.7831 N   0  0  1  0  0  0  0  0  0  0  0  0
  1  2  1  0  0  0  0
  3  1  1  6  0  0  0
  3  4  1  0  0  0  0
  3  5  1  0  0  0  0
  5  6  1  1  0  0  0
  5  7  1  0  0  0  0
  7  8  1  0  0  0  0
  8  4  1  6  0  0  0
  8 19  1  0  0  0  0
  9 15  1  0  0  0  0
  9 10  1  0  0  0  0
 10 11  1  6  0  0  0
 10 12  1  0  0  0  0
 13 12  1  6  0  0  0
 13 14  1  0  0  0  0
 13 19  1  0  0  0  0
 14 15  1  1  0  0  0
 14 17  1  0  0  0  0
 15 16  2  0  0  0  0
 17 18  1  0  0  0  0
 19 18  1  1  0  0  0
M  END
>  <CHROM.1>
62.63182777,-156.73572119,-6.49122649,-3.86530495,9.59135006,-2.05212550
0.11517722,0.09766347

>  <Name>
ligand

>  <RI>
0

>  <Rbt.Current_Directory>
/home/itssahil/PROJECTS/Mol_Feturizer/New_Systems/rnas/3SKI

>  <Rbt.Executable>
rbdock ($Id: //depot/dev/client3/rdock/2013.1/src/exe/rbdock.cxx#4 $)

>  <Rbt.Library>
libRbt.so (2013.1, Build901 2013/11/27)

>  <Rbt.Parameter_File>
/export/apps/rDock/src/rDock_2013.1_src/data/scripts/dock_solv.prm

>  <Rbt.Receptor>
prm/pocket_docking_5.prm

>  <SCORE>
-17.5063

>  <SCORE.INTER>
-14.3464

>  <SCORE.INTER.CONST>
1

>  <SCORE.INTER.POLAR>
0

>  <SCORE.INTER.ROT>
2

>  <SCORE.INTER.SOLV>
18.1483

>  <SCORE.INTER.VDW>
-20.547

>  <SCORE.INTER.norm>
-0.755075

>  <SCORE.INTRA>
-3.1599

>  <SCORE.INTRA.DIHEDRAL>
-5.02228

>  <SCORE.INTRA.DIHEDRAL.0>
6.26853

>  <SCORE.INTRA.POLAR>
0

>  <SCORE.INTRA.POLAR.0>
0

>  <SCORE.INTRA.REPUL>
0

>  <SCORE.INTRA.REPUL.0>
0

>  <SCORE.INTRA.SOLV>
-0.244828

>  <SCORE.INTRA.SOLV.lig_0>
-38.4926

>  <SCORE.INTRA.VDW>
-0.526349

>  <SCORE.INTRA.VDW.0>
-0.59057

>  <SCORE.INTRA.norm>
-0.166311

>  <SCORE.RESTR>
0

>  <SCORE.RESTR.CAVITY>
0

>  <SCORE.RESTR.norm>
0

>  <SCORE.SYSTEM>
0

>  <SCORE.SYSTEM.CONST>
0

>  <SCORE.SYSTEM.DIHEDRAL>
0

>  <SCORE.SYSTEM.SOLV>
0

>  <SCORE.SYSTEM.norm>
0

>  <SCORE.heavy>
19

>  <SCORE.norm>
-0.921386

>  <RMSD>
1.446

$$$$
ligand
 OpenBabel11021811483D
libRbt.so/2013.1/901 2013/11/27
 19 21  0  0  0  0  0  0  0  0999 V2000
   -7.4440   -7.9258    9.0822 C   0  0  0  0  0  0  0  0  0  0  0  0
   -6.7971   -8.7582   10.0564 O   0  0  0  0  0  0  0  0  0  0  0  0
   -8.2432   -6.8188    9.7732 C   0  0  1  0  0  0  0  0  0  0  0  0
   -7.3789   -5.9907   10.5746 O   0  0  0  0  0  0  0  0  0  0  0  0
   -8.9137   -5.9128    8.7556 C   0  0  1  0  0  0  0  0  0  0  0  0
  -10.3167   -6.1891    8.6623 O   0  0  0  0  0  0  0  0  0  0  0  0
   -8.6833   -4.5003    9.2473 C   0  0  0  0  0  0  0  0  0  0  0  0
   -7.5854   -4.5981   10.2964 C   0  0  2  0  0  0  0  0  0  0  0  0
   -4.8360   -0.1584    9.7282 N   0  0  0  0  0  0  0  0  0  0  0  0
   -6.0669   -0.3564   10.2722 C   0  0  1  0  0  0  0  0  0  0  0  0
   -6.7489    0.7062   10.7619 N   0  0  0  0  0  0  0  0  0  0  0  0
   -6.6293   -1.5942   10.3317 N   0  0  0  0  0  0  0  0  0  0  0  0
   -5.9879   -2.6944    9.8523 C   0  0  2  0  0  0  0  0  0  0  0  0
   -4.7335   -2.5534    9.2870 C   0  0  1  0  0  0  0  0  0  0  0  0
   -4.1302   -1.1975    9.2300 C   0  0  0  0  0  0  0  0  0  0  0  0
   -2.9953   -1.0198    8.7335 O   0  0  0  0  0  0  0  0  0  0  0  0
   -4.3181   -3.7723    8.9009 N   0  0  0  0  0  0  0  0  0  0  0  0
   -5.2972   -4.6530    9.2138 C   0  0  0  0  0  0  0  0  0  0  0  0
   -6.3165   -3.9935    9.7939 N   0  0  1  0  0  0  0  0  0  0  0  0
  1  2  1  0  0  0  0
  3  1  1  6  0  0  0
  3  4  1  0  0  0  0
  3  5  1  0  0  0  0
  5  6  1  1  0  0  0
  5  7  1  0  0  0  0
  7  8  1  0  0  0  0
  8  4  1  6  0  0  0
  8 19  1  0  0  0  0
  9 15  1  0  0  0  0
  9 10  1  0  0  0  0
 10 11  1  6  0  0  0
 10 12  1  0  0  0  0
 13 12  1  6  0  0  0
 13 14  1  0  0  0  0
 13 19  1  0  0  0  0
 14 15  1  1  0  0  0
 14 17  1  0  0  0  0
 15 16  2  0  0  0  0
 17 18  1  0  0  0  0
 19 18  1  1  0  0  0
M  END
>  <CHROM.1>
60.03432251,-156.38247735,-6.53560610,-3.87538524,9.60633474,-2.05921962
0.11545229,0.09772039

>  <Name>
ligand

>  <RI>
0

>  <Rbt.Current_Directory>
/home/itssahil/PROJECTS/Mol_Feturizer/New_Systems/rnas/3SKI

>  <Rbt.Executable>
rbdock ($Id: //depot/dev/client3/rdock/2013.1/src/exe/rbdock.cxx#4 $)

>  <Rbt.Library>
libRbt.so (2013.1, Build901 2013/11/27)

>  <Rbt.Parameter_File>
/export/apps/rDock/src/rDock_2013.1_src/data/scripts/dock_solv.prm

>  <Rbt.Receptor>
prm/pocket_docking_6.prm

>  <SCORE>
-17.5043

>  <SCORE.INTER>
-14.3563

>  <SCORE.INTER.CONST>
1

>  <SCORE.INTER.POLAR>
0

>  <SCORE.INTER.ROT>
2

>  <SCORE.INTER.SOLV>
18.0654

>  <SCORE.INTER.VDW>
-20.526

>  <SCORE.INTER.norm>
-0.755595

>  <SCORE.INTRA>
-3.14799

>  <SCORE.INTRA.DIHEDRAL>
-5.04808

>  <SCORE.INTRA.DIHEDRAL.0>
6.26853

>  <SCORE.INTRA.POLAR>
0

>  <SCORE.INTRA.POLAR.0>
0

>  <SCORE.INTRA.REPUL>
0

>  <SCORE.INTRA.REPUL.0>
0

>  <SCORE.INTRA.SOLV>
-0.234991

>  <SCORE.INTRA.SOLV.lig_0>
-38.4926

>  <SCORE.INTRA.VDW>
-0.506453

>  <SCORE.INTRA.VDW.0>
-0.59057

>  <SCORE.INTRA.norm>
-0.165684

>  <SCORE.RESTR>
0

>  <SCORE.RESTR.CAVITY>
0

>  <SCORE.RESTR.norm>
0

>  <SCORE.SYSTEM>
0

>  <SCORE.SYSTEM.CONST>
0

>  <SCORE.SYSTEM.DIHEDRAL>
0

>  <SCORE.SYSTEM.SOLV>
0

>  <SCORE.SYSTEM.norm>
0

>  <SCORE.heavy>
19

>  <SCORE.norm>
-0.921279

>  <RMSD>
1.446

$$$$
ligand
 OpenBabel11021811483D
libRbt.so/2013.1/901 2013/11/27
 19 21  0  0  0  0  0  0  0  0999 V2000
   -7.3414   -8.0020    9.4465 C   0  0  0  0  0  0  0  0  0  0  0  0
   -6.3308   -7.4842    8.5685 O   0  0  0  0  0  0  0  0  0  0  0  0
   -8.1814   -6.8608   10.0243 C   0  0  1  0  0  0  0  0  0  0  0  0
   -7.3589   -5.9605   10.7911 O   0  0  0  0  0  0  0  0  0  0  0  0
   -8.8281   -6.0448    8.9189 C   0  0  1  0  0  0  0  0  0  0  0  0
  -10.2226   -6.3518    8.7976 O   0  0  0  0  0  0  0  0  0  0  0  0
   -8.6366   -4.5958    9.3111 C   0  0  0  0  0  0  0  0  0  0  0  0
   -7.5760   -4.5961   10.4023 C   0  0  2  0  0  0  0  0  0  0  0  0
   -4.8503   -0.1686    9.6538 N   0  0  0  0  0  0  0  0  0  0  0  0
   -6.0941   -0.3476   10.1746 C   0  0  1  0  0  0  0  0  0  0  0  0
   -6.7986    0.7344   10.5833 N   0  0  0  0  0  0  0  0  0  0  0  0
   -6.6472   -1.5856   10.2901 N   0  0  0  0  0  0  0  0  0  0  0  0
   -5.9833   -2.7049    9.8927 C   0  0  2  0  0  0  0  0  0  0  0  0
   -4.7148   -2.5838    9.3546 C   0  0  1  0  0  0  0  0  0  0  0  0
   -4.1220   -1.2273    9.2359 C   0  0  0  0  0  0  0  0  0  0  0  0
   -2.9753   -1.0669    8.7610 O   0  0  0  0  0  0  0  0  0  0  0  0
   -4.2783   -3.8185    9.0510 N   0  0  0  0  0  0  0  0  0  0  0  0
   -5.2581   -4.6898    9.3874 C   0  0  0  0  0  0  0  0  0  0  0  0
   -6.2988   -4.0085    9.9004 N   0  0  1  0  0  0  0  0  0  0  0  0
  1  2  1  0  0  0  0
  3  1  1  6  0  0  0
  3  4  1  0  0  0  0
  3  5  1  0  0  0  0
  5  6  1  1  0  0  0
  5  7  1  0  0  0  0
  7  8  1  0  0  0  0
  8  4  1  6  0  0  0
  8 19  1  0  0  0  0
  9 15  1  0  0  0  0
  9 10  1  0  0  0  0
 10 11  1  6  0  0  0
 10 12  1  0  0  0  0
 13 12  1  6  0  0  0
 13 14  1  0  0  0  0
 13 19  1  0  0  0  0
 14 15  1  1  0  0  0
 14 17  1  0  0  0  0
 15 16  2  0  0  0  0
 17 18  1  0  0  0  0
 19 18  1  1  0  0  0
M  END
>  <CHROM.1>
-60.99894964,-155.23557576,-6.48231745,-3.83254486,9.59403457,-2.08127696
0.19310518,0.15568293

>  <Name>
ligand

>  <RI>
0

>  <Rbt.Current_Directory>
/home/itssahil/PROJECTS/Mol_Feturizer/New_Systems/rnas/3SKI

>  <Rbt.Executable>
rbdock ($Id: //depot/dev/client3/rdock/2013.1/src/exe/rbdock.cxx#4 $)

>  <Rbt.Library>
libRbt.so (2013.1, Build901 2013/11/27)

>  <Rbt.Parameter_File>
/export/apps/rDock/src/rDock_2013.1_src/data/scripts/dock_solv.prm

>  <Rbt.Receptor>
prm/pocket_docking_4.prm

>  <SCORE>
-17.2882

>  <SCORE.INTER>
-14.233

>  <SCORE.INTER.CONST>
1

>  <SCORE.INTER.POLAR>
0

>  <SCORE.INTER.ROT>
2

>  <SCORE.INTER.SOLV>
18.2063

>  <SCORE.INTER.VDW>
-20.4908

>  <SCORE.INTER.norm>
-0.749108

>  <SCORE.INTRA>
-3.0552

>  <SCORE.INTRA.DIHEDRAL>
-5.04449

>  <SCORE.INTRA.DIHEDRAL.0>
6.26853

>  <SCORE.INTRA.POLAR>
0

>  <SCORE.INTRA.POLAR.0>
0

>  <SCORE.INTRA.REPUL>
0

>  <SCORE.INTRA.REPUL.0>
0

>  <SCORE.INTRA.SOLV>
0.293481

>  <SCORE.INTRA.SOLV.lig_0>
-38.4926

>  <SCORE.INTRA.VDW>
-0.679688

>  <SCORE.INTRA.VDW.0>
-0.59057

>  <SCORE.INTRA.norm>
-0.1608

>  <SCORE.RESTR>
0

>  <SCORE.RESTR.CAVITY>
0

>  <SCORE.RESTR.norm>
0

>  <SCORE.SYSTEM>
0

>  <SCORE.SYSTEM.CONST>
0

>  <SCORE.SYSTEM.DIHEDRAL>
0

>  <SCORE.SYSTEM.SOLV>
0

>  <SCORE.SYSTEM.norm>
0

>  <SCORE.heavy>
19

>  <SCORE.norm>
-0.909907

>  <RMSD>
1.449

$$$$
ligand
 OpenBabel11021811483D
libRbt.so/2013.1/901 2013/11/27
 19 21  0  0  0  0  0  0  0  0999 V2000
   -7.4071   -7.9114    9.0480 C   0  0  0  0  0  0  0  0  0  0  0  0
   -6.8300   -8.8206    9.9970 O   0  0  0  0  0  0  0  0  0  0  0  0
   -8.1948   -6.8159    9.7699 C   0  0  1  0  0  0  0  0  0  0  0  0
   -7.3209   -6.0157   10.5891 O   0  0  0  0  0  0  0  0  0  0  0  0
   -8.8613   -5.8788    8.7783 C   0  0  1  0  0  0  0  0  0  0  0  0
  -10.2669   -6.1412    8.6830 O   0  0  0  0  0  0  0  0  0  0  0  0
   -8.6176   -4.4812    9.3051 C   0  0  0  0  0  0  0  0  0  0  0  0
   -7.5170   -4.6148   10.3474 C   0  0  2  0  0  0  0  0  0  0  0  0
   -4.8381   -0.1498    9.6540 N   0  0  0  0  0  0  0  0  0  0  0  0
   -6.0814   -0.3480   10.1690 C   0  0  1  0  0  0  0  0  0  0  0  0
   -6.7991    0.7218   10.5867 N   0  0  0  0  0  0  0  0  0  0  0  0
   -6.6212   -1.5932   10.2697 N   0  0  0  0  0  0  0  0  0  0  0  0
   -5.9437   -2.7008    9.8628 C   0  0  2  0  0  0  0  0  0  0  0  0
   -4.6750   -2.5601    9.3300 C   0  0  1  0  0  0  0  0  0  0  0  0
   -4.0968   -1.1961    9.2275 C   0  0  0  0  0  0  0  0  0  0  0  0
   -2.9505   -1.0180    8.7580 O   0  0  0  0  0  0  0  0  0  0  0  0
   -4.2240   -3.7868    9.0150 N   0  0  0  0  0  0  0  0  0  0  0  0
   -5.1951   -4.6722    9.3391 C   0  0  0  0  0  0  0  0  0  0  0  0
   -6.2448   -4.0078    9.8558 N   0  0  1  0  0  0  0  0  0  0  0  0
  1  2  1  0  0  0  0
  3  1  1  6  0  0  0
  3  4  1  0  0  0  0
  3  5  1  0  0  0  0
  5  6  1  1  0  0  0
  5  7  1  0  0  0  0
  7  8  1  0  0  0  0
  8  4  1  6  0  0  0
  8 19  1  0  0  0  0
  9 15  1  0  0  0  0
  9 10  1  0  0  0  0
 10 11  1  6  0  0  0
 10 12  1  0  0  0  0
 13 12  1  6  0  0  0
 13 14  1  0  0  0  0
 13 19  1  0  0  0  0
 14 15  1  1  0  0  0
 14 17  1  0  0  0  0
 15 16  2  0  0  0  0
 17 18  1  0  0  0  0
 19 18  1  1  0  0  0
M  END
>  <CHROM.1>
63.49531168,-161.27031343,-6.49752907,-3.87612463,9.60721571,-2.05287572
0.09456726,0.07737853

>  <Name>
ligand

>  <RI>
0

>  <Rbt.Current_Directory>
/home/itssahil/PROJECTS/Mol_Feturizer/New_Systems/rnas/3SKI

>  <Rbt.Executable>
rbdock ($Id: //depot/dev/client3/rdock/2013.1/src/exe/rbdock.cxx#4 $)

>  <Rbt.Library>
libRbt.so (2013.1, Build901 2013/11/27)

>  <Rbt.Parameter_File>
/export/apps/rDock/src/rDock_2013.1_src/data/scripts/dock_solv.prm

>  <Rbt.Receptor>
prm/pocket_docking_3.prm

>  <SCORE>
-17.5529

>  <SCORE.INTER>
-14.4263

>  <SCORE.INTER.CONST>
1

>  <SCORE.INTER.POLAR>
0

>  <SCORE.INTER.ROT>
2

>  <SCORE.INTER.SOLV>
18.0074

>  <SCORE.INTER.VDW>
-20.5534

>  <SCORE.INTER.norm>
-0.759281

>  <SCORE.INTRA>
-3.12658

>  <SCORE.INTRA.DIHEDRAL>
-5.005

>  <SCORE.INTRA.DIHEDRAL.0>
6.26853

>  <SCORE.INTRA.POLAR>
0

>  <SCORE.INTRA.POLAR.0>
0

>  <SCORE.INTRA.REPUL>
0

>  <SCORE.INTRA.REPUL.0>
0

>  <SCORE.INTRA.SOLV>
-0.249111

>  <SCORE.INTRA.SOLV.lig_0>
-38.4926

>  <SCORE.INTRA.VDW>
-0.49952

>  <SCORE.INTRA.VDW.0>
-0.59057

>  <SCORE.INTRA.norm>
-0.164557

>  <SCORE.RESTR>
0

>  <SCORE.RESTR.CAVITY>
0

>  <SCORE.RESTR.norm>
0

>  <SCORE.SYSTEM>
0

>  <SCORE.SYSTEM.CONST>
0

>  <SCORE.SYSTEM.DIHEDRAL>
0

>  <SCORE.SYSTEM.SOLV>
0

>  <SCORE.SYSTEM.norm>
0

>  <SCORE.heavy>
19

>  <SCORE.norm>
-0.923837

>  <RMSD>
1.454

$$$$
ligand
 OpenBabel11021811483D
libRbt.so/2013.1/901 2013/11/27
 19 21  0  0  0  0  0  0  0  0999 V2000
   -7.3984   -7.9088    9.0155 C   0  0  0  0  0  0  0  0  0  0  0  0
   -6.7455   -8.7673    9.9625 O   0  0  0  0  0  0  0  0  0  0  0  0
   -8.1896   -6.8183    9.7413 C   0  0  1  0  0  0  0  0  0  0  0  0
   -7.3191   -6.0216   10.5673 O   0  0  0  0  0  0  0  0  0  0  0  0
   -8.8544   -5.8765    8.7529 C   0  0  1  0  0  0  0  0  0  0  0  0
  -10.2594   -6.1402    8.6522 O   0  0  0  0  0  0  0  0  0  0  0  0
   -8.6141   -4.4816    9.2882 C   0  0  0  0  0  0  0  0  0  0  0  0
   -7.5162   -4.6195   10.3328 C   0  0  2  0  0  0  0  0  0  0  0  0
   -4.8443   -0.1466    9.6643 N   0  0  0  0  0  0  0  0  0  0  0  0
   -6.0892   -0.3491   10.1737 C   0  0  1  0  0  0  0  0  0  0  0  0
   -6.8109    0.7178   10.5919 N   0  0  0  0  0  0  0  0  0  0  0  0
   -6.6267   -1.5958   10.2683 N   0  0  0  0  0  0  0  0  0  0  0  0
   -5.9452   -2.7006    9.8605 C   0  0  2  0  0  0  0  0  0  0  0  0
   -4.6747   -2.5555    9.3333 C   0  0  1  0  0  0  0  0  0  0  0  0
   -4.0990   -1.1899    9.2373 C   0  0  0  0  0  0  0  0  0  0  0  0
   -2.9513   -1.0079    8.7730 O   0  0  0  0  0  0  0  0  0  0  0  0
   -4.2197   -3.7801    9.0161 N   0  0  0  0  0  0  0  0  0  0  0  0
   -5.1902   -4.6687    9.3335 C   0  0  0  0  0  0  0  0  0  0  0  0
   -6.2434   -4.0083    9.8482 N   0  0  1  0  0  0  0  0  0  0  0  0
  1  2  1  0  0  0  0
  3  1  1  6  0  0  0
  3  4  1  0  0  0  0
  3  5  1  0  0  0  0
  5  6  1  1  0  0  0
  5  7  1  0  0  0  0
  7  8  1  0  0  0  0
  8  4  1  6  0  0  0
  8 19  1  0  0  0  0
  9 15  1  0  0  0  0
  9 10  1  0  0  0  0
 10 11  1  6  0  0  0
 10 12  1  0  0  0  0
 13 12  1  6  0  0  0
 13 14  1  0  0  0  0
 13 19  1  0  0  0  0
 14 15  1  1  0  0  0
 14 17  1  0  0  0  0
 15 16  2  0  0  0  0
 17 18  1  0  0  0  0
 19 18  1  1  0  0  0
M  END
>  <CHROM.1>
59.44674822,-161.42859048,-6.49178205,-3.87189881,9.59759130,-2.05062060
0.08954111,0.08084087

>  <Name>
ligand

>  <RI>
0

>  <Rbt.Current_Directory>
/home/itssahil/PROJECTS/Mol_Feturizer/New_Systems/rnas/3SKI

>  <Rbt.Executable>
rbdock ($Id: //depot/dev/client3/rdock/2013.1/src/exe/rbdock.cxx#4 $)

>  <Rbt.Library>
libRbt.so (2013.1, Build901 2013/11/27)

>  <Rbt.Parameter_File>
/export/apps/rDock/src/rDock_2013.1_src/data/scripts/dock_solv.prm

>  <Rbt.Receptor>
prm/pocket_docking_7.prm

>  <SCORE>
-17.5943

>  <SCORE.INTER>
-14.4772

>  <SCORE.INTER.CONST>
1

>  <SCORE.INTER.POLAR>
0

>  <SCORE.INTER.ROT>
2

>  <SCORE.INTER.SOLV>
18.0652

>  <SCORE.INTER.VDW>
-20.6065

>  <SCORE.INTER.norm>
-0.761956

>  <SCORE.INTRA>
-3.11708

>  <SCORE.INTRA.DIHEDRAL>
-5.04946

>  <SCORE.INTRA.DIHEDRAL.0>
6.26853

>  <SCORE.INTRA.POLAR>
0

>  <SCORE.INTRA.POLAR.0>
0

>  <SCORE.INTRA.REPUL>
0

>  <SCORE.INTRA.REPUL.0>
0

>  <SCORE.INTRA.SOLV>
-0.233952

>  <SCORE.INTRA.SOLV.lig_0>
-38.4926

>  <SCORE.INTRA.VDW>
-0.475377

>  <SCORE.INTRA.VDW.0>
-0.59057

>  <SCORE.INTRA.norm>
-0.164057

>  <SCORE.RESTR>
0

>  <SCORE.RESTR.CAVITY>
0

>  <SCORE.RESTR.norm>
0

>  <SCORE.SYSTEM>
0

>  <SCORE.SYSTEM.CONST>
0

>  <SCORE.SYSTEM.DIHEDRAL>
0

>  <SCORE.SYSTEM.SOLV>
0

>  <SCORE.SYSTEM.norm>
0

>  <SCORE.heavy>
19

>  <SCORE.norm>
-0.926013

>  <RMSD>
1.458

$$$$
ligand
 OpenBabel11021811483D
libRbt.so/2013.1/901 2013/11/27
 19 21  0  0  0  0  0  0  0  0999 V2000
   -7.4332   -7.9870    9.4448 C   0  0  0  0  0  0  0  0  0  0  0  0
   -6.3924   -7.4850    8.5934 O   0  0  0  0  0  0  0  0  0  0  0  0
   -8.2698   -6.8329   10.0015 C   0  0  1  0  0  0  0  0  0  0  0  0
   -7.4461   -5.9255   10.7587 O   0  0  0  0  0  0  0  0  0  0  0  0
   -8.9068   -6.0301    8.8810 C   0  0  1  0  0  0  0  0  0  0  0  0
  -10.3024   -6.3314    8.7577 O   0  0  0  0  0  0  0  0  0  0  0  0
   -8.7094   -4.5764    9.2525 C   0  0  0  0  0  0  0  0  0  0  0  0
   -7.6540   -4.5661   10.3486 C   0  0  2  0  0  0  0  0  0  0  0  0
   -4.8160   -0.1883    9.7366 N   0  0  0  0  0  0  0  0  0  0  0  0
   -6.0528   -0.3554   10.2776 C   0  0  1  0  0  0  0  0  0  0  0  0
   -6.7160    0.7264   10.7507 N   0  0  0  0  0  0  0  0  0  0  0  0
   -6.6395   -1.5812   10.3502 N   0  0  0  0  0  0  0  0  0  0  0  0
   -6.0177   -2.6996    9.8876 C   0  0  2  0  0  0  0  0  0  0  0  0
   -4.7584   -2.5903    9.3262 C   0  0  1  0  0  0  0  0  0  0  0  0
   -4.1285   -1.2472    9.2548 C   0  0  0  0  0  0  0  0  0  0  0  0
   -2.9883   -1.0980    8.7611 O   0  0  0  0  0  0  0  0  0  0  0  0
   -4.3652   -3.8219    8.9575 N   0  0  0  0  0  0  0  0  0  0  0  0
   -5.3626   -4.6793    9.2771 C   0  0  0  0  0  0  0  0  0  0  0  0
   -6.3713   -3.9927    9.8441 N   0  0  1  0  0  0  0  0  0  0  0  0
  1  2  1  0  0  0  0
  3  1  1  6  0  0  0
  3  4  1  0  0  0  0
  3  5  1  0  0  0  0
  5  6  1  1  0  0  0
  5  7  1  0  0  0  0
  7  8  1  0  0  0  0
  8  4  1  6  0  0  0
  8 19  1  0  0  0  0
  9 15  1  0  0  0  0
  9 10  1  0  0  0  0
 10 11  1  6  0  0  0
 10 12  1  0  0  0  0
 13 12  1  6  0  0  0
 13 14  1  0  0  0  0
 13 19  1  0  0  0  0
 14 15  1  1  0  0  0
 14 17  1  0  0  0  0
 15 16  2  0  0  0  0
 17 18  1  0  0  0  0
 19 18  1  1  0  0  0
M  END
>  <CHROM.1>
-59.39961252,-151.21493198,-6.52681808,-3.82706843,9.58979543,-2.09850626
0.20955714,0.18426178

>  <Name>
ligand

>  <RI>
0

>  <Rbt.Current_Directory>
/home/itssahil/PROJECTS/Mol_Feturizer/New_Systems/rnas/3SKI

>  <Rbt.Executable>
rbdock ($Id: //depot/dev/client3/rdock/2013.1/src/exe/rbdock.cxx#4 $)

>  <Rbt.Library>
libRbt.so (2013.1, Build901 2013/11/27)

>  <Rbt.Parameter_File>
/export/apps/rDock/src/rDock_2013.1_src/data/scripts/dock_solv.prm

>  <Rbt.Receptor>
prm/pocket_docking_4.prm

>  <SCORE>
-17.2147

>  <SCORE.INTER>
-14.1316

>  <SCORE.INTER.CONST>
1

>  <SCORE.INTER.POLAR>
0

>  <SCORE.INTER.ROT>
2

>  <SCORE.INTER.SOLV>
18.2427

>  <SCORE.INTER.VDW>
-20.4353

>  <SCORE.INTER.norm>
-0.743771

>  <SCORE.INTRA>
-3.08304

>  <SCORE.INTRA.DIHEDRAL>
-5.04551

>  <SCORE.INTRA.DIHEDRAL.0>
6.26853

>  <SCORE.INTRA.POLAR>
0

>  <SCORE.INTRA.POLAR.0>
0

>  <SCORE.INTRA.REPUL>
0

>  <SCORE.INTRA.REPUL.0>
0

>  <SCORE.INTRA.SOLV>
0.295328

>  <SCORE.INTRA.SOLV.lig_0>
-38.4926

>  <SCORE.INTRA.VDW>
-0.70795

>  <SCORE.INTRA.VDW.0>
-0.59057

>  <SCORE.INTRA.norm>
-0.162265

>  <SCORE.RESTR>
0

>  <SCORE.RESTR.CAVITY>
0

>  <SCORE.RESTR.norm>
0

>  <SCORE.SYSTEM>
0

>  <SCORE.SYSTEM.CONST>
0

>  <SCORE.SYSTEM.DIHEDRAL>
0

>  <SCORE.SYSTEM.SOLV>
0

>  <SCORE.SYSTEM.norm>
0

>  <SCORE.heavy>
19

>  <SCORE.norm>
-0.906036

>  <RMSD>
1.466

$$$$
ligand
 OpenBabel11021811483D
libRbt.so/2013.1/901 2013/11/27
 19 21  0  0  0  0  0  0  0  0999 V2000
   -7.4003   -7.9132    8.9952 C   0  0  0  0  0  0  0  0  0  0  0  0
   -6.7366   -8.7724    9.9341 O   0  0  0  0  0  0  0  0  0  0  0  0
   -8.1875   -6.8266    9.7310 C   0  0  1  0  0  0  0  0  0  0  0  0
   -7.3115   -6.0300   10.5514 O   0  0  0  0  0  0  0  0  0  0  0  0
   -8.8634   -5.8837    8.7512 C   0  0  1  0  0  0  0  0  0  0  0  0
  -10.2686   -6.1504    8.6624 O   0  0  0  0  0  0  0  0  0  0  0  0
   -8.6215   -4.4897    9.2881 C   0  0  0  0  0  0  0  0  0  0  0  0
   -7.5141   -4.6278   10.3225 C   0  0  2  0  0  0  0  0  0  0  0  0
   -4.8535   -0.1481    9.6541 N   0  0  0  0  0  0  0  0  0  0  0  0
   -6.0927   -0.3550   10.1754 C   0  0  1  0  0  0  0  0  0  0  0  0
   -6.8108    0.7084   10.6083 N   0  0  0  0  0  0  0  0  0  0  0  0
   -6.6280   -1.6028   10.2679 N   0  0  0  0  0  0  0  0  0  0  0  0
   -5.9499   -2.7044    9.8457 C   0  0  2  0  0  0  0  0  0  0  0  0
   -4.6853   -2.5547    9.3058 C   0  0  1  0  0  0  0  0  0  0  0  0
   -4.1119   -1.1879    9.2124 C   0  0  0  0  0  0  0  0  0  0  0  0
   -2.9694   -1.0018    8.7369 O   0  0  0  0  0  0  0  0  0  0  0  0
   -4.2327   -3.7768    8.9759 N   0  0  0  0  0  0  0  0  0  0  0  0
   -5.1989   -4.6684    9.2980 C   0  0  0  0  0  0  0  0  0  0  0  0
   -6.2471   -4.0122    9.8282 N   0  0  1  0  0  0  0  0  0  0  0  0
  1  2  1  0  0  0  0
  3  1  1  6  0  0  0
  3  4  1  0  0  0  0
  3  5  1  0  0  0  0
  5  6  1  1  0  0  0
  5  7  1  0  0  0  0
  7  8  1  0  0  0  0
  8  4  1  6  0  0  0
  8 19  1  0  0  0  0
  9 15  1  0  0  0  0
  9 10  1  0  0  0  0
 10 11  1  6  0  0  0
 10 12  1  0  0  0  0
 13 12  1  6  0  0  0
 13 14  1  0  0  0  0
 13 19  1  0  0  0  0
 14 15  1  1  0  0  0
 14 17  1  0  0  0  0
 15 16  2  0  0  0  0
 17 18  1  0  0  0  0
 19 18  1  1  0  0  0
M  END
>  <CHROM.1>
59.42441230,-161.17838064,-6.49649068,-3.87612301,9.58351699,-2.04973140
0.09992553,0.08579109

>  <Name>
ligand

>  <RI>
0

>  <Rbt.Current_Directory>
/home/itssahil/PROJECTS/Mol_Feturizer/New_Systems/rnas/3SKI

>  <Rbt.Executable>
rbdock ($Id: //depot/dev/client3/rdock/2013.1/src/exe/rbdock.cxx#4 $)

>  <Rbt.Library>
libRbt.so (2013.1, Build901 2013/11/27)

>  <Rbt.Parameter_File>
/export/apps/rDock/src/rDock_2013.1_src/data/scripts/dock_solv.prm

>  <Rbt.Receptor>
prm/pocket_docking_4.prm

>  <SCORE>
-17.5724

>  <SCORE.INTER>
-14.4539

>  <SCORE.INTER.CONST>
1

>  <SCORE.INTER.POLAR>
0

>  <SCORE.INTER.ROT>
2

>  <SCORE.INTER.SOLV>
18.1284

>  <SCORE.INTER.VDW>
-20.6121

>  <SCORE.INTER.norm>
-0.760732

>  <SCORE.INTRA>
-3.11854

>  <SCORE.INTRA.DIHEDRAL>
-5.04924

>  <SCORE.INTRA.DIHEDRAL.0>
6.26853

>  <SCORE.INTRA.POLAR>
0

>  <SCORE.INTRA.POLAR.0>
0

>  <SCORE.INTRA.REPUL>
0

>  <SCORE.INTRA.REPUL.0>
0

>  <SCORE.INTRA.SOLV>
-0.233804

>  <SCORE.INTRA.SOLV.lig_0>
-38.4926

>  <SCORE.INTRA.VDW>
-0.477013

>  <SCORE.INTRA.VDW.0>
-0.59057

>  <SCORE.INTRA.norm>
-0.164133

>  <SCORE.RESTR>
0

>  <SCORE.RESTR.CAVITY>
0

>  <SCORE.RESTR.norm>
0

>  <SCORE.SYSTEM>
0

>  <SCORE.SYSTEM.CONST>
0

>  <SCORE.SYSTEM.DIHEDRAL>
0

>  <SCORE.SYSTEM.SOLV>
0

>  <SCORE.SYSTEM.norm>
0

>  <SCORE.heavy>
19

>  <SCORE.norm>
-0.924865

>  <RMSD>
1.466

$$$$
ligand
 OpenBabel11021811483D
libRbt.so/2013.1/901 2013/11/27
 19 21  0  0  0  0  0  0  0  0999 V2000
   -7.2825   -7.8288    8.9605 C   0  0  0  0  0  0  0  0  0  0  0  0
   -6.6537   -8.7283    9.8855 O   0  0  0  0  0  0  0  0  0  0  0  0
   -8.0751   -6.7579    9.7135 C   0  0  1  0  0  0  0  0  0  0  0  0
   -7.2000   -5.9564   10.5301 O   0  0  0  0  0  0  0  0  0  0  0  0
   -8.7739   -5.8163    8.7486 C   0  0  1  0  0  0  0  0  0  0  0  0
  -10.1765   -6.1003    8.6735 O   0  0  0  0  0  0  0  0  0  0  0  0
   -8.5437   -4.4234    9.2935 C   0  0  0  0  0  0  0  0  0  0  0  0
   -7.4229   -4.5552   10.3143 C   0  0  2  0  0  0  0  0  0  0  0  0
   -4.7900   -0.0476    9.7298 N   0  0  0  0  0  0  0  0  0  0  0  0
   -6.0159   -0.2754   10.2732 C   0  0  1  0  0  0  0  0  0  0  0  0
   -6.7262    0.7711   10.7573 N   0  0  0  0  0  0  0  0  0  0  0  0
   -6.5458   -1.5272   10.3375 N   0  0  0  0  0  0  0  0  0  0  0  0
   -5.8752   -2.6123    9.8638 C   0  0  2  0  0  0  0  0  0  0  0  0
   -4.6241   -2.4410    9.2993 C   0  0  1  0  0  0  0  0  0  0  0  0
   -4.0565   -1.0701    9.2371 C   0  0  0  0  0  0  0  0  0  0  0  0
   -2.9260   -0.8649    8.7412 O   0  0  0  0  0  0  0  0  0  0  0  0
   -4.1764   -3.6503    8.9192 N   0  0  0  0  0  0  0  0  0  0  0  0
   -5.1325   -4.5550    9.2348 C   0  0  0  0  0  0  0  0  0  0  0  0
   -6.1695   -3.9198    9.8106 N   0  0  1  0  0  0  0  0  0  0  0  0
  1  2  1  0  0  0  0
  3  1  1  6  0  0  0
  3  4  1  0  0  0  0
  3  5  1  0  0  0  0
  5  6  1  1  0  0  0
  5  7  1  0  0  0  0
  7  8  1  0  0  0  0
  8  4  1  6  0  0  0
  8 19  1  0  0  0  0
  9 15  1  0  0  0  0
  9 10  1  0  0  0  0
 10 11  1  6  0  0  0
 10 12  1  0  0  0  0
 13 12  1  6  0  0  0
 13 14  1  0  0  0  0
 13 19  1  0  0  0  0
 14 15  1  1  0  0  0
 14 17  1  0  0  0  0
 15 16  2  0  0  0  0
 17 18  1  0  0  0  0
 19 18  1  1  0  0  0
M  END
>  <CHROM.1>
62.41195780,-159.48629310,-6.41625359,-3.79066557,9.59225737,-2.04350936
0.12224232,0.10866530

>  <Name>
ligand

>  <RI>
0

>  <Rbt.Current_Directory>
/home/itssahil/PROJECTS/Mol_Feturizer/New_Systems/rnas/3SKI

>  <Rbt.Executable>
rbdock ($Id: //depot/dev/client3/rdock/2013.1/src/exe/rbdock.cxx#4 $)

>  <Rbt.Library>
libRbt.so (2013.1, Build901 2013/11/27)

>  <Rbt.Parameter_File>
/export/apps/rDock/src/rDock_2013.1_src/data/scripts/dock_solv.prm

>  <Rbt.Receptor>
prm/pocket_docking_5.prm

>  <SCORE>
-17.4825

>  <SCORE.INTER>
-14.3363

>  <SCORE.INTER.CONST>
1

>  <SCORE.INTER.POLAR>
0

>  <SCORE.INTER.ROT>
2

>  <SCORE.INTER.SOLV>
18.4272

>  <SCORE.INTER.VDW>
-20.6333

>  <SCORE.INTER.norm>
-0.754542

>  <SCORE.INTRA>
-3.14619

>  <SCORE.INTRA.DIHEDRAL>
-5.0275

>  <SCORE.INTRA.DIHEDRAL.0>
6.26853

>  <SCORE.INTRA.POLAR>
0

>  <SCORE.INTRA.POLAR.0>
0

>  <SCORE.INTRA.REPUL>
0

>  <SCORE.INTRA.REPUL.0>
0

>  <SCORE.INTRA.SOLV>
-0.244638

>  <SCORE.INTRA.SOLV.lig_0>
-38.4926

>  <SCORE.INTRA.VDW>
-0.510123

>  <SCORE.INTRA.VDW.0>
-0.59057

>  <SCORE.INTRA.norm>
-0.165589

>  <SCORE.RESTR>
0

>  <SCORE.RESTR.CAVITY>
0

>  <SCORE.RESTR.norm>
0

>  <SCORE.SYSTEM>
0

>  <SCORE.SYSTEM.CONST>
0

>  <SCORE.SYSTEM.DIHEDRAL>
0

>  <SCORE.SYSTEM.SOLV>
0

>  <SCORE.SYSTEM.norm>
0

>  <SCORE.heavy>
19

>  <SCORE.norm>
-0.920131

>  <RMSD>
1.466

$$$$
ligand
 OpenBabel11021811483D
libRbt.so/2013.1/901 2013/11/27
 19 21  0  0  0  0  0  0  0  0999 V2000
   -7.4293   -7.9407    9.3568 C   0  0  0  0  0  0  0  0  0  0  0  0
   -6.3663   -7.4252    8.5416 O   0  0  0  0  0  0  0  0  0  0  0  0
   -8.2540   -6.7939    9.9455 C   0  0  1  0  0  0  0  0  0  0  0  0
   -7.4177   -5.9060   10.7118 O   0  0  0  0  0  0  0  0  0  0  0  0
   -8.8988   -5.9657    8.8481 C   0  0  1  0  0  0  0  0  0  0  0  0
  -10.2971   -6.2577    8.7338 O   0  0  0  0  0  0  0  0  0  0  0  0
   -8.6901   -4.5208    9.2465 C   0  0  0  0  0  0  0  0  0  0  0  0
   -7.6229   -4.5376   10.3312 C   0  0  2  0  0  0  0  0  0  0  0  0
   -4.7922   -0.1539    9.7284 N   0  0  0  0  0  0  0  0  0  0  0  0
   -6.0268   -0.3248   10.2732 C   0  0  1  0  0  0  0  0  0  0  0  0
   -6.6894    0.7541   10.7537 N   0  0  0  0  0  0  0  0  0  0  0  0
   -6.6119   -1.5516   10.3425 N   0  0  0  0  0  0  0  0  0  0  0  0
   -5.9906   -2.6672    9.8726 C   0  0  2  0  0  0  0  0  0  0  0  0
   -4.7334   -2.5539    9.3069 C   0  0  1  0  0  0  0  0  0  0  0  0
   -4.1053   -1.2099    9.2393 C   0  0  0  0  0  0  0  0  0  0  0  0
   -2.9671   -1.0571    8.7420 O   0  0  0  0  0  0  0  0  0  0  0  0
   -4.3402   -3.7834    8.9312 N   0  0  0  0  0  0  0  0  0  0  0  0
   -5.3355   -4.6434    9.2506 C   0  0  0  0  0  0  0  0  0  0  0  0
   -6.3428   -3.9605    9.8245 N   0  0  1  0  0  0  0  0  0  0  0  0
  1  2  1  0  0  0  0
  3  1  1  6  0  0  0
  3  4  1  0  0  0  0
  3  5  1  0  0  0  0
  5  6  1  1  0  0  0
  5  7  1  0  0  0  0
  7  8  1  0  0  0  0
  8  4  1  6  0  0  0
  8 19  1  0  0  0  0
  9 15  1  0  0  0  0
  9 10  1  0  0  0  0
 10 11  1  6  0  0  0
 10 12  1  0  0  0  0
 13 12  1  6  0  0  0
 13 14  1  0  0  0  0
 13 19  1  0  0  0  0
 14 15  1  1  0  0  0
 14 17  1  0  0  0  0
 15 16  2  0  0  0  0
 17 18  1  0  0  0  0
 19 18  1  1  0  0  0
M  END
>  <CHROM.1>
-57.39521374,-152.25043299,-6.50492635,-3.78650464,9.56389578,-2.10142156
0.21091175,0.19164753

>  <Name>
ligand

>  <RI>
0

>  <Rbt.Current_Directory>
/home/itssahil/PROJECTS/Mol_Feturizer/New_Systems/rnas/3SKI

>  <Rbt.Executable>
rbdock ($Id: //depot/dev/client3/rdock/2013.1/src/exe/rbdock.cxx#4 $)

>  <Rbt.Library>
libRbt.so (2013.1, Build901 2013/11/27)

>  <Rbt.Parameter_File>
/export/apps/rDock/src/rDock_2013.1_src/data/scripts/dock_solv.prm

>  <Rbt.Receptor>
prm/pocket_docking_6.prm

>  <SCORE>
-17.3492

>  <SCORE.INTER>
-14.2683

>  <SCORE.INTER.CONST>
1

>  <SCORE.INTER.POLAR>
0

>  <SCORE.INTER.ROT>
2

>  <SCORE.INTER.SOLV>
18.3418

>  <SCORE.INTER.VDW>
-20.5595

>  <SCORE.INTER.norm>
-0.750962

>  <SCORE.INTRA>
-3.08092

>  <SCORE.INTRA.DIHEDRAL>
-5.02172

>  <SCORE.INTRA.DIHEDRAL.0>
6.26853

>  <SCORE.INTRA.POLAR>
0

>  <SCORE.INTRA.POLAR.0>
0

>  <SCORE.INTRA.REPUL>
0

>  <SCORE.INTRA.REPUL.0>
0

>  <SCORE.INTRA.SOLV>
0.292878

>  <SCORE.INTRA.SOLV.lig_0>
-38.4926

>  <SCORE.INTRA.VDW>
-0.716499

>  <SCORE.INTRA.VDW.0>
-0.59057

>  <SCORE.INTRA.norm>
-0.162154

>  <SCORE.RESTR>
0

>  <SCORE.RESTR.CAVITY>
0

>  <SCORE.RESTR.norm>
0

>  <SCORE.SYSTEM>
0

>  <SCORE.SYSTEM.CONST>
0

>  <SCORE.SYSTEM.DIHEDRAL>
0

>  <SCORE.SYSTEM.SOLV>
0

>  <SCORE.SYSTEM.norm>
0

>  <SCORE.heavy>
19

>  <SCORE.norm>
-0.913115

>  <RMSD>
1.490

$$$$
ligand
 OpenBabel11021811483D
libRbt.so/2013.1/901 2013/11/27
 19 21  0  0  0  0  0  0  0  0999 V2000
   -7.4184   -7.9710    9.3627 C   0  0  0  0  0  0  0  0  0  0  0  0
   -6.3601   -7.4597    8.5388 O   0  0  0  0  0  0  0  0  0  0  0  0
   -8.2668   -6.8230    9.9143 C   0  0  1  0  0  0  0  0  0  0  0  0
   -7.4581   -5.9203   10.6929 O   0  0  0  0  0  0  0  0  0  0  0  0
   -8.8861   -6.0123    8.7895 C   0  0  1  0  0  0  0  0  0  0  0  0
  -10.2787   -6.3154    8.6398 O   0  0  0  0  0  0  0  0  0  0  0  0
   -8.6981   -4.5614    9.1762 C   0  0  0  0  0  0  0  0  0  0  0  0
   -7.6617   -4.5579   10.2903 C   0  0  2  0  0  0  0  0  0  0  0  0
   -4.8117   -0.1741    9.7870 N   0  0  0  0  0  0  0  0  0  0  0  0
   -6.0559   -0.3484   10.3083 C   0  0  1  0  0  0  0  0  0  0  0  0
   -6.7246    0.7264   10.7895 N   0  0  0  0  0  0  0  0  0  0  0  0
   -6.6447   -1.5746   10.3533 N   0  0  0  0  0  0  0  0  0  0  0  0
   -6.0176   -2.6862    9.8816 C   0  0  2  0  0  0  0  0  0  0  0  0
   -4.7506   -2.5693    9.3392 C   0  0  1  0  0  0  0  0  0  0  0  0
   -4.1186   -1.2260    9.2979 C   0  0  0  0  0  0  0  0  0  0  0  0
   -2.9716   -1.0702    8.8222 O   0  0  0  0  0  0  0  0  0  0  0  0
   -4.3535   -3.7953    8.9563 N   0  0  0  0  0  0  0  0  0  0  0  0
   -5.3560   -4.6566    9.2485 C   0  0  0  0  0  0  0  0  0  0  0  0
   -6.3717   -3.9780    9.8126 N   0  0  1  0  0  0  0  0  0  0  0  0
  1  2  1  0  0  0  0
  3  1  1  6  0  0  0
  3  4  1  0  0  0  0
  3  5  1  0  0  0  0
  5  6  1  1  0  0  0
  5  7  1  0  0  0  0
  7  8  1  0  0  0  0
  8  4  1  6  0  0  0
  8 19  1  0  0  0  0
  9 15  1  0  0  0  0
  9 10  1  0  0  0  0
 10 11  1  6  0  0  0
 10 12  1  0  0  0  0
 13 12  1  6  0  0  0
 13 14  1  0  0  0  0
 13 19  1  0  0  0  0
 14 15  1  1  0  0  0
 14 17  1  0  0  0  0
 15 16  2  0  0  0  0
 17 18  1  0  0  0  0
 19 18  1  1  0  0  0
M  END
>  <CHROM.1>
-59.11193214,-150.69395042,-6.51984026,-3.81179914,9.56422083,-2.09488150
0.19577093,0.19674355

>  <Name>
ligand

>  <RI>
0

>  <Rbt.Current_Directory>
/home/itssahil/PROJECTS/Mol_Feturizer/New_Systems/rnas/3SKI

>  <Rbt.Executable>
rbdock ($Id: //depot/dev/client3/rdock/2013.1/src/exe/rbdock.cxx#4 $)

>  <Rbt.Library>
libRbt.so (2013.1, Build901 2013/11/27)

>  <Rbt.Parameter_File>
/export/apps/rDock/src/rDock_2013.1_src/data/scripts/dock_solv.prm

>  <Rbt.Receptor>
prm/pocket_docking_4.prm

>  <SCORE>
-17.3403

>  <SCORE.INTER>
-14.2545

>  <SCORE.INTER.CONST>
1

>  <SCORE.INTER.POLAR>
0

>  <SCORE.INTER.ROT>
2

>  <SCORE.INTER.SOLV>
18.3888

>  <SCORE.INTER.VDW>
-20.5659

>  <SCORE.INTER.norm>
-0.750236

>  <SCORE.INTRA>
-3.08578

>  <SCORE.INTRA.DIHEDRAL>
-5.04382

>  <SCORE.INTRA.DIHEDRAL.0>
6.26853

>  <SCORE.INTRA.POLAR>
0

>  <SCORE.INTRA.POLAR.0>
0

>  <SCORE.INTRA.REPUL>
0

>  <SCORE.INTRA.REPUL.0>
0

>  <SCORE.INTRA.SOLV>
0.295408

>  <SCORE.INTRA.SOLV.lig_0>
-38.4926

>  <SCORE.INTRA.VDW>
-0.711568

>  <SCORE.INTRA.VDW.0>
-0.59057

>  <SCORE.INTRA.norm>
-0.162409

>  <SCORE.RESTR>
0

>  <SCORE.RESTR.CAVITY>
0

>  <SCORE.RESTR.norm>
0

>  <SCORE.SYSTEM>
0

>  <SCORE.SYSTEM.CONST>
0

>  <SCORE.SYSTEM.DIHEDRAL>
0

>  <SCORE.SYSTEM.SOLV>
0

>  <SCORE.SYSTEM.norm>
0

>  <SCORE.heavy>
19

>  <SCORE.norm>
-0.912645

>  <RMSD>
1.492

$$$$
ligand
 OpenBabel11021811483D
libRbt.so/2013.1/901 2013/11/27
 19 21  0  0  0  0  0  0  0  0999 V2000
   -7.4199   -7.9409    9.3330 C   0  0  0  0  0  0  0  0  0  0  0  0
   -6.3675   -7.4206    8.5072 O   0  0  0  0  0  0  0  0  0  0  0  0
   -8.2489   -6.7980    9.9233 C   0  0  1  0  0  0  0  0  0  0  0  0
   -7.4161   -5.9091   10.6923 O   0  0  0  0  0  0  0  0  0  0  0  0
   -8.8954   -5.9695    8.8272 C   0  0  1  0  0  0  0  0  0  0  0  0
  -10.2926   -6.2658    8.7109 O   0  0  0  0  0  0  0  0  0  0  0  0
   -8.6917   -4.5248    9.2289 C   0  0  0  0  0  0  0  0  0  0  0  0
   -7.6255   -4.5405   10.3145 C   0  0  2  0  0  0  0  0  0  0  0  0
   -4.8074   -0.1467    9.7262 N   0  0  0  0  0  0  0  0  0  0  0  0
   -6.0418   -0.3229   10.2697 C   0  0  1  0  0  0  0  0  0  0  0  0
   -6.7079    0.7527   10.7529 N   0  0  0  0  0  0  0  0  0  0  0  0
   -6.6233   -1.5515   10.3351 N   0  0  0  0  0  0  0  0  0  0  0  0
   -5.9984   -2.6640    9.8624 C   0  0  2  0  0  0  0  0  0  0  0  0
   -4.7412   -2.5453    9.2978 C   0  0  1  0  0  0  0  0  0  0  0  0
   -4.1171   -1.1992    9.2344 C   0  0  0  0  0  0  0  0  0  0  0  0
   -2.9790   -1.0417    8.7383 O   0  0  0  0  0  0  0  0  0  0  0  0
   -4.3442   -3.7725    8.9187 N   0  0  0  0  0  0  0  0  0  0  0  0
   -5.3371   -4.6364    9.2351 C   0  0  0  0  0  0  0  0  0  0  0  0
   -6.3468   -3.9582    9.8104 N   0  0  1  0  0  0  0  0  0  0  0  0
  1  2  1  0  0  0  0
  3  1  1  6  0  0  0
  3  4  1  0  0  0  0
  3  5  1  0  0  0  0
  5  6  1  1  0  0  0
  5  7  1  0  0  0  0
  7  8  1  0  0  0  0
  8  4  1  6  0  0  0
  8 19  1  0  0  0  0
  9 15  1  0  0  0  0
  9 10  1  0  0  0  0
 10 11  1  6  0  0  0
 10 12  1  0  0  0  0
 13 12  1  6  0  0  0
 13 14  1  0  0  0  0
 13 19  1  0  0  0  0
 14 15  1  1  0  0  0
 14 17  1  0  0  0  0
 15 16  2  0  0  0  0
 17 18  1  0  0  0  0
 19 18  1  1  0  0  0
M  END
>  <CHROM.1>
-58.07467909,-152.20292675,-6.50950642,-3.78423663,9.54980517,-2.09835327
0.21165309,0.19451195

>  <Name>
ligand

>  <RI>
0

>  <Rbt.Current_Directory>
/home/itssahil/PROJECTS/Mol_Feturizer/New_Systems/rnas/3SKI

>  <Rbt.Executable>
rbdock ($Id: //depot/dev/client3/rdock/2013.1/src/exe/rbdock.cxx#4 $)

>  <Rbt.Library>
libRbt.so (2013.1, Build901 2013/11/27)

>  <Rbt.Parameter_File>
/export/apps/rDock/src/rDock_2013.1_src/data/scripts/dock_solv.prm

>  <Rbt.Receptor>
prm/pocket_docking_4.prm

>  <SCORE>
-17.3311

>  <SCORE.INTER>
-14.2483

>  <SCORE.INTER.CONST>
1

>  <SCORE.INTER.POLAR>
0

>  <SCORE.INTER.ROT>
2

>  <SCORE.INTER.SOLV>
18.4227

>  <SCORE.INTER.VDW>
-20.5731

>  <SCORE.INTER.norm>
-0.749912

>  <SCORE.INTRA>
-3.08275

>  <SCORE.INTRA.DIHEDRAL>
-5.03305

>  <SCORE.INTRA.DIHEDRAL.0>
6.26853

>  <SCORE.INTRA.POLAR>
0

>  <SCORE.INTRA.POLAR.0>
0

>  <SCORE.INTRA.REPUL>
0

>  <SCORE.INTRA.REPUL.0>
0

>  <SCORE.INTRA.SOLV>
0.293579

>  <SCORE.INTRA.SOLV.lig_0>
-38.4926

>  <SCORE.INTRA.VDW>
-0.713017

>  <SCORE.INTRA.VDW.0>
-0.59057

>  <SCORE.INTRA.norm>
-0.16225

>  <SCORE.RESTR>
0

>  <SCORE.RESTR.CAVITY>
0

>  <SCORE.RESTR.norm>
0

>  <SCORE.SYSTEM>
0

>  <SCORE.SYSTEM.CONST>
0

>  <SCORE.SYSTEM.DIHEDRAL>
0

>  <SCORE.SYSTEM.SOLV>
0

>  <SCORE.SYSTEM.norm>
0

>  <SCORE.heavy>
19

>  <SCORE.norm>
-0.912162

>  <RMSD>
1.500

$$$$
ligand
 OpenBabel11021811483D
libRbt.so/2013.1/901 2013/11/27
 19 21  0  0  0  0  0  0  0  0999 V2000
   -7.2968   -8.0837    9.7145 C   0  0  0  0  0  0  0  0  0  0  0  0
   -8.0884   -9.1011    9.0834 O   0  0  0  0  0  0  0  0  0  0  0  0
   -8.1844   -6.9231   10.1697 C   0  0  1  0  0  0  0  0  0  0  0  0
   -7.4092   -5.9353   10.8755 O   0  0  0  0  0  0  0  0  0  0  0  0
   -8.8233   -6.2257    8.9817 C   0  0  1  0  0  0  0  0  0  0  0  0
  -10.2046   -6.5846    8.8528 O   0  0  0  0  0  0  0  0  0  0  0  0
   -8.6839   -4.7432    9.2510 C   0  0  0  0  0  0  0  0  0  0  0  0
   -7.6541   -4.6169   10.3642 C   0  0  2  0  0  0  0  0  0  0  0  0
   -4.8482   -0.2226    9.7235 N   0  0  0  0  0  0  0  0  0  0  0  0
   -6.0775   -0.3972   10.2791 C   0  0  1  0  0  0  0  0  0  0  0  0
   -6.7410    0.6803   10.7613 N   0  0  0  0  0  0  0  0  0  0  0  0
   -6.6564   -1.6263   10.3572 N   0  0  0  0  0  0  0  0  0  0  0  0
   -6.0340   -2.7408    9.8860 C   0  0  2  0  0  0  0  0  0  0  0  0
   -4.7820   -2.6238    9.3097 C   0  0  1  0  0  0  0  0  0  0  0  0
   -4.1605   -1.2771    9.2323 C   0  0  0  0  0  0  0  0  0  0  0  0
   -3.0272   -1.1210    8.7253 O   0  0  0  0  0  0  0  0  0  0  0  0
   -4.3864   -3.8527    8.9348 N   0  0  0  0  0  0  0  0  0  0  0  0
   -5.3751   -4.7161    9.2653 C   0  0  0  0  0  0  0  0  0  0  0  0
   -6.3808   -4.0358    9.8452 N   0  0  1  0  0  0  0  0  0  0  0  0
  1  2  1  0  0  0  0
  3  1  1  6  0  0  0
  3  4  1  0  0  0  0
  3  5  1  0  0  0  0
  5  6  1  1  0  0  0
  5  7  1  0  0  0  0
  7  8  1  0  0  0  0
  8  4  1  6  0  0  0
  8 19  1  0  0  0  0
  9 15  1  0  0  0  0
  9 10  1  0  0  0  0
 10 11  1  6  0  0  0
 10 12  1  0  0  0  0
 13 12  1  6  0  0  0
 13 14  1  0  0  0  0
 13 19  1  0  0  0  0
 14 15  1  1  0  0  0
 14 17  1  0  0  0  0
 15 16  2  0  0  0  0
 17 18  1  0  0  0  0
 19 18  1  1  0  0  0
M  END
>  <CHROM.1>
176.53161696,-146.32125702,-6.61837096,-3.99362026,9.65593263,-2.07981719
0.21612220,0.15436289

>  <Name>
ligand

>  <RI>
0

>  <Rbt.Current_Directory>
/home/itssahil/PROJECTS/Mol_Feturizer/New_Systems/rnas/3SKI

>  <Rbt.Executable>
rbdock ($Id: //depot/dev/client3/rdock/2013.1/src/exe/rbdock.cxx#4 $)

>  <Rbt.Library>
libRbt.so (2013.1, Build901 2013/11/27)

>  <Rbt.Parameter_File>
/export/apps/rDock/src/rDock_2013.1_src/data/scripts/dock_solv.prm

>  <Rbt.Receptor>
prm/pocket_docking_3.prm

>  <SCORE>
-17.2324

>  <SCORE.INTER>
-14.2125

>  <SCORE.INTER.CONST>
1

>  <SCORE.INTER.POLAR>
0

>  <SCORE.INTER.ROT>
2

>  <SCORE.INTER.SOLV>
18.0229

>  <SCORE.INTER.VDW>
-20.416

>  <SCORE.INTER.norm>
-0.748028

>  <SCORE.INTRA>
-3.0199

>  <SCORE.INTRA.DIHEDRAL>
-5.00512

>  <SCORE.INTRA.DIHEDRAL.0>
6.26853

>  <SCORE.INTRA.POLAR>
0

>  <SCORE.INTRA.POLAR.0>
0

>  <SCORE.INTRA.REPUL>
0

>  <SCORE.INTRA.REPUL.0>
0

>  <SCORE.INTRA.SOLV>
-0.0247693

>  <SCORE.INTRA.SOLV.lig_0>
-38.4926

>  <SCORE.INTRA.VDW>
-0.504949

>  <SCORE.INTRA.VDW.0>
-0.59057

>  <SCORE.INTRA.norm>
-0.158942

>  <SCORE.RESTR>
0

>  <SCORE.RESTR.CAVITY>
0

>  <SCORE.RESTR.norm>
0

>  <SCORE.SYSTEM>
0

>  <SCORE.SYSTEM.CONST>
0

>  <SCORE.SYSTEM.DIHEDRAL>
0

>  <SCORE.SYSTEM.SOLV>
0

>  <SCORE.SYSTEM.norm>
0

>  <SCORE.heavy>
19

>  <SCORE.norm>
-0.90697

>  <RMSD>
1.514

$$$$
ligand
 OpenBabel11021811483D
libRbt.so/2013.1/901 2013/11/27
 19 21  0  0  0  0  0  0  0  0999 V2000
   -7.5174   -7.9756    9.3315 C   0  0  0  0  0  0  0  0  0  0  0  0
   -6.4452   -7.4691    8.5228 O   0  0  0  0  0  0  0  0  0  0  0  0
   -8.3347   -6.8219    9.9168 C   0  0  1  0  0  0  0  0  0  0  0  0
   -7.4949   -5.9435   10.6903 O   0  0  0  0  0  0  0  0  0  0  0  0
   -8.9642   -5.9854    8.8168 C   0  0  1  0  0  0  0  0  0  0  0  0
  -10.3645   -6.2636    8.6927 O   0  0  0  0  0  0  0  0  0  0  0  0
   -8.7440   -4.5433    9.2193 C   0  0  0  0  0  0  0  0  0  0  0  0
   -7.6843   -4.5725   10.3109 C   0  0  2  0  0  0  0  0  0  0  0  0
   -4.8202   -0.2108    9.7063 N   0  0  0  0  0  0  0  0  0  0  0  0
   -6.0615   -0.3701   10.2391 C   0  0  1  0  0  0  0  0  0  0  0  0
   -6.7226    0.7164   10.7045 N   0  0  0  0  0  0  0  0  0  0  0  0
   -6.6549   -1.5927   10.3111 N   0  0  0  0  0  0  0  0  0  0  0  0
   -6.0355   -2.7156    9.8561 C   0  0  2  0  0  0  0  0  0  0  0  0
   -4.7717   -2.6142    9.3032 C   0  0  1  0  0  0  0  0  0  0  0  0
   -4.1347   -1.2745    9.2324 C   0  0  0  0  0  0  0  0  0  0  0  0
   -2.9903   -1.1324    8.7463 O   0  0  0  0  0  0  0  0  0  0  0  0
   -4.3822   -3.8487    8.9407 N   0  0  0  0  0  0  0  0  0  0  0  0
   -5.3861   -4.7003    9.2558 C   0  0  0  0  0  0  0  0  0  0  0  0
   -6.3953   -4.0070    9.8138 N   0  0  1  0  0  0  0  0  0  0  0  0
  1  2  1  0  0  0  0
  3  1  1  6  0  0  0
  3  4  1  0  0  0  0
  3  5  1  0  0  0  0
  5  6  1  1  0  0  0
  5  7  1  0  0  0  0
  7  8  1  0  0  0  0
  8  4  1  6  0  0  0
  8 19  1  0  0  0  0
  9 15  1  0  0  0  0
  9 10  1  0  0  0  0
 10 11  1  6  0  0  0
 10 12  1  0  0  0  0
 13 12  1  6  0  0  0
 13 14  1  0  0  0  0
 13 19  1  0  0  0  0
 14 15  1  1  0  0  0
 14 17  1  0  0  0  0
 15 16  2  0  0  0  0
 17 18  1  0  0  0  0
 19 18  1  1  0  0  0
M  END
>  <CHROM.1>
-57.47926402,-152.86357039,-6.55775850,-3.82959813,9.54421888,-2.10787487
0.19917786,0.18847502

>  <Name>
ligand

>  <RI>
0

>  <Rbt.Current_Directory>
/home/itssahil/PROJECTS/Mol_Feturizer/New_Systems/rnas/3SKI

>  <Rbt.Executable>
rbdock ($Id: //depot/dev/client3/rdock/2013.1/src/exe/rbdock.cxx#4 $)

>  <Rbt.Library>
libRbt.so (2013.1, Build901 2013/11/27)

>  <Rbt.Parameter_File>
/export/apps/rDock/src/rDock_2013.1_src/data/scripts/dock_solv.prm

>  <Rbt.Receptor>
prm/pocket_docking_3.prm

>  <SCORE>
-17.2818

>  <SCORE.INTER>
-14.2025

>  <SCORE.INTER.CONST>
1

>  <SCORE.INTER.POLAR>
0

>  <SCORE.INTER.ROT>
2

>  <SCORE.INTER.SOLV>
18.2624

>  <SCORE.INTER.VDW>
-20.4891

>  <SCORE.INTER.norm>
-0.7475

>  <SCORE.INTRA>
-3.07934

>  <SCORE.INTRA.DIHEDRAL>
-5.02339

>  <SCORE.INTRA.DIHEDRAL.0>
6.26853

>  <SCORE.INTRA.POLAR>
0

>  <SCORE.INTRA.POLAR.0>
0

>  <SCORE.INTRA.REPUL>
0

>  <SCORE.INTRA.REPUL.0>
0

>  <SCORE.INTRA.SOLV>
0.292569

>  <SCORE.INTRA.SOLV.lig_0>
-38.4926

>  <SCORE.INTRA.VDW>
-0.713929

>  <SCORE.INTRA.VDW.0>
-0.59057

>  <SCORE.INTRA.norm>
-0.16207

>  <SCORE.RESTR>
0

>  <SCORE.RESTR.CAVITY>
0

>  <SCORE.RESTR.norm>
0

>  <SCORE.SYSTEM>
0

>  <SCORE.SYSTEM.CONST>
0

>  <SCORE.SYSTEM.DIHEDRAL>
0

>  <SCORE.SYSTEM.SOLV>
0

>  <SCORE.SYSTEM.norm>
0

>  <SCORE.heavy>
19

>  <SCORE.norm>
-0.909571

>  <RMSD>
1.516

$$$$
ligand
 OpenBabel11021811483D
libRbt.so/2013.1/901 2013/11/27
 19 21  0  0  0  0  0  0  0  0999 V2000
   -7.5052   -7.9247    9.2884 C   0  0  0  0  0  0  0  0  0  0  0  0
   -6.4211   -7.4141    8.4984 O   0  0  0  0  0  0  0  0  0  0  0  0
   -8.3370   -6.7740    9.8594 C   0  0  1  0  0  0  0  0  0  0  0  0
   -7.5163   -5.8985   10.6562 O   0  0  0  0  0  0  0  0  0  0  0  0
   -8.9411   -5.9332    8.7485 C   0  0  1  0  0  0  0  0  0  0  0  0
  -10.3378   -6.2117    8.5903 O   0  0  0  0  0  0  0  0  0  0  0  0
   -8.7315   -4.4927    9.1623 C   0  0  0  0  0  0  0  0  0  0  0  0
   -7.6977   -4.5260   10.2785 C   0  0  2  0  0  0  0  0  0  0  0  0
   -4.8077   -0.1660    9.7969 N   0  0  0  0  0  0  0  0  0  0  0  0
   -6.0592   -0.3292   10.3042 C   0  0  1  0  0  0  0  0  0  0  0  0
   -6.7249    0.7522   10.7748 N   0  0  0  0  0  0  0  0  0  0  0  0
   -6.6581   -1.5505   10.3456 N   0  0  0  0  0  0  0  0  0  0  0  0
   -6.0344   -2.6683    9.8840 C   0  0  2  0  0  0  0  0  0  0  0  0
   -4.7603   -2.5628    9.3561 C   0  0  1  0  0  0  0  0  0  0  0  0
   -4.1173   -1.2246    9.3186 C   0  0  0  0  0  0  0  0  0  0  0  0
   -2.9637   -1.0791    8.8559 O   0  0  0  0  0  0  0  0  0  0  0  0
   -4.3685   -3.7929    8.9809 N   0  0  0  0  0  0  0  0  0  0  0  0
   -5.3810   -4.6455    9.2637 C   0  0  0  0  0  0  0  0  0  0  0  0
   -6.3978   -3.9575    9.8143 N   0  0  1  0  0  0  0  0  0  0  0  0
  1  2  1  0  0  0  0
  3  1  1  6  0  0  0
  3  4  1  0  0  0  0
  3  5  1  0  0  0  0
  5  6  1  1  0  0  0
  5  7  1  0  0  0  0
  7  8  1  0  0  0  0
  8  4  1  6  0  0  0
  8 19  1  0  0  0  0
  9 15  1  0  0  0  0
  9 10  1  0  0  0  0
 10 11  1  6  0  0  0
 10 12  1  0  0  0  0
 13 12  1  6  0  0  0
 13 14  1  0  0  0  0
 13 19  1  0  0  0  0
 14 15  1  1  0  0  0
 14 17  1  0  0  0  0
 15 16  2  0  0  0  0
 17 18  1  0  0  0  0
 19 18  1  1  0  0  0
M  END
>  <CHROM.1>
-57.94348643,-152.09000474,-6.54994493,-3.78079642,9.55151294,-2.10515419
0.18114795,0.20105643

>  <Name>
ligand

>  <RI>
0

>  <Rbt.Current_Directory>
/home/itssahil/PROJECTS/Mol_Feturizer/New_Systems/rnas/3SKI

>  <Rbt.Executable>
rbdock ($Id: //depot/dev/client3/rdock/2013.1/src/exe/rbdock.cxx#4 $)

>  <Rbt.Library>
libRbt.so (2013.1, Build901 2013/11/27)

>  <Rbt.Parameter_File>
/export/apps/rDock/src/rDock_2013.1_src/data/scripts/dock_solv.prm

>  <Rbt.Receptor>
prm/pocket_docking_5.prm

>  <SCORE>
-17.3121

>  <SCORE.INTER>
-14.2292

>  <SCORE.INTER.CONST>
1

>  <SCORE.INTER.POLAR>
0

>  <SCORE.INTER.ROT>
2

>  <SCORE.INTER.SOLV>
18.4426

>  <SCORE.INTER.VDW>
-20.567

>  <SCORE.INTER.norm>
-0.748904

>  <SCORE.INTRA>
-3.08293

>  <SCORE.INTRA.DIHEDRAL>
-5.03111

>  <SCORE.INTRA.DIHEDRAL.0>
6.26853

>  <SCORE.INTRA.POLAR>
0

>  <SCORE.INTRA.POLAR.0>
0

>  <SCORE.INTRA.REPUL>
0

>  <SCORE.INTRA.REPUL.0>
0

>  <SCORE.INTRA.SOLV>
0.293525

>  <SCORE.INTRA.SOLV.lig_0>
-38.4926

>  <SCORE.INTRA.VDW>
-0.714142

>  <SCORE.INTRA.VDW.0>
-0.59057

>  <SCORE.INTRA.norm>
-0.16226

>  <SCORE.RESTR>
0

>  <SCORE.RESTR.CAVITY>
0

>  <SCORE.RESTR.norm>
0

>  <SCORE.SYSTEM>
0

>  <SCORE.SYSTEM.CONST>
0

>  <SCORE.SYSTEM.DIHEDRAL>
0

>  <SCORE.SYSTEM.SOLV>
0

>  <SCORE.SYSTEM.norm>
0

>  <SCORE.heavy>
19

>  <SCORE.norm>
-0.911163

>  <RMSD>
1.529

$$$$
ligand
 OpenBabel11021811483D
libRbt.so/2013.1/901 2013/11/27
 19 21  0  0  0  0  0  0  0  0999 V2000
   -7.4975   -7.9182    9.2743 C   0  0  0  0  0  0  0  0  0  0  0  0
   -6.4264   -7.4050    8.4683 O   0  0  0  0  0  0  0  0  0  0  0  0
   -8.3141   -6.7693    9.8701 C   0  0  1  0  0  0  0  0  0  0  0  0
   -7.4767   -5.9073   10.6642 O   0  0  0  0  0  0  0  0  0  0  0  0
   -8.9298   -5.9129    8.7777 C   0  0  1  0  0  0  0  0  0  0  0  0
  -10.3303   -6.1819    8.6372 O   0  0  0  0  0  0  0  0  0  0  0  0
   -8.7058   -4.4783    9.2041 C   0  0  0  0  0  0  0  0  0  0  0  0
   -7.6559   -4.5296   10.3043 C   0  0  2  0  0  0  0  0  0  0  0  0
   -4.7724   -0.1710    9.7740 N   0  0  0  0  0  0  0  0  0  0  0  0
   -6.0200   -0.3317   10.2914 C   0  0  1  0  0  0  0  0  0  0  0  0
   -6.6830    0.7522   10.7599 N   0  0  0  0  0  0  0  0  0  0  0  0
   -6.6178   -1.5531   10.3449 N   0  0  0  0  0  0  0  0  0  0  0  0
   -5.9967   -2.6734    9.8859 C   0  0  2  0  0  0  0  0  0  0  0  0
   -4.7265   -2.5705    9.3481 C   0  0  1  0  0  0  0  0  0  0  0  0
   -4.0847   -1.2322    9.2974 C   0  0  0  0  0  0  0  0  0  0  0  0
   -2.9346   -1.0889    8.8255 O   0  0  0  0  0  0  0  0  0  0  0  0
   -4.3366   -3.8027    8.9780 N   0  0  0  0  0  0  0  0  0  0  0  0
   -5.3464   -4.6542    9.2736 C   0  0  0  0  0  0  0  0  0  0  0  0
   -6.3597   -3.9633    9.8271 N   0  0  1  0  0  0  0  0  0  0  0  0
  1  2  1  0  0  0  0
  3  1  1  6  0  0  0
  3  4  1  0  0  0  0
  3  5  1  0  0  0  0
  5  6  1  1  0  0  0
  5  7  1  0  0  0  0
  7  8  1  0  0  0  0
  8  4  1  6  0  0  0
  8 19  1  0  0  0  0
  9 15  1  0  0  0  0
  9 10  1  0  0  0  0
 10 11  1  6  0  0  0
 10 12  1  0  0  0  0
 13 12  1  6  0  0  0
 13 14  1  0  0  0  0
 13 19  1  0  0  0  0
 14 15  1  1  0  0  0
 14 17  1  0  0  0  0
 15 16  2  0  0  0  0
 17 18  1  0  0  0  0
 19 18  1  1  0  0  0
M  END
>  <CHROM.1>
-58.23801000,-153.23554135,-6.52178063,-3.78007311,9.55299754,-2.11028418
0.18839366,0.20127295

>  <Name>
ligand

>  <RI>
0

>  <Rbt.Current_Directory>
/home/itssahil/PROJECTS/Mol_Feturizer/New_Systems/rnas/3SKI

>  <Rbt.Executable>
rbdock ($Id: //depot/dev/client3/rdock/2013.1/src/exe/rbdock.cxx#4 $)

>  <Rbt.Library>
libRbt.so (2013.1, Build901 2013/11/27)

>  <Rbt.Parameter_File>
/export/apps/rDock/src/rDock_2013.1_src/data/scripts/dock_solv.prm

>  <Rbt.Receptor>
prm/pocket_docking_3.prm

>  <SCORE>
-17.2833

>  <SCORE.INTER>
-14.2038

>  <SCORE.INTER.CONST>
1

>  <SCORE.INTER.POLAR>
0

>  <SCORE.INTER.ROT>
2

>  <SCORE.INTER.SOLV>
18.3561

>  <SCORE.INTER.VDW>
-20.5212

>  <SCORE.INTER.norm>
-0.747567

>  <SCORE.INTRA>
-3.07957

>  <SCORE.INTRA.DIHEDRAL>
-5.03544

>  <SCORE.INTRA.DIHEDRAL.0>
6.26853

>  <SCORE.INTRA.POLAR>
0

>  <SCORE.INTRA.POLAR.0>
0

>  <SCORE.INTRA.REPUL>
0

>  <SCORE.INTRA.REPUL.0>
0

>  <SCORE.INTRA.SOLV>
0.293046

>  <SCORE.INTRA.SOLV.lig_0>
-38.4926

>  <SCORE.INTRA.VDW>
-0.708368

>  <SCORE.INTRA.VDW.0>
-0.59057

>  <SCORE.INTRA.norm>
-0.162082

>  <SCORE.RESTR>
0

>  <SCORE.RESTR.CAVITY>
0

>  <SCORE.RESTR.norm>
0

>  <SCORE.SYSTEM>
0

>  <SCORE.SYSTEM.CONST>
0

>  <SCORE.SYSTEM.DIHEDRAL>
0

>  <SCORE.SYSTEM.SOLV>
0

>  <SCORE.SYSTEM.norm>
0

>  <SCORE.heavy>
19

>  <SCORE.norm>
-0.909649

>  <RMSD>
1.531

$$$$
ligand
 OpenBabel11021811483D
libRbt.so/2013.1/901 2013/11/27
 19 21  0  0  0  0  0  0  0  0999 V2000
   -7.5271   -7.9393    9.2476 C   0  0  0  0  0  0  0  0  0  0  0  0
   -6.4266   -7.4268    8.4818 O   0  0  0  0  0  0  0  0  0  0  0  0
   -8.3421   -6.7901    9.8450 C   0  0  1  0  0  0  0  0  0  0  0  0
   -7.5043   -5.9330   10.6442 O   0  0  0  0  0  0  0  0  0  0  0  0
   -8.9523   -5.9283    8.7537 C   0  0  1  0  0  0  0  0  0  0  0  0
  -10.3532   -6.1929    8.6085 O   0  0  0  0  0  0  0  0  0  0  0  0
   -8.7254   -4.4958    9.1853 C   0  0  0  0  0  0  0  0  0  0  0  0
   -7.6786   -4.5537   10.2882 C   0  0  2  0  0  0  0  0  0  0  0  0
   -4.7951   -0.1963    9.7485 N   0  0  0  0  0  0  0  0  0  0  0  0
   -6.0463   -0.3545   10.2581 C   0  0  1  0  0  0  0  0  0  0  0  0
   -6.7135    0.7320   10.7144 N   0  0  0  0  0  0  0  0  0  0  0  0
   -6.6434   -1.5761   10.3157 N   0  0  0  0  0  0  0  0  0  0  0  0
   -6.0180   -2.6990    9.8690 C   0  0  2  0  0  0  0  0  0  0  0  0
   -4.7441   -2.5986    9.3396 C   0  0  1  0  0  0  0  0  0  0  0  0
   -4.1031   -1.2601    9.2842 C   0  0  0  0  0  0  0  0  0  0  0  0
   -2.9498   -1.1190    8.8195 O   0  0  0  0  0  0  0  0  0  0  0  0
   -4.3505   -3.8330    8.9808 N   0  0  0  0  0  0  0  0  0  0  0  0
   -5.3618   -4.6833    9.2750 C   0  0  0  0  0  0  0  0  0  0  0  0
   -6.3795   -3.9895    9.8164 N   0  0  1  0  0  0  0  0  0  0  0  0
  1  2  1  0  0  0  0
  3  1  1  6  0  0  0
  3  4  1  0  0  0  0
  3  5  1  0  0  0  0
  5  6  1  1  0  0  0
  5  7  1  0  0  0  0
  7  8  1  0  0  0  0
  8  4  1  6  0  0  0
  8 19  1  0  0  0  0
  9 15  1  0  0  0  0
  9 10  1  0  0  0  0
 10 11  1  6  0  0  0
 10 12  1  0  0  0  0
 13 12  1  6  0  0  0
 13 14  1  0  0  0  0
 13 19  1  0  0  0  0
 14 15  1  1  0  0  0
 14 17  1  0  0  0  0
 15 16  2  0  0  0  0
 17 18  1  0  0  0  0
 19 18  1  1  0  0  0
M  END
>  <CHROM.1>
-56.36997213,-153.90505258,-6.54269096,-3.80342099,9.53574289,-2.10997503
0.17933474,0.19509129

>  <Name>
ligand

>  <RI>
0

>  <Rbt.Current_Directory>
/home/itssahil/PROJECTS/Mol_Feturizer/New_Systems/rnas/3SKI

>  <Rbt.Executable>
rbdock ($Id: //depot/dev/client3/rdock/2013.1/src/exe/rbdock.cxx#4 $)

>  <Rbt.Library>
libRbt.so (2013.1, Build901 2013/11/27)

>  <Rbt.Parameter_File>
/export/apps/rDock/src/rDock_2013.1_src/data/scripts/dock_solv.prm

>  <Rbt.Receptor>
prm/pocket_docking_6.prm

>  <SCORE>
-17.3026

>  <SCORE.INTER>
-14.2334

>  <SCORE.INTER.CONST>
1

>  <SCORE.INTER.POLAR>
0

>  <SCORE.INTER.ROT>
2

>  <SCORE.INTER.SOLV>
18.3393

>  <SCORE.INTER.VDW>
-20.5354

>  <SCORE.INTER.norm>
-0.749126

>  <SCORE.INTRA>
-3.06925

>  <SCORE.INTRA.DIHEDRAL>
-4.99864

>  <SCORE.INTRA.DIHEDRAL.0>
6.26853

>  <SCORE.INTRA.POLAR>
0

>  <SCORE.INTRA.POLAR.0>
0

>  <SCORE.INTRA.REPUL>
0

>  <SCORE.INTRA.REPUL.0>
0

>  <SCORE.INTRA.SOLV>
0.290664

>  <SCORE.INTRA.SOLV.lig_0>
-38.4926

>  <SCORE.INTRA.VDW>
-0.715268

>  <SCORE.INTRA.VDW.0>
-0.59057

>  <SCORE.INTRA.norm>
-0.16154

>  <SCORE.RESTR>
0

>  <SCORE.RESTR.CAVITY>
0

>  <SCORE.RESTR.norm>
0

>  <SCORE.SYSTEM>
0

>  <SCORE.SYSTEM.CONST>
0

>  <SCORE.SYSTEM.DIHEDRAL>
0

>  <SCORE.SYSTEM.SOLV>
0

>  <SCORE.SYSTEM.norm>
0

>  <SCORE.heavy>
19

>  <SCORE.norm>
-0.910666

>  <RMSD>
1.540

$$$$
ligand
 OpenBabel11021811483D
libRbt.so/2013.1/901 2013/11/27
 19 21  0  0  0  0  0  0  0  0999 V2000
   -7.5532   -7.9497    9.2436 C   0  0  0  0  0  0  0  0  0  0  0  0
   -6.4321   -7.4396    8.5065 O   0  0  0  0  0  0  0  0  0  0  0  0
   -8.3697   -6.7991    9.8362 C   0  0  1  0  0  0  0  0  0  0  0  0
   -7.5372   -5.9490   10.6483 O   0  0  0  0  0  0  0  0  0  0  0  0
   -8.9635   -5.9302    8.7415 C   0  0  1  0  0  0  0  0  0  0  0  0
  -10.3638   -6.1878    8.5793 O   0  0  0  0  0  0  0  0  0  0  0  0
   -8.7350   -4.5005    9.1815 C   0  0  0  0  0  0  0  0  0  0  0  0
   -7.7012   -4.5675   10.2960 C   0  0  2  0  0  0  0  0  0  0  0  0
   -4.7745   -0.2285    9.8478 N   0  0  0  0  0  0  0  0  0  0  0  0
   -6.0300   -0.3839   10.3475 C   0  0  1  0  0  0  0  0  0  0  0  0
   -6.6898    0.7008   10.8188 N   0  0  0  0  0  0  0  0  0  0  0  0
   -6.6387   -1.6006   10.3807 N   0  0  0  0  0  0  0  0  0  0  0  0
   -6.0212   -2.7214    9.9181 C   0  0  2  0  0  0  0  0  0  0  0  0
   -4.7433   -2.6239    9.3977 C   0  0  1  0  0  0  0  0  0  0  0  0
   -4.0897   -1.2906    9.3690 C   0  0  0  0  0  0  0  0  0  0  0  0
   -2.9325   -1.1523    8.9133 O   0  0  0  0  0  0  0  0  0  0  0  0
   -4.3591   -3.8555    9.0198 N   0  0  0  0  0  0  0  0  0  0  0  0
   -5.3798   -4.7013    9.2936 C   0  0  0  0  0  0  0  0  0  0  0  0
   -6.3943   -4.0075    9.8413 N   0  0  1  0  0  0  0  0  0  0  0  0
  1  2  1  0  0  0  0
  3  1  1  6  0  0  0
  3  4  1  0  0  0  0
  3  5  1  0  0  0  0
  5  6  1  1  0  0  0
  5  7  1  0  0  0  0
  7  8  1  0  0  0  0
  8  4  1  6  0  0  0
  8 19  1  0  0  0  0
  9 15  1  0  0  0  0
  9 10  1  0  0  0  0
 10 11  1  6  0  0  0
 10 12  1  0  0  0  0
 13 12  1  6  0  0  0
 13 14  1  0  0  0  0
 13 19  1  0  0  0  0
 14 15  1  1  0  0  0
 14 17  1  0  0  0  0
 15 16  2  0  0  0  0
 17 18  1  0  0  0  0
 19 18  1  1  0  0  0
M  END
>  <CHROM.1>
-55.64579604,-153.03419574,-6.54780439,-3.82160005,9.57203146,-2.11464732
0.17131254,0.20820641

>  <Name>
ligand

>  <RI>
0

>  <Rbt.Current_Directory>
/home/itssahil/PROJECTS/Mol_Feturizer/New_Systems/rnas/3SKI

>  <Rbt.Executable>
rbdock ($Id: //depot/dev/client3/rdock/2013.1/src/exe/rbdock.cxx#4 $)

>  <Rbt.Library>
libRbt.so (2013.1, Build901 2013/11/27)

>  <Rbt.Parameter_File>
/export/apps/rDock/src/rDock_2013.1_src/data/scripts/dock_solv.prm

>  <Rbt.Receptor>
prm/pocket_docking_4.prm

>  <SCORE>
-17.2833

>  <SCORE.INTER>
-14.2186

>  <SCORE.INTER.CONST>
1

>  <SCORE.INTER.POLAR>
0

>  <SCORE.INTER.ROT>
2

>  <SCORE.INTER.SOLV>
18.3056

>  <SCORE.INTER.VDW>
-20.5143

>  <SCORE.INTER.norm>
-0.748349

>  <SCORE.INTRA>
-3.06472

>  <SCORE.INTRA.DIHEDRAL>
-4.97747

>  <SCORE.INTRA.DIHEDRAL.0>
6.26853

>  <SCORE.INTRA.POLAR>
0

>  <SCORE.INTRA.POLAR.0>
0

>  <SCORE.INTRA.REPUL>
0

>  <SCORE.INTRA.REPUL.0>
0

>  <SCORE.INTRA.SOLV>
0.290373

>  <SCORE.INTRA.SOLV.lig_0>
-38.4926

>  <SCORE.INTRA.VDW>
-0.721173

>  <SCORE.INTRA.VDW.0>
-0.59057

>  <SCORE.INTRA.norm>
-0.161301

>  <SCORE.RESTR>
0

>  <SCORE.RESTR.CAVITY>
0

>  <SCORE.RESTR.norm>
0

>  <SCORE.SYSTEM>
0

>  <SCORE.SYSTEM.CONST>
0

>  <SCORE.SYSTEM.DIHEDRAL>
0

>  <SCORE.SYSTEM.SOLV>
0

>  <SCORE.SYSTEM.norm>
0

>  <SCORE.heavy>
19

>  <SCORE.norm>
-0.90965

>  <RMSD>
1.543

$$$$
ligand
 OpenBabel11021811483D
libRbt.so/2013.1/901 2013/11/27
 19 21  0  0  0  0  0  0  0  0999 V2000
   -7.4599   -7.8658    8.6603 C   0  0  0  0  0  0  0  0  0  0  0  0
   -8.3864   -8.6044    7.8502 O   0  0  0  0  0  0  0  0  0  0  0  0
   -8.2039   -6.8495    9.5294 C   0  0  1  0  0  0  0  0  0  0  0  0
   -7.2860   -6.1416   10.3846 O   0  0  0  0  0  0  0  0  0  0  0  0
   -8.9094   -5.8120    8.6739 C   0  0  1  0  0  0  0  0  0  0  0  0
  -10.3199   -6.0591    8.6194 O   0  0  0  0  0  0  0  0  0  0  0  0
   -8.6302   -4.4778    9.3311 C   0  0  0  0  0  0  0  0  0  0  0  0
   -7.4824   -4.7225   10.2998 C   0  0  2  0  0  0  0  0  0  0  0  0
   -4.9167   -0.1765    9.7137 N   0  0  0  0  0  0  0  0  0  0  0  0
   -6.1492   -0.4194   10.2352 C   0  0  1  0  0  0  0  0  0  0  0  0
   -6.8871    0.6201   10.6924 N   0  0  0  0  0  0  0  0  0  0  0  0
   -6.6585   -1.6795   10.3040 N   0  0  0  0  0  0  0  0  0  0  0  0
   -5.9598   -2.7581    9.8568 C   0  0  2  0  0  0  0  0  0  0  0  0
   -4.7007   -2.5715    9.3155 C   0  0  1  0  0  0  0  0  0  0  0  0
   -4.1558   -1.1916    9.2481 C   0  0  0  0  0  0  0  0  0  0  0  0
   -3.0193   -0.9724    8.7724 O   0  0  0  0  0  0  0  0  0  0  0  0
   -4.2246   -3.7771    8.9589 N   0  0  0  0  0  0  0  0  0  0  0  0
   -5.1711   -4.6946    9.2662 C   0  0  0  0  0  0  0  0  0  0  0  0
   -6.2303   -4.0711    9.8136 N   0  0  1  0  0  0  0  0  0  0  0  0
  1  2  1  0  0  0  0
  3  1  1  6  0  0  0
  3  4  1  0  0  0  0
  3  5  1  0  0  0  0
  5  6  1  1  0  0  0
  5  7  1  0  0  0  0
  7  8  1  0  0  0  0
  8  4  1  6  0  0  0
  8 19  1  0  0  0  0
  9 15  1  0  0  0  0
  9 10  1  0  0  0  0
 10 11  1  6  0  0  0
 10 12  1  0  0  0  0
 13 12  1  6  0  0  0
 13 14  1  0  0  0  0
 13 19  1  0  0  0  0
 14 15  1  1  0  0  0
 14 17  1  0  0  0  0
 15 16  2  0  0  0  0
 17 18  1  0  0  0  0
 19 18  1  1  0  0  0
M  END
>  <CHROM.1>
177.68165776,-166.31790303,-6.61966181,-3.88550118,9.42632553,-2.10199612
0.17675206,0.24197618

>  <Name>
ligand

>  <RI>
0

>  <Rbt.Current_Directory>
/home/itssahil/PROJECTS/Mol_Feturizer/New_Systems/rnas/3SKI

>  <Rbt.Executable>
rbdock ($Id: //depot/dev/client3/rdock/2013.1/src/exe/rbdock.cxx#4 $)

>  <Rbt.Library>
libRbt.so (2013.1, Build901 2013/11/27)

>  <Rbt.Parameter_File>
/export/apps/rDock/src/rDock_2013.1_src/data/scripts/dock_solv.prm

>  <Rbt.Receptor>
prm/pocket_docking_3.prm

>  <SCORE>
-17.8659

>  <SCORE.INTER>
-14.9295

>  <SCORE.INTER.CONST>
1

>  <SCORE.INTER.POLAR>
0

>  <SCORE.INTER.ROT>
2

>  <SCORE.INTER.SOLV>
18.669

>  <SCORE.INTER.VDW>
-21.1094

>  <SCORE.INTER.norm>
-0.785765

>  <SCORE.INTRA>
-2.93634

>  <SCORE.INTRA.DIHEDRAL>
-5.03501

>  <SCORE.INTRA.DIHEDRAL.0>
6.26853

>  <SCORE.INTRA.POLAR>
0

>  <SCORE.INTRA.POLAR.0>
0

>  <SCORE.INTRA.REPUL>
0

>  <SCORE.INTRA.REPUL.0>
0

>  <SCORE.INTRA.SOLV>
-0.0232037

>  <SCORE.INTRA.SOLV.lig_0>
-38.4926

>  <SCORE.INTRA.VDW>
-0.407234

>  <SCORE.INTRA.VDW.0>
-0.59057

>  <SCORE.INTRA.norm>
-0.154544

>  <SCORE.RESTR>
0

>  <SCORE.RESTR.CAVITY>
0

>  <SCORE.RESTR.norm>
0

>  <SCORE.SYSTEM>
0

>  <SCORE.SYSTEM.CONST>
0

>  <SCORE.SYSTEM.DIHEDRAL>
0

>  <SCORE.SYSTEM.SOLV>
0

>  <SCORE.SYSTEM.norm>
0

>  <SCORE.heavy>
19

>  <SCORE.norm>
-0.940309

>  <RMSD>
1.877

$$$$
ligand
 OpenBabel11021811483D
libRbt.so/2013.1/901 2013/11/27
 19 21  0  0  0  0  0  0  0  0999 V2000
   -7.4767   -7.7990    8.6329 C   0  0  0  0  0  0  0  0  0  0  0  0
   -8.4201   -8.4984    7.8076 O   0  0  0  0  0  0  0  0  0  0  0  0
   -8.1972   -6.7858    9.5251 C   0  0  1  0  0  0  0  0  0  0  0  0
   -7.2606   -6.1048   10.3818 O   0  0  0  0  0  0  0  0  0  0  0  0
   -8.8958   -5.7249    8.6929 C   0  0  1  0  0  0  0  0  0  0  0  0
  -10.3102   -5.9507    8.6488 O   0  0  0  0  0  0  0  0  0  0  0  0
   -8.5905   -4.4054    9.3679 C   0  0  0  0  0  0  0  0  0  0  0  0
   -7.4370   -4.6818   10.3210 C   0  0  2  0  0  0  0  0  0  0  0  0
   -4.8103   -0.1650    9.7804 N   0  0  0  0  0  0  0  0  0  0  0  0
   -6.0411   -0.3982   10.3106 C   0  0  1  0  0  0  0  0  0  0  0  0
   -6.7590    0.6446   10.7916 N   0  0  0  0  0  0  0  0  0  0  0  0
   -6.5683   -1.6517   10.3647 N   0  0  0  0  0  0  0  0  0  0  0  0
   -5.8900   -2.7331    9.8935 C   0  0  2  0  0  0  0  0  0  0  0  0
   -4.6338   -2.5563    9.3424 C   0  0  1  0  0  0  0  0  0  0  0  0
   -4.0692   -1.1836    9.2911 C   0  0  0  0  0  0  0  0  0  0  0  0
   -2.9344   -0.9736    8.8073 O   0  0  0  0  0  0  0  0  0  0  0  0
   -4.1791   -3.7629    8.9621 N   0  0  0  0  0  0  0  0  0  0  0  0
   -5.1359   -4.6713    9.2645 C   0  0  0  0  0  0  0  0  0  0  0  0
   -6.1803   -4.0412    9.8324 N   0  0  1  0  0  0  0  0  0  0  0  0
  1  2  1  0  0  0  0
  3  1  1  6  0  0  0
  3  4  1  0  0  0  0
  3  5  1  0  0  0  0
  5  6  1  1  0  0  0
  5  7  1  0  0  0  0
  7  8  1  0  0  0  0
  8  4  1  6  0  0  0
  8 19  1  0  0  0  0
  9 15  1  0  0  0  0
  9 10  1  0  0  0  0
 10 11  1  6  0  0  0
 10 12  1  0  0  0  0
 13 12  1  6  0  0  0
 13 14  1  0  0  0  0
 13 19  1  0  0  0  0
 14 15  1  1  0  0  0
 14 17  1  0  0  0  0
 15 16  2  0  0  0  0
 17 18  1  0  0  0  0
 19 18  1  1  0  0  0
M  END
>  <CHROM.1>
178.47747270,-166.30239481,-6.57047353,-3.84311863,9.45139254,-2.11919765
0.18321261,0.26154444

>  <Name>
ligand

>  <RI>
0

>  <Rbt.Current_Directory>
/home/itssahil/PROJECTS/Mol_Feturizer/New_Systems/rnas/3SKI

>  <Rbt.Executable>
rbdock ($Id: //depot/dev/client3/rdock/2013.1/src/exe/rbdock.cxx#4 $)

>  <Rbt.Library>
libRbt.so (2013.1, Build901 2013/11/27)

>  <Rbt.Parameter_File>
/export/apps/rDock/src/rDock_2013.1_src/data/scripts/dock_solv.prm

>  <Rbt.Receptor>
prm/pocket_docking_4.prm

>  <SCORE>
-17.8751

>  <SCORE.INTER>
-14.9415

>  <SCORE.INTER.CONST>
1

>  <SCORE.INTER.POLAR>
0

>  <SCORE.INTER.ROT>
2

>  <SCORE.INTER.SOLV>
18.4981

>  <SCORE.INTER.VDW>
-21.0604

>  <SCORE.INTER.norm>
-0.786397

>  <SCORE.INTRA>
-2.9335

>  <SCORE.INTRA.DIHEDRAL>
-5.04575

>  <SCORE.INTRA.DIHEDRAL.0>
6.26853

>  <SCORE.INTRA.POLAR>
0

>  <SCORE.INTRA.POLAR.0>
0

>  <SCORE.INTRA.REPUL>
0

>  <SCORE.INTRA.REPUL.0>
0

>  <SCORE.INTRA.SOLV>
-0.0192441

>  <SCORE.INTRA.SOLV.lig_0>
-38.4926

>  <SCORE.INTRA.VDW>
-0.401009

>  <SCORE.INTRA.VDW.0>
-0.59057

>  <SCORE.INTRA.norm>
-0.154395

>  <SCORE.RESTR>
0

>  <SCORE.RESTR.CAVITY>
0

>  <SCORE.RESTR.norm>
0

>  <SCORE.SYSTEM>
0

>  <SCORE.SYSTEM.CONST>
0

>  <SCORE.SYSTEM.DIHEDRAL>
0

>  <SCORE.SYSTEM.SOLV>
0

>  <SCORE.SYSTEM.norm>
0

>  <SCORE.heavy>
19

>  <SCORE.norm>
-0.940792

>  <RMSD>
1.886

$$$$
ligand
 OpenBabel11021811483D
libRbt.so/2013.1/901 2013/11/27
 19 21  0  0  0  0  0  0  0  0999 V2000
   -7.4698   -7.8460    8.6202 C   0  0  0  0  0  0  0  0  0  0  0  0
   -8.4097   -8.5553    7.7994 O   0  0  0  0  0  0  0  0  0  0  0  0
   -8.1960   -6.8357    9.5112 C   0  0  1  0  0  0  0  0  0  0  0  0
   -7.2626   -6.1444   10.3631 O   0  0  0  0  0  0  0  0  0  0  0  0
   -8.9055   -5.7833    8.6776 C   0  0  1  0  0  0  0  0  0  0  0  0
  -10.3182   -6.0207    8.6381 O   0  0  0  0  0  0  0  0  0  0  0  0
   -8.6091   -4.4591    9.3475 C   0  0  0  0  0  0  0  0  0  0  0  0
   -7.4508   -4.7231   10.2983 C   0  0  2  0  0  0  0  0  0  0  0  0
   -4.8933   -0.1781    9.6696 N   0  0  0  0  0  0  0  0  0  0  0  0
   -6.1243   -0.4187   10.1958 C   0  0  1  0  0  0  0  0  0  0  0  0
   -6.8629    0.6234   10.6460 N   0  0  0  0  0  0  0  0  0  0  0  0
   -6.6316   -1.6790   10.2759 N   0  0  0  0  0  0  0  0  0  0  0  0
   -5.9322   -2.7601    9.8361 C   0  0  2  0  0  0  0  0  0  0  0  0
   -4.6745   -2.5760    9.2906 C   0  0  1  0  0  0  0  0  0  0  0  0
   -4.1318   -1.1959    9.2108 C   0  0  0  0  0  0  0  0  0  0  0  0
   -2.9966   -0.9789    8.7308 O   0  0  0  0  0  0  0  0  0  0  0  0
   -4.1972   -3.7837    8.9428 N   0  0  0  0  0  0  0  0  0  0  0  0
   -5.1417   -4.7002    9.2596 C   0  0  0  0  0  0  0  0  0  0  0  0
   -6.2007   -4.0738    9.8041 N   0  0  1  0  0  0  0  0  0  0  0  0
  1  2  1  0  0  0  0
  3  1  1  6  0  0  0
  3  4  1  0  0  0  0
  3  5  1  0  0  0  0
  5  6  1  1  0  0  0
  5  7  1  0  0  0  0
  7  8  1  0  0  0  0
  8  4  1  6  0  0  0
  8 19  1  0  0  0  0
  9 15  1  0  0  0  0
  9 10  1  0  0  0  0
 10 11  1  6  0  0  0
 10 12  1  0  0  0  0
 13 12  1  6  0  0  0
 13 14  1  0  0  0  0
 13 19  1  0  0  0  0
 14 15  1  1  0  0  0
 14 17  1  0  0  0  0
 15 16  2  0  0  0  0
 17 18  1  0  0  0  0
 19 18  1  1  0  0  0
M  END
>  <CHROM.1>
178.49855621,-167.71843644,-6.60226862,-3.87765297,9.40475241,-2.10816074
0.17803256,0.24117213

>  <Name>
ligand

>  <RI>
0

>  <Rbt.Current_Directory>
/home/itssahil/PROJECTS/Mol_Feturizer/New_Systems/rnas/3SKI

>  <Rbt.Executable>
rbdock ($Id: //depot/dev/client3/rdock/2013.1/src/exe/rbdock.cxx#4 $)

>  <Rbt.Library>
libRbt.so (2013.1, Build901 2013/11/27)

>  <Rbt.Parameter_File>
/export/apps/rDock/src/rDock_2013.1_src/data/scripts/dock_solv.prm

>  <Rbt.Receptor>
prm/blind_docking_100.prm

>  <SCORE>
-17.9267

>  <SCORE.INTER>
-15.0035

>  <SCORE.INTER.CONST>
1

>  <SCORE.INTER.POLAR>
0

>  <SCORE.INTER.ROT>
2

>  <SCORE.INTER.SOLV>
18.5889

>  <SCORE.INTER.VDW>
-21.132

>  <SCORE.INTER.norm>
-0.78966

>  <SCORE.INTRA>
-2.9232

>  <SCORE.INTRA.DIHEDRAL>
-5.04706

>  <SCORE.INTRA.DIHEDRAL.0>
6.26853

>  <SCORE.INTRA.POLAR>
0

>  <SCORE.INTRA.POLAR.0>
0

>  <SCORE.INTRA.REPUL>
0

>  <SCORE.INTRA.REPUL.0>
0

>  <SCORE.INTRA.SOLV>
-0.0195456

>  <SCORE.INTRA.SOLV.lig_0>
-38.4926

>  <SCORE.INTRA.VDW>
-0.389899

>  <SCORE.INTRA.VDW.0>
-0.59057

>  <SCORE.INTRA.norm>
-0.153853

>  <SCORE.RESTR>
0

>  <SCORE.RESTR.CAVITY>
0

>  <SCORE.RESTR.norm>
0

>  <SCORE.SYSTEM>
0

>  <SCORE.SYSTEM.CONST>
0

>  <SCORE.SYSTEM.DIHEDRAL>
0

>  <SCORE.SYSTEM.SOLV>
0

>  <SCORE.SYSTEM.norm>
0

>  <SCORE.heavy>
19

>  <SCORE.norm>
-0.943512

>  <RMSD>
1.891

$$$$
ligand
 OpenBabel11021811483D
libRbt.so/2013.1/901 2013/11/27
 19 21  0  0  0  0  0  0  0  0999 V2000
   -7.5041   -7.8221    8.5957 C   0  0  0  0  0  0  0  0  0  0  0  0
   -8.4628   -8.5113    7.7796 O   0  0  0  0  0  0  0  0  0  0  0  0
   -8.2078   -6.8203    9.5140 C   0  0  1  0  0  0  0  0  0  0  0  0
   -7.2555   -6.1513   10.3628 O   0  0  0  0  0  0  0  0  0  0  0  0
   -8.9203   -5.7482    8.7086 C   0  0  1  0  0  0  0  0  0  0  0  0
  -10.3355   -5.9726    8.6868 O   0  0  0  0  0  0  0  0  0  0  0  0
   -8.6020   -4.4379    9.3954 C   0  0  0  0  0  0  0  0  0  0  0  0
   -7.4318   -4.7275   10.3240 C   0  0  2  0  0  0  0  0  0  0  0  0
   -4.8415   -0.1959    9.7351 N   0  0  0  0  0  0  0  0  0  0  0  0
   -6.0663   -0.4344   10.2765 C   0  0  1  0  0  0  0  0  0  0  0  0
   -6.7877    0.6062   10.7569 N   0  0  0  0  0  0  0  0  0  0  0  0
   -6.5842   -1.6911   10.3424 N   0  0  0  0  0  0  0  0  0  0  0  0
   -5.9021   -2.7707    9.8724 C   0  0  2  0  0  0  0  0  0  0  0  0
   -4.6515   -2.5885    9.3102 C   0  0  1  0  0  0  0  0  0  0  0  0
   -4.0971   -1.2122    9.2462 C   0  0  0  0  0  0  0  0  0  0  0  0
   -2.9676   -0.9972    8.7521 O   0  0  0  0  0  0  0  0  0  0  0  0
   -4.1913   -3.7942    8.9336 N   0  0  0  0  0  0  0  0  0  0  0  0
   -5.1393   -4.7074    9.2492 C   0  0  0  0  0  0  0  0  0  0  0  0
   -6.1836   -4.0811    9.8215 N   0  0  1  0  0  0  0  0  0  0  0  0
  1  2  1  0  0  0  0
  3  1  1  6  0  0  0
  3  4  1  0  0  0  0
  3  5  1  0  0  0  0
  5  6  1  1  0  0  0
  5  7  1  0  0  0  0
  7  8  1  0  0  0  0
  8  4  1  6  0  0  0
  8 19  1  0  0  0  0
  9 15  1  0  0  0  0
  9 10  1  0  0  0  0
 10 11  1  6  0  0  0
 10 12  1  0  0  0  0
 13 12  1  6  0  0  0
 13 14  1  0  0  0  0
 13 19  1  0  0  0  0
 14 15  1  1  0  0  0
 14 17  1  0  0  0  0
 15 16  2  0  0  0  0
 17 18  1  0  0  0  0
 19 18  1  1  0  0  0
M  END
>  <CHROM.1>
178.39301078,-167.62381810,-6.58880790,-3.87517603,9.43293412,-2.12090480
0.19115937,0.26081873

>  <Name>
ligand

>  <RI>
0

>  <Rbt.Current_Directory>
/home/itssahil/PROJECTS/Mol_Feturizer/New_Systems/rnas/3SKI

>  <Rbt.Executable>
rbdock ($Id: //depot/dev/client3/rdock/2013.1/src/exe/rbdock.cxx#4 $)

>  <Rbt.Library>
libRbt.so (2013.1, Build901 2013/11/27)

>  <Rbt.Parameter_File>
/export/apps/rDock/src/rDock_2013.1_src/data/scripts/dock_solv.prm

>  <Rbt.Receptor>
prm/blind_docking_100.prm

>  <SCORE>
-17.9374

>  <SCORE.INTER>
-15.0129

>  <SCORE.INTER.CONST>
1

>  <SCORE.INTER.POLAR>
0

>  <SCORE.INTER.ROT>
2

>  <SCORE.INTER.SOLV>
18.4477

>  <SCORE.INTER.VDW>
-21.0912

>  <SCORE.INTER.norm>
-0.790154

>  <SCORE.INTRA>
-2.92445

>  <SCORE.INTRA.DIHEDRAL>
-5.04584

>  <SCORE.INTRA.DIHEDRAL.0>
6.26853

>  <SCORE.INTRA.POLAR>
0

>  <SCORE.INTRA.POLAR.0>
0

>  <SCORE.INTRA.REPUL>
0

>  <SCORE.INTRA.REPUL.0>
0

>  <SCORE.INTRA.SOLV>
-0.0200413

>  <SCORE.INTRA.SOLV.lig_0>
-38.4926

>  <SCORE.INTRA.VDW>
-0.391507

>  <SCORE.INTRA.VDW.0>
-0.59057

>  <SCORE.INTRA.norm>
-0.153918

>  <SCORE.RESTR>
0

>  <SCORE.RESTR.CAVITY>
0

>  <SCORE.RESTR.norm>
0

>  <SCORE.SYSTEM>
0

>  <SCORE.SYSTEM.CONST>
0

>  <SCORE.SYSTEM.DIHEDRAL>
0

>  <SCORE.SYSTEM.SOLV>
0

>  <SCORE.SYSTEM.norm>
0

>  <SCORE.heavy>
19

>  <SCORE.norm>
-0.944072

>  <RMSD>
1.901

$$$$
ligand
 OpenBabel11021811483D
libRbt.so/2013.1/901 2013/11/27
 19 21  0  0  0  0  0  0  0  0999 V2000
   -7.5219   -7.8588    8.6160 C   0  0  0  0  0  0  0  0  0  0  0  0
   -8.4377   -8.5537    7.7566 O   0  0  0  0  0  0  0  0  0  0  0  0
   -8.2667   -6.8267    9.4657 C   0  0  1  0  0  0  0  0  0  0  0  0
   -7.3543   -6.1275   10.3337 O   0  0  0  0  0  0  0  0  0  0  0  0
   -8.9410   -5.7840    8.5917 C   0  0  1  0  0  0  0  0  0  0  0  0
  -10.3538   -6.0108    8.5125 O   0  0  0  0  0  0  0  0  0  0  0  0
   -8.6543   -4.4503    9.2466 C   0  0  0  0  0  0  0  0  0  0  0  0
   -7.5282   -4.7061   10.2375 C   0  0  2  0  0  0  0  0  0  0  0  0
   -4.8386   -0.2173    9.7803 N   0  0  0  0  0  0  0  0  0  0  0  0
   -6.0782   -0.4408   10.2936 C   0  0  1  0  0  0  0  0  0  0  0  0
   -6.7884    0.6053   10.7786 N   0  0  0  0  0  0  0  0  0  0  0  0
   -6.6218   -1.6880   10.3269 N   0  0  0  0  0  0  0  0  0  0  0  0
   -5.9519   -2.7725    9.8508 C   0  0  2  0  0  0  0  0  0  0  0  0
   -4.6872   -2.6054    9.3162 C   0  0  1  0  0  0  0  0  0  0  0  0
   -4.1047   -1.2395    9.2877 C   0  0  0  0  0  0  0  0  0  0  0  0
   -2.9618   -1.0383    8.8194 O   0  0  0  0  0  0  0  0  0  0  0  0
   -4.2434   -3.8132    8.9269 N   0  0  0  0  0  0  0  0  0  0  0  0
   -5.2150   -4.7127    9.2077 C   0  0  0  0  0  0  0  0  0  0  0  0
   -6.2579   -4.0760    9.7710 N   0  0  1  0  0  0  0  0  0  0  0  0
  1  2  1  0  0  0  0
  3  1  1  6  0  0  0
  3  4  1  0  0  0  0
  3  5  1  0  0  0  0
  5  6  1  1  0  0  0
  5  7  1  0  0  0  0
  7  8  1  0  0  0  0
  8  4  1  6  0  0  0
  8 19  1  0  0  0  0
  9 15  1  0  0  0  0
  9 10  1  0  0  0  0
 10 11  1  6  0  0  0
 10 12  1  0  0  0  0
 13 12  1  6  0  0  0
 13 14  1  0  0  0  0
 13 19  1  0  0  0  0
 14 15  1  1  0  0  0
 14 17  1  0  0  0  0
 15 16  2  0  0  0  0
 17 18  1  0  0  0  0
 19 18  1  1  0  0  0
M  END
>  <CHROM.1>
179.84797075,-164.06021336,-6.62361180,-3.88928370,9.40350524,-2.11830464
0.17196583,0.26543286

>  <Name>
ligand

>  <RI>
0

>  <Rbt.Current_Directory>
/home/itssahil/PROJECTS/Mol_Feturizer/New_Systems/rnas/3SKI

>  <Rbt.Executable>
rbdock ($Id: //depot/dev/client3/rdock/2013.1/src/exe/rbdock.cxx#4 $)

>  <Rbt.Library>
libRbt.so (2013.1, Build901 2013/11/27)

>  <Rbt.Parameter_File>
/export/apps/rDock/src/rDock_2013.1_src/data/scripts/dock_solv.prm

>  <Rbt.Receptor>
prm/pocket_docking_5.prm

>  <SCORE>
-17.8333

>  <SCORE.INTER>
-14.8957

>  <SCORE.INTER.CONST>
1

>  <SCORE.INTER.POLAR>
0

>  <SCORE.INTER.ROT>
2

>  <SCORE.INTER.SOLV>
18.5713

>  <SCORE.INTER.VDW>
-21.0543

>  <SCORE.INTER.norm>
-0.783986

>  <SCORE.INTRA>
-2.93755

>  <SCORE.INTRA.DIHEDRAL>
-5.05196

>  <SCORE.INTRA.DIHEDRAL.0>
6.26853

>  <SCORE.INTRA.POLAR>
0

>  <SCORE.INTRA.POLAR.0>
0

>  <SCORE.INTRA.REPUL>
0

>  <SCORE.INTRA.REPUL.0>
0

>  <SCORE.INTRA.SOLV>
-0.0118733

>  <SCORE.INTRA.SOLV.lig_0>
-38.4926

>  <SCORE.INTRA.VDW>
-0.405628

>  <SCORE.INTRA.VDW.0>
-0.59057

>  <SCORE.INTRA.norm>
-0.154608

>  <SCORE.RESTR>
0

>  <SCORE.RESTR.CAVITY>
0

>  <SCORE.RESTR.norm>
0

>  <SCORE.SYSTEM>
0

>  <SCORE.SYSTEM.CONST>
0

>  <SCORE.SYSTEM.DIHEDRAL>
0

>  <SCORE.SYSTEM.SOLV>
0

>  <SCORE.SYSTEM.norm>
0

>  <SCORE.heavy>
19

>  <SCORE.norm>
-0.938594

>  <RMSD>
1.913

$$$$
ligand
 OpenBabel11021811483D
libRbt.so/2013.1/901 2013/11/27
 19 21  0  0  0  0  0  0  0  0999 V2000
   -7.4580   -7.9457    8.5238 C   0  0  0  0  0  0  0  0  0  0  0  0
   -8.4234   -8.6332    7.7141 O   0  0  0  0  0  0  0  0  0  0  0  0
   -8.1572   -6.9760    9.4792 C   0  0  1  0  0  0  0  0  0  0  0  0
   -7.1974   -6.3114   10.3231 O   0  0  0  0  0  0  0  0  0  0  0  0
   -8.9027   -5.8973    8.7135 C   0  0  1  0  0  0  0  0  0  0  0  0
  -10.3145   -6.1433    8.7160 O   0  0  0  0  0  0  0  0  0  0  0  0
   -8.5899   -4.5979    9.4233 C   0  0  0  0  0  0  0  0  0  0  0  0
   -7.3961   -4.8901   10.3205 C   0  0  2  0  0  0  0  0  0  0  0  0
   -4.9530   -0.2887    9.6488 N   0  0  0  0  0  0  0  0  0  0  0  0
   -6.1703   -0.5566   10.1935 C   0  0  1  0  0  0  0  0  0  0  0  0
   -6.9257    0.4689   10.6535 N   0  0  0  0  0  0  0  0  0  0  0  0
   -6.6473   -1.8280   10.2825 N   0  0  0  0  0  0  0  0  0  0  0  0
   -5.9299   -2.8935    9.8336 C   0  0  2  0  0  0  0  0  0  0  0  0
   -4.6850   -2.6815    9.2692 C   0  0  1  0  0  0  0  0  0  0  0  0
   -4.1753   -1.2894    9.1798 C   0  0  0  0  0  0  0  0  0  0  0  0
   -3.0527   -1.0472    8.6827 O   0  0  0  0  0  0  0  0  0  0  0  0
   -4.1855   -3.8785    8.9157 N   0  0  0  0  0  0  0  0  0  0  0  0
   -5.1038   -4.8159    9.2476 C   0  0  0  0  0  0  0  0  0  0  0  0
   -6.1687   -4.2131    9.8071 N   0  0  1  0  0  0  0  0  0  0  0  0
  1  2  1  0  0  0  0
  3  1  1  6  0  0  0
  3  4  1  0  0  0  0
  3  5  1  0  0  0  0
  5  6  1  1  0  0  0
  5  7  1  0  0  0  0
  7  8  1  0  0  0  0
  8  4  1  6  0  0  0
  8 19  1  0  0  0  0
  9 15  1  0  0  0  0
  9 10  1  0  0  0  0
 10 11  1  6  0  0  0
 10 12  1  0  0  0  0
 13 12  1  6  0  0  0
 13 14  1  0  0  0  0
 13 19  1  0  0  0  0
 14 15  1  1  0  0  0
 14 17  1  0  0  0  0
 15 16  2  0  0  0  0
 17 18  1  0  0  0  0
 19 18  1  1  0  0  0
M  END
>  <CHROM.1>
178.28285330,-170.48846628,-6.60367741,-3.99986481,9.39426286,-2.10329745
0.19505062,0.24924981

>  <Name>
ligand

>  <RI>
0

>  <Rbt.Current_Directory>
/home/itssahil/PROJECTS/Mol_Feturizer/New_Systems/rnas/3SKI

>  <Rbt.Executable>
rbdock ($Id: //depot/dev/client3/rdock/2013.1/src/exe/rbdock.cxx#4 $)

>  <Rbt.Library>
libRbt.so (2013.1, Build901 2013/11/27)

>  <Rbt.Parameter_File>
/export/apps/rDock/src/rDock_2013.1_src/data/scripts/dock_solv.prm

>  <Rbt.Receptor>
prm/pocket_docking_6.prm

>  <SCORE>
-17.898

>  <SCORE.INTER>
-14.9949

>  <SCORE.INTER.CONST>
1

>  <SCORE.INTER.POLAR>
0

>  <SCORE.INTER.ROT>
2

>  <SCORE.INTER.SOLV>
18.5576

>  <SCORE.INTER.VDW>
-21.1158

>  <SCORE.INTER.norm>
-0.789206

>  <SCORE.INTRA>
-2.90306

>  <SCORE.INTRA.DIHEDRAL>
-5.04692

>  <SCORE.INTRA.DIHEDRAL.0>
6.26853

>  <SCORE.INTRA.POLAR>
0

>  <SCORE.INTRA.POLAR.0>
0

>  <SCORE.INTRA.REPUL>
0

>  <SCORE.INTRA.REPUL.0>
0

>  <SCORE.INTRA.SOLV>
-0.0214486

>  <SCORE.INTRA.SOLV.lig_0>
-38.4926

>  <SCORE.INTRA.VDW>
-0.368878

>  <SCORE.INTRA.VDW.0>
-0.59057

>  <SCORE.INTRA.norm>
-0.152793

>  <SCORE.RESTR>
0

>  <SCORE.RESTR.CAVITY>
0

>  <SCORE.RESTR.norm>
0

>  <SCORE.SYSTEM>
0

>  <SCORE.SYSTEM.CONST>
0

>  <SCORE.SYSTEM.DIHEDRAL>
0

>  <SCORE.SYSTEM.SOLV>
0

>  <SCORE.SYSTEM.norm>
0

>  <SCORE.heavy>
19

>  <SCORE.norm>
-0.941999

>  <RMSD>
1.921

$$$$
ligand
 OpenBabel11021811483D
libRbt.so/2013.1/901 2013/11/27
 19 21  0  0  0  0  0  0  0  0999 V2000
   -7.5770   -7.7950    8.5514 C   0  0  0  0  0  0  0  0  0  0  0  0
   -8.5236   -8.4915    7.7273 O   0  0  0  0  0  0  0  0  0  0  0  0
   -8.2929   -6.7776    9.4426 C   0  0  1  0  0  0  0  0  0  0  0  0
   -7.3580   -6.1238   10.3221 O   0  0  0  0  0  0  0  0  0  0  0  0
   -8.9571   -5.6948    8.6106 C   0  0  1  0  0  0  0  0  0  0  0  0
  -10.3747   -5.8929    8.5406 O   0  0  0  0  0  0  0  0  0  0  0  0
   -8.6382   -4.3886    9.3048 C   0  0  0  0  0  0  0  0  0  0  0  0
   -7.5063   -4.6972   10.2739 C   0  0  2  0  0  0  0  0  0  0  0  0
   -4.8269   -0.2118    9.7309 N   0  0  0  0  0  0  0  0  0  0  0  0
   -6.0756   -0.4253   10.2263 C   0  0  1  0  0  0  0  0  0  0  0  0
   -6.7996    0.6319   10.6645 N   0  0  0  0  0  0  0  0  0  0  0  0
   -6.6145   -1.6735   10.2875 N   0  0  0  0  0  0  0  0  0  0  0  0
   -5.9307   -2.7689    9.8586 C   0  0  2  0  0  0  0  0  0  0  0  0
   -4.6563   -2.6123    9.3442 C   0  0  1  0  0  0  0  0  0  0  0  0
   -4.0791   -1.2452    9.2848 C   0  0  0  0  0  0  0  0  0  0  0  0
   -2.9279   -1.0531    8.8332 O   0  0  0  0  0  0  0  0  0  0  0  0
   -4.1998   -3.8294    9.0014 N   0  0  0  0  0  0  0  0  0  0  0  0
   -5.1731   -4.7245    9.2906 C   0  0  0  0  0  0  0  0  0  0  0  0
   -6.2296   -4.0757    9.8132 N   0  0  1  0  0  0  0  0  0  0  0  0
  1  2  1  0  0  0  0
  3  1  1  6  0  0  0
  3  4  1  0  0  0  0
  3  5  1  0  0  0  0
  5  6  1  1  0  0  0
  5  7  1  0  0  0  0
  7  8  1  0  0  0  0
  8  4  1  6  0  0  0
  8 19  1  0  0  0  0
  9 15  1  0  0  0  0
  9 10  1  0  0  0  0
 10 11  1  6  0  0  0
 10 12  1  0  0  0  0
 13 12  1  6  0  0  0
 13 14  1  0  0  0  0
 13 19  1  0  0  0  0
 14 15  1  1  0  0  0
 14 17  1  0  0  0  0
 15 16  2  0  0  0  0
 17 18  1  0  0  0  0
 19 18  1  1  0  0  0
M  END
>  <CHROM.1>
177.00779410,-168.31753587,-6.62152307,-3.86345895,9.40241625,-2.12821086
0.14784112,0.25054668

>  <Name>
ligand

>  <RI>
0

>  <Rbt.Current_Directory>
/home/itssahil/PROJECTS/Mol_Feturizer/New_Systems/rnas/3SKI

>  <Rbt.Executable>
rbdock ($Id: //depot/dev/client3/rdock/2013.1/src/exe/rbdock.cxx#4 $)

>  <Rbt.Library>
libRbt.so (2013.1, Build901 2013/11/27)

>  <Rbt.Parameter_File>
/export/apps/rDock/src/rDock_2013.1_src/data/scripts/dock_solv.prm

>  <Rbt.Receptor>
prm/pocket_docking_6.prm

>  <SCORE>
-17.8569

>  <SCORE.INTER>
-14.9346

>  <SCORE.INTER.CONST>
1

>  <SCORE.INTER.POLAR>
0

>  <SCORE.INTER.ROT>
2

>  <SCORE.INTER.SOLV>
18.3982

>  <SCORE.INTER.VDW>
-21.0225

>  <SCORE.INTER.norm>
-0.786031

>  <SCORE.INTRA>
-2.92228

>  <SCORE.INTRA.DIHEDRAL>
-5.02391

>  <SCORE.INTRA.DIHEDRAL.0>
6.26853

>  <SCORE.INTRA.POLAR>
0

>  <SCORE.INTRA.POLAR.0>
0

>  <SCORE.INTRA.REPUL>
0

>  <SCORE.INTRA.REPUL.0>
0

>  <SCORE.INTRA.SOLV>
-0.0271482

>  <SCORE.INTRA.SOLV.lig_0>
-38.4926

>  <SCORE.INTRA.VDW>
-0.396748

>  <SCORE.INTRA.VDW.0>
-0.59057

>  <SCORE.INTRA.norm>
-0.153804

>  <SCORE.RESTR>
0

>  <SCORE.RESTR.CAVITY>
0

>  <SCORE.RESTR.norm>
0

>  <SCORE.SYSTEM>
0

>  <SCORE.SYSTEM.CONST>
0

>  <SCORE.SYSTEM.DIHEDRAL>
0

>  <SCORE.SYSTEM.SOLV>
0

>  <SCORE.SYSTEM.norm>
0

>  <SCORE.heavy>
19

>  <SCORE.norm>
-0.939835

>  <RMSD>
1.935

$$$$
ligand
 OpenBabel11021811483D
libRbt.so/2013.1/901 2013/11/27
 19 21  0  0  0  0  0  0  0  0999 V2000
   -7.5293   -7.9325    8.4865 C   0  0  0  0  0  0  0  0  0  0  0  0
   -8.5083   -8.6148    7.6890 O   0  0  0  0  0  0  0  0  0  0  0  0
   -8.2118   -6.9670    9.4580 C   0  0  1  0  0  0  0  0  0  0  0  0
   -7.2395   -6.3226   10.3032 O   0  0  0  0  0  0  0  0  0  0  0  0
   -8.9509   -5.8714    8.7100 C   0  0  1  0  0  0  0  0  0  0  0  0
  -10.3651   -6.1025    8.7191 O   0  0  0  0  0  0  0  0  0  0  0  0
   -8.6197   -4.5840    9.4331 C   0  0  0  0  0  0  0  0  0  0  0  0
   -7.4232   -4.8994   10.3187 C   0  0  2  0  0  0  0  0  0  0  0  0
   -4.9586   -0.3108    9.6379 N   0  0  0  0  0  0  0  0  0  0  0  0
   -6.1778   -0.5717   10.1817 C   0  0  1  0  0  0  0  0  0  0  0  0
   -6.9292    0.4584   10.6379 N   0  0  0  0  0  0  0  0  0  0  0  0
   -6.6606   -1.8408   10.2735 N   0  0  0  0  0  0  0  0  0  0  0  0
   -5.9474   -2.9107    9.8284 C   0  0  2  0  0  0  0  0  0  0  0  0
   -4.7008   -2.7057    9.2651 C   0  0  1  0  0  0  0  0  0  0  0  0
   -4.1848   -1.3162    9.1726 C   0  0  0  0  0  0  0  0  0  0  0  0
   -3.0604   -1.0804    8.6765 O   0  0  0  0  0  0  0  0  0  0  0  0
   -4.2061   -3.9059    8.9156 N   0  0  0  0  0  0  0  0  0  0  0  0
   -5.1291   -4.8383    9.2487 C   0  0  0  0  0  0  0  0  0  0  0  0
   -6.1921   -4.2292    9.8052 N   0  0  1  0  0  0  0  0  0  0  0  0
  1  2  1  0  0  0  0
  3  1  1  6  0  0  0
  3  4  1  0  0  0  0
  3  5  1  0  0  0  0
  5  6  1  1  0  0  0
  5  7  1  0  0  0  0
  7  8  1  0  0  0  0
  8  4  1  6  0  0  0
  8 19  1  0  0  0  0
  9 15  1  0  0  0  0
  9 10  1  0  0  0  0
 10 11  1  6  0  0  0
 10 12  1  0  0  0  0
 13 12  1  6  0  0  0
 13 14  1  0  0  0  0
 13 19  1  0  0  0  0
 14 15  1  1  0  0  0
 14 17  1  0  0  0  0
 15 16  2  0  0  0  0
 17 18  1  0  0  0  0
 19 18  1  1  0  0  0
M  END
>  <CHROM.1>
177.42258349,-171.50280692,-6.63395959,-4.00586156,9.38525964,-2.11238962
0.19130563,0.25124180

>  <Name>
ligand

>  <RI>
0

>  <Rbt.Current_Directory>
/home/itssahil/PROJECTS/Mol_Feturizer/New_Systems/rnas/3SKI

>  <Rbt.Executable>
rbdock ($Id: //depot/dev/client3/rdock/2013.1/src/exe/rbdock.cxx#4 $)

>  <Rbt.Library>
libRbt.so (2013.1, Build901 2013/11/27)

>  <Rbt.Parameter_File>
/export/apps/rDock/src/rDock_2013.1_src/data/scripts/dock_solv.prm

>  <Rbt.Receptor>
prm/pocket_docking_4.prm

>  <SCORE>
-17.9599

>  <SCORE.INTER>
-15.0626

>  <SCORE.INTER.CONST>
1

>  <SCORE.INTER.POLAR>
0

>  <SCORE.INTER.ROT>
2

>  <SCORE.INTER.SOLV>
18.4856

>  <SCORE.INTER.VDW>
-21.1369

>  <SCORE.INTER.norm>
-0.792771

>  <SCORE.INTRA>
-2.89723

>  <SCORE.INTRA.DIHEDRAL>
-5.03479

>  <SCORE.INTRA.DIHEDRAL.0>
6.26853

>  <SCORE.INTRA.POLAR>
0

>  <SCORE.INTRA.POLAR.0>
0

>  <SCORE.INTRA.REPUL>
0

>  <SCORE.INTRA.REPUL.0>
0

>  <SCORE.INTRA.SOLV>
-0.0260493

>  <SCORE.INTRA.SOLV.lig_0>
-38.4926

>  <SCORE.INTRA.VDW>
-0.366809

>  <SCORE.INTRA.VDW.0>
-0.59057

>  <SCORE.INTRA.norm>
-0.152486

>  <SCORE.RESTR>
0

>  <SCORE.RESTR.CAVITY>
0

>  <SCORE.RESTR.norm>
0

>  <SCORE.SYSTEM>
0

>  <SCORE.SYSTEM.CONST>
0

>  <SCORE.SYSTEM.DIHEDRAL>
0

>  <SCORE.SYSTEM.SOLV>
0

>  <SCORE.SYSTEM.norm>
0

>  <SCORE.heavy>
19

>  <SCORE.norm>
-0.945256

>  <RMSD>
1.945

$$$$
ligand
 OpenBabel11021811483D
libRbt.so/2013.1/901 2013/11/27
 19 21  0  0  0  0  0  0  0  0999 V2000
   -7.5266   -7.9259    8.4824 C   0  0  0  0  0  0  0  0  0  0  0  0
   -8.5048   -8.5930    7.6710 O   0  0  0  0  0  0  0  0  0  0  0  0
   -8.2088   -6.9616    9.4553 C   0  0  1  0  0  0  0  0  0  0  0  0
   -7.2362   -6.3183   10.3009 O   0  0  0  0  0  0  0  0  0  0  0  0
   -8.9482   -5.8652    8.7090 C   0  0  1  0  0  0  0  0  0  0  0  0
  -10.3625   -6.0963    8.7183 O   0  0  0  0  0  0  0  0  0  0  0  0
   -8.6168   -4.5786    9.4335 C   0  0  0  0  0  0  0  0  0  0  0  0
   -7.4199   -4.8950   10.3183 C   0  0  2  0  0  0  0  0  0  0  0  0
   -4.9526   -0.3062    9.6491 N   0  0  0  0  0  0  0  0  0  0  0  0
   -6.1711   -0.5680   10.1938 C   0  0  1  0  0  0  0  0  0  0  0  0
   -6.9210    0.4612   10.6547 N   0  0  0  0  0  0  0  0  0  0  0  0
   -6.6549   -1.8369   10.2822 N   0  0  0  0  0  0  0  0  0  0  0  0
   -5.9432   -2.9059    9.8324 C   0  0  2  0  0  0  0  0  0  0  0  0
   -4.6974   -2.7001    9.2679 C   0  0  1  0  0  0  0  0  0  0  0  0
   -4.1803   -1.3107    9.1792 C   0  0  0  0  0  0  0  0  0  0  0  0
   -3.0565   -1.0742    8.6821 O   0  0  0  0  0  0  0  0  0  0  0  0
   -4.2042   -3.8995    8.9136 N   0  0  0  0  0  0  0  0  0  0  0  0
   -5.1275   -4.8322    9.2450 C   0  0  0  0  0  0  0  0  0  0  0  0
   -6.1891   -4.2242    9.8051 N   0  0  1  0  0  0  0  0  0  0  0  0
  1  2  1  0  0  0  0
  3  1  1  6  0  0  0
  3  4  1  0  0  0  0
  3  5  1  0  0  0  0
  5  6  1  1  0  0  0
  5  7  1  0  0  0  0
  7  8  1  0  0  0  0
  8  4  1  6  0  0  0
  8 19  1  0  0  0  0
  9 15  1  0  0  0  0
  9 10  1  0  0  0  0
 10 11  1  6  0  0  0
 10 12  1  0  0  0  0
 13 12  1  6  0  0  0
 13 14  1  0  0  0  0
 13 19  1  0  0  0  0
 14 15  1  1  0  0  0
 14 17  1  0  0  0  0
 15 16  2  0  0  0  0
 17 18  1  0  0  0  0
 19 18  1  1  0  0  0
M  END
>  <CHROM.1>
178.25583327,-171.35638041,-6.63014377,-3.99966777,9.38675887,-2.11314275
0.19301363,0.25491442

>  <Name>
ligand

>  <RI>
0

>  <Rbt.Current_Directory>
/home/itssahil/PROJECTS/Mol_Feturizer/New_Systems/rnas/3SKI

>  <Rbt.Executable>
rbdock ($Id: //depot/dev/client3/rdock/2013.1/src/exe/rbdock.cxx#4 $)

>  <Rbt.Library>
libRbt.so (2013.1, Build901 2013/11/27)

>  <Rbt.Parameter_File>
/export/apps/rDock/src/rDock_2013.1_src/data/scripts/dock_solv.prm

>  <Rbt.Receptor>
prm/pocket_docking_4.prm

>  <SCORE>
-17.9659

>  <SCORE.INTER>
-15.0697

>  <SCORE.INTER.CONST>
1

>  <SCORE.INTER.POLAR>
0

>  <SCORE.INTER.ROT>
2

>  <SCORE.INTER.SOLV>
18.4664

>  <SCORE.INTER.VDW>
-21.1353

>  <SCORE.INTER.norm>
-0.793141

>  <SCORE.INTRA>
-2.89617

>  <SCORE.INTRA.DIHEDRAL>
-5.04736

>  <SCORE.INTRA.DIHEDRAL.0>
6.26853

>  <SCORE.INTRA.POLAR>
0

>  <SCORE.INTRA.POLAR.0>
0

>  <SCORE.INTRA.REPUL>
0

>  <SCORE.INTRA.REPUL.0>
0

>  <SCORE.INTRA.SOLV>
-0.0218542

>  <SCORE.INTRA.SOLV.lig_0>
-38.4926

>  <SCORE.INTRA.VDW>
-0.361567

>  <SCORE.INTRA.VDW.0>
-0.59057

>  <SCORE.INTRA.norm>
-0.15243

>  <SCORE.RESTR>
0

>  <SCORE.RESTR.CAVITY>
0

>  <SCORE.RESTR.norm>
0

>  <SCORE.SYSTEM>
0

>  <SCORE.SYSTEM.CONST>
0

>  <SCORE.SYSTEM.DIHEDRAL>
0

>  <SCORE.SYSTEM.SOLV>
0

>  <SCORE.SYSTEM.norm>
0

>  <SCORE.heavy>
19

>  <SCORE.norm>
-0.945571

>  <RMSD>
1.946

$$$$
ligand
 OpenBabel11021811483D
libRbt.so/2013.1/901 2013/11/27
 19 21  0  0  0  0  0  0  0  0999 V2000
   -7.5293   -7.8824    8.4759 C   0  0  0  0  0  0  0  0  0  0  0  0
   -8.4991   -8.5565    7.6603 O   0  0  0  0  0  0  0  0  0  0  0  0
   -8.2215   -6.9097    9.4333 C   0  0  1  0  0  0  0  0  0  0  0  0
   -7.2583   -6.2633   10.2873 O   0  0  0  0  0  0  0  0  0  0  0  0
   -8.9481   -5.8164    8.6701 C   0  0  1  0  0  0  0  0  0  0  0  0
  -10.3630   -6.0437    8.6624 O   0  0  0  0  0  0  0  0  0  0  0  0
   -8.6226   -4.5258    9.3902 C   0  0  0  0  0  0  0  0  0  0  0  0
   -7.4383   -4.8395   10.2927 C   0  0  2  0  0  0  0  0  0  0  0  0
   -4.9004   -0.2749    9.7296 N   0  0  0  0  0  0  0  0  0  0  0  0
   -6.1207   -0.5311   10.2731 C   0  0  1  0  0  0  0  0  0  0  0  0
   -6.8521    0.4978   10.7635 N   0  0  0  0  0  0  0  0  0  0  0  0
   -6.6244   -1.7940   10.3312 N   0  0  0  0  0  0  0  0  0  0  0  0
   -5.9319   -2.8624    9.8510 C   0  0  2  0  0  0  0  0  0  0  0  0
   -4.6853   -2.6621    9.2862 C   0  0  1  0  0  0  0  0  0  0  0  0
   -4.1463   -1.2793    9.2307 C   0  0  0  0  0  0  0  0  0  0  0  0
   -3.0209   -1.0480    8.7347 O   0  0  0  0  0  0  0  0  0  0  0  0
   -4.2129   -3.8597    8.8991 N   0  0  0  0  0  0  0  0  0  0  0  0
   -5.1496   -4.7858    9.2109 C   0  0  0  0  0  0  0  0  0  0  0  0
   -6.1990   -4.1754    9.7912 N   0  0  1  0  0  0  0  0  0  0  0  0
  1  2  1  0  0  0  0
  3  1  1  6  0  0  0
  3  4  1  0  0  0  0
  3  5  1  0  0  0  0
  5  6  1  1  0  0  0
  5  7  1  0  0  0  0
  7  8  1  0  0  0  0
  8  4  1  6  0  0  0
  8 19  1  0  0  0  0
  9 15  1  0  0  0  0
  9 10  1  0  0  0  0
 10 11  1  6  0  0  0
 10 12  1  0  0  0  0
 13 12  1  6  0  0  0
 13 14  1  0  0  0  0
 13 19  1  0  0  0  0
 14 15  1  1  0  0  0
 14 17  1  0  0  0  0
 15 16  2  0  0  0  0
 17 18  1  0  0  0  0
 19 18  1  1  0  0  0
M  END
>  <CHROM.1>
178.01171758,-169.11787616,-6.61992184,-3.95655025,9.39550192,-2.11828149
0.19538420,0.27308162

>  <Name>
ligand

>  <RI>
0

>  <Rbt.Current_Directory>
/home/itssahil/PROJECTS/Mol_Feturizer/New_Systems/rnas/3SKI

>  <Rbt.Executable>
rbdock ($Id: //depot/dev/client3/rdock/2013.1/src/exe/rbdock.cxx#4 $)

>  <Rbt.Library>
libRbt.so (2013.1, Build901 2013/11/27)

>  <Rbt.Parameter_File>
/export/apps/rDock/src/rDock_2013.1_src/data/scripts/dock_solv.prm

>  <Rbt.Receptor>
prm/blind_docking_80.prm

>  <SCORE>
-17.9619

>  <SCORE.INTER>
-15.0471

>  <SCORE.INTER.CONST>
1

>  <SCORE.INTER.POLAR>
0

>  <SCORE.INTER.ROT>
2

>  <SCORE.INTER.SOLV>
18.4957

>  <SCORE.INTER.VDW>
-21.1299

>  <SCORE.INTER.norm>
-0.791951

>  <SCORE.INTRA>
-2.91486

>  <SCORE.INTRA.DIHEDRAL>
-5.04223

>  <SCORE.INTRA.DIHEDRAL.0>
6.26853

>  <SCORE.INTRA.POLAR>
0

>  <SCORE.INTRA.POLAR.0>
0

>  <SCORE.INTRA.REPUL>
0

>  <SCORE.INTRA.REPUL.0>
0

>  <SCORE.INTRA.SOLV>
-0.0223769

>  <SCORE.INTRA.SOLV.lig_0>
-38.4926

>  <SCORE.INTRA.VDW>
-0.382552

>  <SCORE.INTRA.VDW.0>
-0.59057

>  <SCORE.INTRA.norm>
-0.153414

>  <SCORE.RESTR>
0

>  <SCORE.RESTR.CAVITY>
0

>  <SCORE.RESTR.norm>
0

>  <SCORE.SYSTEM>
0

>  <SCORE.SYSTEM.CONST>
0

>  <SCORE.SYSTEM.DIHEDRAL>
0

>  <SCORE.SYSTEM.SOLV>
0

>  <SCORE.SYSTEM.norm>
0

>  <SCORE.heavy>
19

>  <SCORE.norm>
-0.945364

>  <RMSD>
1.948

$$$$
ligand
 OpenBabel11021811483D
libRbt.so/2013.1/901 2013/11/27
 19 21  0  0  0  0  0  0  0  0999 V2000
   -7.5288   -7.8865    8.4775 C   0  0  0  0  0  0  0  0  0  0  0  0
   -8.4962   -8.5650    7.6626 O   0  0  0  0  0  0  0  0  0  0  0  0
   -8.2242   -6.9122    9.4309 C   0  0  1  0  0  0  0  0  0  0  0  0
   -7.2638   -6.2643   10.2870 O   0  0  0  0  0  0  0  0  0  0  0  0
   -8.9483   -5.8202    8.6635 C   0  0  1  0  0  0  0  0  0  0  0  0
  -10.3631   -6.0476    8.6516 O   0  0  0  0  0  0  0  0  0  0  0  0
   -8.6252   -4.5284    9.3825 C   0  0  0  0  0  0  0  0  0  0  0  0
   -7.4438   -4.8405   10.2894 C   0  0  2  0  0  0  0  0  0  0  0  0
   -4.9000   -0.2781    9.7357 N   0  0  0  0  0  0  0  0  0  0  0  0
   -6.1216   -0.5335   10.2767 C   0  0  1  0  0  0  0  0  0  0  0  0
   -6.8526    0.4956   10.7670 N   0  0  0  0  0  0  0  0  0  0  0  0
   -6.6267   -1.7960   10.3326 N   0  0  0  0  0  0  0  0  0  0  0  0
   -5.9345   -2.8646    9.8525 C   0  0  2  0  0  0  0  0  0  0  0  0
   -4.6866   -2.6650    9.2901 C   0  0  1  0  0  0  0  0  0  0  0  0
   -4.1461   -1.2827    9.2371 C   0  0  0  0  0  0  0  0  0  0  0  0
   -3.0196   -1.0521    8.7433 O   0  0  0  0  0  0  0  0  0  0  0  0
   -4.2149   -3.8627    8.9026 N   0  0  0  0  0  0  0  0  0  0  0  0
   -5.1532   -4.7881    9.2117 C   0  0  0  0  0  0  0  0  0  0  0  0
   -6.2029   -4.1773    9.7908 N   0  0  1  0  0  0  0  0  0  0  0  0
  1  2  1  0  0  0  0
  3  1  1  6  0  0  0
  3  4  1  0  0  0  0
  3  5  1  0  0  0  0
  5  6  1  1  0  0  0
  5  7  1  0  0  0  0
  7  8  1  0  0  0  0
  8  4  1  6  0  0  0
  8 19  1  0  0  0  0
  9 15  1  0  0  0  0
  9 10  1  0  0  0  0
 10 11  1  6  0  0  0
 10 12  1  0  0  0  0
 13 12  1  6  0  0  0
 13 14  1  0  0  0  0
 13 19  1  0  0  0  0
 14 15  1  1  0  0  0
 14 17  1  0  0  0  0
 15 16  2  0  0  0  0
 17 18  1  0  0  0  0
 19 18  1  1  0  0  0
M  END
>  <CHROM.1>
177.83752923,-168.92763368,-6.62136605,-3.95961904,9.39603931,-2.11781581
0.19351872,0.27319964

>  <Name>
ligand

>  <RI>
0

>  <Rbt.Current_Directory>
/home/itssahil/PROJECTS/Mol_Feturizer/New_Systems/rnas/3SKI

>  <Rbt.Executable>
rbdock ($Id: //depot/dev/client3/rdock/2013.1/src/exe/rbdock.cxx#4 $)

>  <Rbt.Library>
libRbt.so (2013.1, Build901 2013/11/27)

>  <Rbt.Parameter_File>
/export/apps/rDock/src/rDock_2013.1_src/data/scripts/dock_solv.prm

>  <Rbt.Receptor>
prm/pocket_docking_8.prm

>  <SCORE>
-17.9628

>  <SCORE.INTER>
-15.0459

>  <SCORE.INTER.CONST>
1

>  <SCORE.INTER.POLAR>
0

>  <SCORE.INTER.ROT>
2

>  <SCORE.INTER.SOLV>
18.4997

>  <SCORE.INTER.VDW>
-21.1305

>  <SCORE.INTER.norm>
-0.79189

>  <SCORE.INTRA>
-2.91684

>  <SCORE.INTRA.DIHEDRAL>
-5.03953

>  <SCORE.INTRA.DIHEDRAL.0>
6.26853

>  <SCORE.INTRA.POLAR>
0

>  <SCORE.INTRA.POLAR.0>
0

>  <SCORE.INTRA.REPUL>
0

>  <SCORE.INTRA.REPUL.0>
0

>  <SCORE.INTRA.SOLV>
-0.0231865

>  <SCORE.INTRA.SOLV.lig_0>
-38.4926

>  <SCORE.INTRA.VDW>
-0.385486

>  <SCORE.INTRA.VDW.0>
-0.59057

>  <SCORE.INTRA.norm>
-0.153518

>  <SCORE.RESTR>
0

>  <SCORE.RESTR.CAVITY>
0

>  <SCORE.RESTR.norm>
0

>  <SCORE.SYSTEM>
0

>  <SCORE.SYSTEM.CONST>
0

>  <SCORE.SYSTEM.DIHEDRAL>
0

>  <SCORE.SYSTEM.SOLV>
0

>  <SCORE.SYSTEM.norm>
0

>  <SCORE.heavy>
19

>  <SCORE.norm>
-0.945408

>  <RMSD>
1.948

$$$$
ligand
 OpenBabel11021811483D
libRbt.so/2013.1/901 2013/11/27
 19 21  0  0  0  0  0  0  0  0999 V2000
   -7.5275   -7.8783    8.4772 C   0  0  0  0  0  0  0  0  0  0  0  0
   -8.4900   -8.5467    7.6483 O   0  0  0  0  0  0  0  0  0  0  0  0
   -8.2277   -6.9077    9.4308 C   0  0  1  0  0  0  0  0  0  0  0  0
   -7.2712   -6.2598   10.2912 O   0  0  0  0  0  0  0  0  0  0  0  0
   -8.9516   -5.8153    8.6636 C   0  0  1  0  0  0  0  0  0  0  0  0
  -10.3660   -6.0454    8.6469 O   0  0  0  0  0  0  0  0  0  0  0  0
   -8.6333   -4.5245    9.3866 C   0  0  0  0  0  0  0  0  0  0  0  0
   -7.4541   -4.8364   10.2964 C   0  0  2  0  0  0  0  0  0  0  0  0
   -4.9216   -0.2665    9.7526 N   0  0  0  0  0  0  0  0  0  0  0  0
   -6.1448   -0.5254   10.2882 C   0  0  1  0  0  0  0  0  0  0  0  0
   -6.8812    0.5016   10.7748 N   0  0  0  0  0  0  0  0  0  0  0  0
   -6.6464   -1.7894   10.3422 N   0  0  0  0  0  0  0  0  0  0  0  0
   -5.9488   -2.8560    9.8656 C   0  0  2  0  0  0  0  0  0  0  0  0
   -4.6990   -2.6528    9.3088 C   0  0  1  0  0  0  0  0  0  0  0  0
   -4.1625   -1.2690    9.2577 C   0  0  0  0  0  0  0  0  0  0  0  0
   -3.0345   -1.0351    8.7689 O   0  0  0  0  0  0  0  0  0  0  0  0
   -4.2219   -3.8493    8.9238 N   0  0  0  0  0  0  0  0  0  0  0  0
   -5.1588   -4.7774    9.2290 C   0  0  0  0  0  0  0  0  0  0  0  0
   -6.2129   -4.1696    9.8031 N   0  0  1  0  0  0  0  0  0  0  0  0
  1  2  1  0  0  0  0
  3  1  1  6  0  0  0
  3  4  1  0  0  0  0
  3  5  1  0  0  0  0
  5  6  1  1  0  0  0
  5  7  1  0  0  0  0
  7  8  1  0  0  0  0
  8  4  1  6  0  0  0
  8 19  1  0  0  0  0
  9 15  1  0  0  0  0
  9 10  1  0  0  0  0
 10 11  1  6  0  0  0
 10 12  1  0  0  0  0
 13 12  1  6  0  0  0
 13 14  1  0  0  0  0
 13 19  1  0  0  0  0
 14 15  1  1  0  0  0
 14 17  1  0  0  0  0
 15 16  2  0  0  0  0
 17 18  1  0  0  0  0
 19 18  1  1  0  0  0
M  END
>  <CHROM.1>
178.42807531,-169.11049821,-6.63171207,-3.95084031,9.40463064,-2.11475292
0.19003264,0.27349141

>  <Name>
ligand

>  <RI>
0

>  <Rbt.Current_Directory>
/home/itssahil/PROJECTS/Mol_Feturizer/New_Systems/rnas/3SKI

>  <Rbt.Executable>
rbdock ($Id: //depot/dev/client3/rdock/2013.1/src/exe/rbdock.cxx#4 $)

>  <Rbt.Library>
libRbt.so (2013.1, Build901 2013/11/27)

>  <Rbt.Parameter_File>
/export/apps/rDock/src/rDock_2013.1_src/data/scripts/dock_solv.prm

>  <Rbt.Receptor>
prm/blind_docking_80.prm

>  <SCORE>
-17.9202

>  <SCORE.INTER>
-15.0071

>  <SCORE.INTER.CONST>
1

>  <SCORE.INTER.POLAR>
0

>  <SCORE.INTER.ROT>
2

>  <SCORE.INTER.SOLV>
18.5518

>  <SCORE.INTER.VDW>
-21.122

>  <SCORE.INTER.norm>
-0.789847

>  <SCORE.INTRA>
-2.91313

>  <SCORE.INTRA.DIHEDRAL>
-5.04743

>  <SCORE.INTRA.DIHEDRAL.0>
6.26853

>  <SCORE.INTRA.POLAR>
0

>  <SCORE.INTRA.POLAR.0>
0

>  <SCORE.INTRA.REPUL>
0

>  <SCORE.INTRA.REPUL.0>
0

>  <SCORE.INTRA.SOLV>
-0.0203074

>  <SCORE.INTRA.SOLV.lig_0>
-38.4926

>  <SCORE.INTRA.VDW>
-0.379263

>  <SCORE.INTRA.VDW.0>
-0.59057

>  <SCORE.INTRA.norm>
-0.153323

>  <SCORE.RESTR>
0

>  <SCORE.RESTR.CAVITY>
0

>  <SCORE.RESTR.norm>
0

>  <SCORE.SYSTEM>
0

>  <SCORE.SYSTEM.CONST>
0

>  <SCORE.SYSTEM.DIHEDRAL>
0

>  <SCORE.SYSTEM.SOLV>
0

>  <SCORE.SYSTEM.norm>
0

>  <SCORE.heavy>
19

>  <SCORE.norm>
-0.943169

>  <RMSD>
1.949

$$$$
ligand
 OpenBabel11021811483D
libRbt.so/2013.1/901 2013/11/27
 19 21  0  0  0  0  0  0  0  0999 V2000
   -7.5308   -7.9176    8.4696 C   0  0  0  0  0  0  0  0  0  0  0  0
   -8.5107   -8.5782    7.6550 O   0  0  0  0  0  0  0  0  0  0  0  0
   -8.2106   -6.9564    9.4473 C   0  0  1  0  0  0  0  0  0  0  0  0
   -7.2361   -6.3179   10.2945 O   0  0  0  0  0  0  0  0  0  0  0  0
   -8.9492   -5.8558    8.7063 C   0  0  1  0  0  0  0  0  0  0  0  0
  -10.3638   -6.0849    8.7162 O   0  0  0  0  0  0  0  0  0  0  0  0
   -8.6151   -4.5727    9.4358 C   0  0  0  0  0  0  0  0  0  0  0  0
   -7.4178   -4.8945   10.3180 C   0  0  2  0  0  0  0  0  0  0  0  0
   -4.9519   -0.3047    9.6494 N   0  0  0  0  0  0  0  0  0  0  0  0
   -6.1712   -0.5668   10.1924 C   0  0  1  0  0  0  0  0  0  0  0  0
   -6.9224    0.4623   10.6514 N   0  0  0  0  0  0  0  0  0  0  0  0
   -6.6544   -1.8360   10.2809 N   0  0  0  0  0  0  0  0  0  0  0  0
   -5.9414   -2.9049    9.8329 C   0  0  2  0  0  0  0  0  0  0  0  0
   -4.6948   -2.6988    9.2702 C   0  0  1  0  0  0  0  0  0  0  0  0
   -4.1784   -1.3091    9.1814 C   0  0  0  0  0  0  0  0  0  0  0  0
   -3.0539   -1.0723    8.6859 O   0  0  0  0  0  0  0  0  0  0  0  0
   -4.2005   -3.8981    8.9175 N   0  0  0  0  0  0  0  0  0  0  0  0
   -5.1237   -4.8311    9.2482 C   0  0  0  0  0  0  0  0  0  0  0  0
   -6.1865   -4.2233    9.8062 N   0  0  1  0  0  0  0  0  0  0  0  0
  1  2  1  0  0  0  0
  3  1  1  6  0  0  0
  3  4  1  0  0  0  0
  3  5  1  0  0  0  0
  5  6  1  1  0  0  0
  5  7  1  0  0  0  0
  7  8  1  0  0  0  0
  8  4  1  6  0  0  0
  8 19  1  0  0  0  0
  9 15  1  0  0  0  0
  9 10  1  0  0  0  0
 10 11  1  6  0  0  0
 10 12  1  0  0  0  0
 13 12  1  6  0  0  0
 13 14  1  0  0  0  0
 13 19  1  0  0  0  0
 14 15  1  1  0  0  0
 14 17  1  0  0  0  0
 15 16  2  0  0  0  0
 17 18  1  0  0  0  0
 19 18  1  1  0  0  0
M  END
>  <CHROM.1>
178.35540986,-171.69198358,-6.62980385,-3.99580088,9.38474062,-2.11400042
0.19132819,0.25566709

>  <Name>
ligand

>  <RI>
0

>  <Rbt.Current_Directory>
/home/itssahil/PROJECTS/Mol_Feturizer/New_Systems/rnas/3SKI

>  <Rbt.Executable>
rbdock ($Id: //depot/dev/client3/rdock/2013.1/src/exe/rbdock.cxx#4 $)

>  <Rbt.Library>
libRbt.so (2013.1, Build901 2013/11/27)

>  <Rbt.Parameter_File>
/export/apps/rDock/src/rDock_2013.1_src/data/scripts/dock_solv.prm

>  <Rbt.Receptor>
prm/blind_docking_40.prm

>  <SCORE>
-17.9599

>  <SCORE.INTER>
-15.0669

>  <SCORE.INTER.CONST>
1

>  <SCORE.INTER.POLAR>
0

>  <SCORE.INTER.ROT>
2

>  <SCORE.INTER.SOLV>
18.4723

>  <SCORE.INTER.VDW>
-21.1354

>  <SCORE.INTER.norm>
-0.792996

>  <SCORE.INTRA>
-2.89295

>  <SCORE.INTRA.DIHEDRAL>
-5.04884

>  <SCORE.INTRA.DIHEDRAL.0>
6.26853

>  <SCORE.INTRA.POLAR>
0

>  <SCORE.INTRA.POLAR.0>
0

>  <SCORE.INTRA.REPUL>
0

>  <SCORE.INTRA.REPUL.0>
0

>  <SCORE.INTRA.SOLV>
-0.0214663

>  <SCORE.INTRA.SOLV.lig_0>
-38.4926

>  <SCORE.INTRA.VDW>
-0.357797

>  <SCORE.INTRA.VDW.0>
-0.59057

>  <SCORE.INTRA.norm>
-0.15226

>  <SCORE.RESTR>
0

>  <SCORE.RESTR.CAVITY>
0

>  <SCORE.RESTR.norm>
0

>  <SCORE.SYSTEM>
0

>  <SCORE.SYSTEM.CONST>
0

>  <SCORE.SYSTEM.DIHEDRAL>
0

>  <SCORE.SYSTEM.SOLV>
0

>  <SCORE.SYSTEM.norm>
0

>  <SCORE.heavy>
19

>  <SCORE.norm>
-0.945256

>  <RMSD>
1.950

$$$$
ligand
 OpenBabel11021811483D
libRbt.so/2013.1/901 2013/11/27
 19 21  0  0  0  0  0  0  0  0999 V2000
   -7.5071   -7.8958    8.4728 C   0  0  0  0  0  0  0  0  0  0  0  0
   -8.4621   -8.5791    7.6475 O   0  0  0  0  0  0  0  0  0  0  0  0
   -8.2169   -6.9184    9.4123 C   0  0  1  0  0  0  0  0  0  0  0  0
   -7.2691   -6.2634   10.2769 O   0  0  0  0  0  0  0  0  0  0  0  0
   -8.9341   -5.8323    8.6300 C   0  0  1  0  0  0  0  0  0  0  0  0
  -10.3481   -6.0635    8.6015 O   0  0  0  0  0  0  0  0  0  0  0  0
   -8.6234   -4.5359    9.3461 C   0  0  0  0  0  0  0  0  0  0  0  0
   -7.4528   -4.8401   10.2695 C   0  0  2  0  0  0  0  0  0  0  0  0
   -4.9049   -0.2767    9.7432 N   0  0  0  0  0  0  0  0  0  0  0  0
   -6.1314   -0.5328   10.2725 C   0  0  1  0  0  0  0  0  0  0  0  0
   -6.8673    0.4958   10.7567 N   0  0  0  0  0  0  0  0  0  0  0  0
   -6.6368   -1.7954   10.3227 N   0  0  0  0  0  0  0  0  0  0  0  0
   -5.9399   -2.8635    9.8483 C   0  0  2  0  0  0  0  0  0  0  0  0
   -4.6868   -2.6632    9.2978 C   0  0  1  0  0  0  0  0  0  0  0  0
   -4.1461   -1.2808    9.2509 C   0  0  0  0  0  0  0  0  0  0  0  0
   -3.0151   -1.0496    8.7679 O   0  0  0  0  0  0  0  0  0  0  0  0
   -4.2112   -3.8606    8.9138 N   0  0  0  0  0  0  0  0  0  0  0  0
   -5.1521   -4.7864    9.2134 C   0  0  0  0  0  0  0  0  0  0  0  0
   -6.2074   -4.1762    9.7830 N   0  0  1  0  0  0  0  0  0  0  0  0
  1  2  1  0  0  0  0
  3  1  1  6  0  0  0
  3  4  1  0  0  0  0
  3  5  1  0  0  0  0
  5  6  1  1  0  0  0
  5  7  1  0  0  0  0
  7  8  1  0  0  0  0
  8  4  1  6  0  0  0
  8 19  1  0  0  0  0
  9 15  1  0  0  0  0
  9 10  1  0  0  0  0
 10 11  1  6  0  0  0
 10 12  1  0  0  0  0
 13 12  1  6  0  0  0
 13 14  1  0  0  0  0
 13 19  1  0  0  0  0
 14 15  1  1  0  0  0
 14 17  1  0  0  0  0
 15 16  2  0  0  0  0
 17 18  1  0  0  0  0
 19 18  1  1  0  0  0
M  END
>  <CHROM.1>
177.95375060,-168.51163257,-6.61880468,-3.96241170,9.38731696,-2.11295609
0.18502813,0.27158256

>  <Name>
ligand

>  <RI>
0

>  <Rbt.Current_Directory>
/home/itssahil/PROJECTS/Mol_Feturizer/New_Systems/rnas/3SKI

>  <Rbt.Executable>
rbdock ($Id: //depot/dev/client3/rdock/2013.1/src/exe/rbdock.cxx#4 $)

>  <Rbt.Library>
libRbt.so (2013.1, Build901 2013/11/27)

>  <Rbt.Parameter_File>
/export/apps/rDock/src/rDock_2013.1_src/data/scripts/dock_solv.prm

>  <Rbt.Receptor>
prm/pocket_docking_3.prm

>  <SCORE>
-17.9216

>  <SCORE.INTER>
-15.0019

>  <SCORE.INTER.CONST>
1

>  <SCORE.INTER.POLAR>
0

>  <SCORE.INTER.ROT>
2

>  <SCORE.INTER.SOLV>
18.5796

>  <SCORE.INTER.VDW>
-21.1278

>  <SCORE.INTER.norm>
-0.789574

>  <SCORE.INTRA>
-2.91965

>  <SCORE.INTRA.DIHEDRAL>
-5.04091

>  <SCORE.INTRA.DIHEDRAL.0>
6.26853

>  <SCORE.INTRA.POLAR>
0

>  <SCORE.INTRA.POLAR.0>
0

>  <SCORE.INTRA.REPUL>
0

>  <SCORE.INTRA.REPUL.0>
0

>  <SCORE.INTRA.SOLV>
-0.022484

>  <SCORE.INTRA.SOLV.lig_0>
-38.4926

>  <SCORE.INTRA.VDW>
-0.387953

>  <SCORE.INTRA.VDW.0>
-0.59057

>  <SCORE.INTRA.norm>
-0.153666

>  <SCORE.RESTR>
0

>  <SCORE.RESTR.CAVITY>
0

>  <SCORE.RESTR.norm>
0

>  <SCORE.SYSTEM>
0

>  <SCORE.SYSTEM.CONST>
0

>  <SCORE.SYSTEM.DIHEDRAL>
0

>  <SCORE.SYSTEM.SOLV>
0

>  <SCORE.SYSTEM.norm>
0

>  <SCORE.heavy>
19

>  <SCORE.norm>
-0.94324

>  <RMSD>
1.950

$$$$
ligand
 OpenBabel11021811483D
libRbt.so/2013.1/901 2013/11/27
 19 21  0  0  0  0  0  0  0  0999 V2000
   -7.5290   -7.8955    8.4634 C   0  0  0  0  0  0  0  0  0  0  0  0
   -8.5008   -8.5981    7.6746 O   0  0  0  0  0  0  0  0  0  0  0  0
   -8.2216   -6.9245    9.4221 C   0  0  1  0  0  0  0  0  0  0  0  0
   -7.2591   -6.2815   10.2795 O   0  0  0  0  0  0  0  0  0  0  0  0
   -8.9454   -5.8281    8.6604 C   0  0  1  0  0  0  0  0  0  0  0  0
  -10.3605   -6.0535    8.6496 O   0  0  0  0  0  0  0  0  0  0  0  0
   -8.6195   -4.5399    9.3845 C   0  0  0  0  0  0  0  0  0  0  0  0
   -7.4372   -4.8575   10.2884 C   0  0  2  0  0  0  0  0  0  0  0  0
   -4.9378   -0.2824    9.6451 N   0  0  0  0  0  0  0  0  0  0  0  0
   -6.1649   -0.5370   10.1736 C   0  0  1  0  0  0  0  0  0  0  0  0
   -6.9158    0.4967   10.6225 N   0  0  0  0  0  0  0  0  0  0  0  0
   -6.6563   -1.8034   10.2575 N   0  0  0  0  0  0  0  0  0  0  0  0
   -5.9440   -2.8767    9.8192 C   0  0  2  0  0  0  0  0  0  0  0  0
   -4.6895   -2.6782    9.2714 C   0  0  1  0  0  0  0  0  0  0  0  0
   -4.1643   -1.2916    9.1875 C   0  0  0  0  0  0  0  0  0  0  0  0
   -3.0326   -1.0615    8.7053 O   0  0  0  0  0  0  0  0  0  0  0  0
   -4.1977   -3.8807    8.9258 N   0  0  0  0  0  0  0  0  0  0  0  0
   -5.1301   -4.8082    9.2462 C   0  0  0  0  0  0  0  0  0  0  0  0
   -6.1961   -4.1938    9.7908 N   0  0  1  0  0  0  0  0  0  0  0  0
  1  2  1  0  0  0  0
  3  1  1  6  0  0  0
  3  4  1  0  0  0  0
  3  5  1  0  0  0  0
  5  6  1  1  0  0  0
  5  7  1  0  0  0  0
  7  8  1  0  0  0  0
  8  4  1  6  0  0  0
  8 19  1  0  0  0  0
  9 15  1  0  0  0  0
  9 10  1  0  0  0  0
 10 11  1  6  0  0  0
 10 12  1  0  0  0  0
 13 12  1  6  0  0  0
 13 14  1  0  0  0  0
 13 19  1  0  0  0  0
 14 15  1  1  0  0  0
 14 17  1  0  0  0  0
 15 16  2  0  0  0  0
 17 18  1  0  0  0  0
 19 18  1  1  0  0  0
M  END
>  <CHROM.1>
176.13235639,-171.19011067,-6.62915434,-3.97167356,9.36935415,-2.11298269
0.17806057,0.25075171

>  <Name>
ligand

>  <RI>
0

>  <Rbt.Current_Directory>
/home/itssahil/PROJECTS/Mol_Feturizer/New_Systems/rnas/3SKI

>  <Rbt.Executable>
rbdock ($Id: //depot/dev/client3/rdock/2013.1/src/exe/rbdock.cxx#4 $)

>  <Rbt.Library>
libRbt.so (2013.1, Build901 2013/11/27)

>  <Rbt.Parameter_File>
/export/apps/rDock/src/rDock_2013.1_src/data/scripts/dock_solv.prm

>  <Rbt.Receptor>
prm/pocket_docking_3.prm

>  <SCORE>
-17.9258

>  <SCORE.INTER>
-15.0281

>  <SCORE.INTER.CONST>
1

>  <SCORE.INTER.POLAR>
0

>  <SCORE.INTER.ROT>
2

>  <SCORE.INTER.SOLV>
18.5528

>  <SCORE.INTER.VDW>
-21.1364

>  <SCORE.INTER.norm>
-0.790955

>  <SCORE.INTRA>
-2.89768

>  <SCORE.INTRA.DIHEDRAL>
-5.00506

>  <SCORE.INTRA.DIHEDRAL.0>
6.26853

>  <SCORE.INTRA.POLAR>
0

>  <SCORE.INTRA.POLAR.0>
0

>  <SCORE.INTRA.REPUL>
0

>  <SCORE.INTRA.REPUL.0>
0

>  <SCORE.INTRA.SOLV>
-0.0324219

>  <SCORE.INTRA.SOLV.lig_0>
-38.4926

>  <SCORE.INTRA.VDW>
-0.37894

>  <SCORE.INTRA.VDW.0>
-0.59057

>  <SCORE.INTRA.norm>
-0.152509

>  <SCORE.RESTR>
0

>  <SCORE.RESTR.CAVITY>
0

>  <SCORE.RESTR.norm>
0

>  <SCORE.SYSTEM>
0

>  <SCORE.SYSTEM.CONST>
0

>  <SCORE.SYSTEM.DIHEDRAL>
0

>  <SCORE.SYSTEM.SOLV>
0

>  <SCORE.SYSTEM.norm>
0

>  <SCORE.heavy>
19

>  <SCORE.norm>
-0.943465

>  <RMSD>
1.952

$$$$
ligand
 OpenBabel11021811483D
libRbt.so/2013.1/901 2013/11/27
 19 21  0  0  0  0  0  0  0  0999 V2000
   -7.5518   -7.8713    8.4803 C   0  0  0  0  0  0  0  0  0  0  0  0
   -8.5147   -8.5464    7.6573 O   0  0  0  0  0  0  0  0  0  0  0  0
   -8.2517   -6.8936    9.4269 C   0  0  1  0  0  0  0  0  0  0  0  0
   -7.2962   -6.2484   10.2905 O   0  0  0  0  0  0  0  0  0  0  0  0
   -8.9652   -5.7996    8.6523 C   0  0  1  0  0  0  0  0  0  0  0  0
  -10.3807   -6.0218    8.6286 O   0  0  0  0  0  0  0  0  0  0  0  0
   -8.6434   -4.5084    9.3729 C   0  0  0  0  0  0  0  0  0  0  0  0
   -7.4710   -4.8239   10.2901 C   0  0  2  0  0  0  0  0  0  0  0  0
   -4.9066   -0.2712    9.7522 N   0  0  0  0  0  0  0  0  0  0  0  0
   -6.1338   -0.5216   10.2828 C   0  0  1  0  0  0  0  0  0  0  0  0
   -6.8656    0.5108   10.7651 N   0  0  0  0  0  0  0  0  0  0  0  0
   -6.6437   -1.7822   10.3361 N   0  0  0  0  0  0  0  0  0  0  0  0
   -5.9510   -2.8539    9.8636 C   0  0  2  0  0  0  0  0  0  0  0  0
   -4.6976   -2.6595    9.3121 C   0  0  1  0  0  0  0  0  0  0  0  0
   -4.1518   -1.2791    9.2618 C   0  0  0  0  0  0  0  0  0  0  0  0
   -3.0202   -1.0532    8.7776 O   0  0  0  0  0  0  0  0  0  0  0  0
   -4.2266   -3.8594    8.9305 N   0  0  0  0  0  0  0  0  0  0  0  0
   -5.1708   -4.7811    9.2326 C   0  0  0  0  0  0  0  0  0  0  0  0
   -6.2234   -4.1657    9.8015 N   0  0  1  0  0  0  0  0  0  0  0  0
  1  2  1  0  0  0  0
  3  1  1  6  0  0  0
  3  4  1  0  0  0  0
  3  5  1  0  0  0  0
  5  6  1  1  0  0  0
  5  7  1  0  0  0  0
  7  8  1  0  0  0  0
  8  4  1  6  0  0  0
  8 19  1  0  0  0  0
  9 15  1  0  0  0  0
  9 10  1  0  0  0  0
 10 11  1  6  0  0  0
 10 12  1  0  0  0  0
 13 12  1  6  0  0  0
 13 14  1  0  0  0  0
 13 19  1  0  0  0  0
 14 15  1  1  0  0  0
 14 17  1  0  0  0  0
 15 16  2  0  0  0  0
 17 18  1  0  0  0  0
 19 18  1  1  0  0  0
M  END
>  <CHROM.1>
177.86931270,-168.96667991,-6.63796157,-3.94681129,9.40246872,-2.11899619
0.18405780,0.27211588

>  <Name>
ligand

>  <RI>
0

>  <Rbt.Current_Directory>
/home/itssahil/PROJECTS/Mol_Feturizer/New_Systems/rnas/3SKI

>  <Rbt.Executable>
rbdock ($Id: //depot/dev/client3/rdock/2013.1/src/exe/rbdock.cxx#4 $)

>  <Rbt.Library>
libRbt.so (2013.1, Build901 2013/11/27)

>  <Rbt.Parameter_File>
/export/apps/rDock/src/rDock_2013.1_src/data/scripts/dock_solv.prm

>  <Rbt.Receptor>
prm/pocket_docking_5.prm

>  <SCORE>
-17.9132

>  <SCORE.INTER>
-14.9968

>  <SCORE.INTER.CONST>
1

>  <SCORE.INTER.POLAR>
0

>  <SCORE.INTER.ROT>
2

>  <SCORE.INTER.SOLV>
18.5057

>  <SCORE.INTER.VDW>
-21.0997

>  <SCORE.INTER.norm>
-0.789303

>  <SCORE.INTRA>
-2.91646

>  <SCORE.INTRA.DIHEDRAL>
-5.04004

>  <SCORE.INTRA.DIHEDRAL.0>
6.26853

>  <SCORE.INTRA.POLAR>
0

>  <SCORE.INTRA.POLAR.0>
0

>  <SCORE.INTRA.REPUL>
0

>  <SCORE.INTRA.REPUL.0>
0

>  <SCORE.INTRA.SOLV>
-0.02304

>  <SCORE.INTRA.SOLV.lig_0>
-38.4926

>  <SCORE.INTRA.VDW>
-0.384917

>  <SCORE.INTRA.VDW.0>
-0.59057

>  <SCORE.INTRA.norm>
-0.153498

>  <SCORE.RESTR>
0

>  <SCORE.RESTR.CAVITY>
0

>  <SCORE.RESTR.norm>
0

>  <SCORE.SYSTEM>
0

>  <SCORE.SYSTEM.CONST>
0

>  <SCORE.SYSTEM.DIHEDRAL>
0

>  <SCORE.SYSTEM.SOLV>
0

>  <SCORE.SYSTEM.norm>
0

>  <SCORE.heavy>
19

>  <SCORE.norm>
-0.942801

>  <RMSD>
1.952

$$$$
ligand
 OpenBabel11021811483D
libRbt.so/2013.1/901 2013/11/27
 19 21  0  0  0  0  0  0  0  0999 V2000
   -7.5085   -7.9113    8.4555 C   0  0  0  0  0  0  0  0  0  0  0  0
   -8.4750   -8.5960    7.6448 O   0  0  0  0  0  0  0  0  0  0  0  0
   -8.2062   -6.9440    9.4144 C   0  0  1  0  0  0  0  0  0  0  0  0
   -7.2474   -6.2990   10.2744 O   0  0  0  0  0  0  0  0  0  0  0  0
   -8.9325   -5.8492    8.6530 C   0  0  1  0  0  0  0  0  0  0  0  0
  -10.3468   -6.0795    8.6394 O   0  0  0  0  0  0  0  0  0  0  0  0
   -8.6123   -4.5609    9.3795 C   0  0  0  0  0  0  0  0  0  0  0  0
   -7.4306   -4.8756   10.2850 C   0  0  2  0  0  0  0  0  0  0  0  0
   -4.9413   -0.2920    9.6630 N   0  0  0  0  0  0  0  0  0  0  0  0
   -6.1679   -0.5518   10.1903 C   0  0  1  0  0  0  0  0  0  0  0  0
   -6.9210    0.4782   10.6440 N   0  0  0  0  0  0  0  0  0  0  0  0
   -6.6564   -1.8196   10.2683 N   0  0  0  0  0  0  0  0  0  0  0  0
   -5.9417   -2.8894    9.8251 C   0  0  2  0  0  0  0  0  0  0  0  0
   -4.6877   -2.6855    9.2782 C   0  0  1  0  0  0  0  0  0  0  0  0
   -4.1655   -1.2973    9.2007 C   0  0  0  0  0  0  0  0  0  0  0  0
   -3.0344   -1.0626    8.7196 O   0  0  0  0  0  0  0  0  0  0  0  0
   -4.1932   -3.8853    8.9270 N   0  0  0  0  0  0  0  0  0  0  0  0
   -5.1236   -4.8163    9.2431 C   0  0  0  0  0  0  0  0  0  0  0  0
   -6.1909   -4.2068    9.7905 N   0  0  1  0  0  0  0  0  0  0  0  0
  1  2  1  0  0  0  0
  3  1  1  6  0  0  0
  3  4  1  0  0  0  0
  3  5  1  0  0  0  0
  5  6  1  1  0  0  0
  5  7  1  0  0  0  0
  7  8  1  0  0  0  0
  8  4  1  6  0  0  0
  8 19  1  0  0  0  0
  9 15  1  0  0  0  0
  9 10  1  0  0  0  0
 10 11  1  6  0  0  0
 10 12  1  0  0  0  0
 13 12  1  6  0  0  0
 13 14  1  0  0  0  0
 13 19  1  0  0  0  0
 14 15  1  1  0  0  0
 14 17  1  0  0  0  0
 15 16  2  0  0  0  0
 17 18  1  0  0  0  0
 19 18  1  1  0  0  0
M  END
>  <CHROM.1>
177.31676503,-170.96849887,-6.62254802,-3.98472794,9.37040852,-2.11008922
0.17921425,0.25507395

>  <Name>
ligand

>  <RI>
0

>  <Rbt.Current_Directory>
/home/itssahil/PROJECTS/Mol_Feturizer/New_Systems/rnas/3SKI

>  <Rbt.Executable>
rbdock ($Id: //depot/dev/client3/rdock/2013.1/src/exe/rbdock.cxx#4 $)

>  <Rbt.Library>
libRbt.so (2013.1, Build901 2013/11/27)

>  <Rbt.Parameter_File>
/export/apps/rDock/src/rDock_2013.1_src/data/scripts/dock_solv.prm

>  <Rbt.Receptor>
prm/pocket_docking_3.prm

>  <SCORE>
-17.9481

>  <SCORE.INTER>
-15.0465

>  <SCORE.INTER.CONST>
1

>  <SCORE.INTER.POLAR>
0

>  <SCORE.INTER.ROT>
2

>  <SCORE.INTER.SOLV>
18.574

>  <SCORE.INTER.VDW>
-21.1557

>  <SCORE.INTER.norm>
-0.791919

>  <SCORE.INTRA>
-2.90167

>  <SCORE.INTRA.DIHEDRAL>
-5.03235

>  <SCORE.INTRA.DIHEDRAL.0>
6.26853

>  <SCORE.INTRA.POLAR>
0

>  <SCORE.INTRA.POLAR.0>
0

>  <SCORE.INTRA.REPUL>
0

>  <SCORE.INTRA.REPUL.0>
0

>  <SCORE.INTRA.SOLV>
-0.0264097

>  <SCORE.INTRA.SOLV.lig_0>
-38.4926

>  <SCORE.INTRA.VDW>
-0.37229

>  <SCORE.INTRA.VDW.0>
-0.59057

>  <SCORE.INTRA.norm>
-0.15272

>  <SCORE.RESTR>
0

>  <SCORE.RESTR.CAVITY>
0

>  <SCORE.RESTR.norm>
0

>  <SCORE.SYSTEM>
0

>  <SCORE.SYSTEM.CONST>
0

>  <SCORE.SYSTEM.DIHEDRAL>
0

>  <SCORE.SYSTEM.SOLV>
0

>  <SCORE.SYSTEM.norm>
0

>  <SCORE.heavy>
19

>  <SCORE.norm>
-0.944639

>  <RMSD>
1.954

$$$$
ligand
 OpenBabel11021811483D
libRbt.so/2013.1/901 2013/11/27
 19 21  0  0  0  0  0  0  0  0999 V2000
   -7.5674   -7.8655    8.4817 C   0  0  0  0  0  0  0  0  0  0  0  0
   -8.5252   -8.5549    7.6646 O   0  0  0  0  0  0  0  0  0  0  0  0
   -8.2736   -6.8767    9.4119 C   0  0  1  0  0  0  0  0  0  0  0  0
   -7.3252   -6.2282   10.2808 O   0  0  0  0  0  0  0  0  0  0  0  0
   -8.9734   -5.7863    8.6199 C   0  0  1  0  0  0  0  0  0  0  0  0
  -10.3895   -6.0025    8.5818 O   0  0  0  0  0  0  0  0  0  0  0  0
   -8.6542   -4.4903    9.3330 C   0  0  0  0  0  0  0  0  0  0  0  0
   -7.4937   -4.8031   10.2662 C   0  0  2  0  0  0  0  0  0  0  0  0
   -4.9162   -0.2625    9.6897 N   0  0  0  0  0  0  0  0  0  0  0  0
   -6.1520   -0.5025   10.2047 C   0  0  1  0  0  0  0  0  0  0  0  0
   -6.8905    0.5388   10.6568 N   0  0  0  0  0  0  0  0  0  0  0  0
   -6.6641   -1.7616   10.2719 N   0  0  0  0  0  0  0  0  0  0  0  0
   -5.9650   -2.8420    9.8297 C   0  0  2  0  0  0  0  0  0  0  0  0
   -4.7026   -2.6583    9.2951 C   0  0  1  0  0  0  0  0  0  0  0  0
   -4.1547   -1.2795    9.2293 C   0  0  0  0  0  0  0  0  0  0  0  0
   -3.0152   -1.0629    8.7596 O   0  0  0  0  0  0  0  0  0  0  0  0
   -4.2268   -3.8651    8.9424 N   0  0  0  0  0  0  0  0  0  0  0  0
   -5.1767   -4.7806    9.2454 C   0  0  0  0  0  0  0  0  0  0  0  0
   -6.2377   -4.1545    9.7863 N   0  0  1  0  0  0  0  0  0  0  0  0
  1  2  1  0  0  0  0
  3  1  1  6  0  0  0
  3  4  1  0  0  0  0
  3  5  1  0  0  0  0
  5  6  1  1  0  0  0
  5  7  1  0  0  0  0
  7  8  1  0  0  0  0
  8  4  1  6  0  0  0
  8 19  1  0  0  0  0
  9 15  1  0  0  0  0
  9 10  1  0  0  0  0
 10 11  1  6  0  0  0
 10 12  1  0  0  0  0
 13 12  1  6  0  0  0
 13 14  1  0  0  0  0
 13 19  1  0  0  0  0
 14 15  1  1  0  0  0
 14 17  1  0  0  0  0
 15 16  2  0  0  0  0
 17 18  1  0  0  0  0
 19 18  1  1  0  0  0
M  END
>  <CHROM.1>
177.19259455,-169.58448540,-6.65050204,-3.93683044,9.37312145,-2.11848000
0.16732144,0.25614655

>  <Name>
ligand

>  <RI>
0

>  <Rbt.Current_Directory>
/home/itssahil/PROJECTS/Mol_Feturizer/New_Systems/rnas/3SKI

>  <Rbt.Executable>
rbdock ($Id: //depot/dev/client3/rdock/2013.1/src/exe/rbdock.cxx#4 $)

>  <Rbt.Library>
libRbt.so (2013.1, Build901 2013/11/27)

>  <Rbt.Parameter_File>
/export/apps/rDock/src/rDock_2013.1_src/data/scripts/dock_solv.prm

>  <Rbt.Receptor>
prm/pocket_docking_4.prm

>  <SCORE>
-17.8685

>  <SCORE.INTER>
-14.9558

>  <SCORE.INTER.CONST>
1

>  <SCORE.INTER.POLAR>
0

>  <SCORE.INTER.ROT>
2

>  <SCORE.INTER.SOLV>
18.5238

>  <SCORE.INTER.VDW>
-21.0785

>  <SCORE.INTER.norm>
-0.787149

>  <SCORE.INTRA>
-2.91268

>  <SCORE.INTRA.DIHEDRAL>
-5.02875

>  <SCORE.INTRA.DIHEDRAL.0>
6.26853

>  <SCORE.INTRA.POLAR>
0

>  <SCORE.INTRA.POLAR.0>
0

>  <SCORE.INTRA.REPUL>
0

>  <SCORE.INTRA.REPUL.0>
0

>  <SCORE.INTRA.SOLV>
-0.0266033

>  <SCORE.INTRA.SOLV.lig_0>
-38.4926

>  <SCORE.INTRA.VDW>
-0.385004

>  <SCORE.INTRA.VDW.0>
-0.59057

>  <SCORE.INTRA.norm>
-0.153299

>  <SCORE.RESTR>
0

>  <SCORE.RESTR.CAVITY>
0

>  <SCORE.RESTR.norm>
0

>  <SCORE.SYSTEM>
0

>  <SCORE.SYSTEM.CONST>
0

>  <SCORE.SYSTEM.DIHEDRAL>
0

>  <SCORE.SYSTEM.SOLV>
0

>  <SCORE.SYSTEM.norm>
0

>  <SCORE.heavy>
19

>  <SCORE.norm>
-0.940448

>  <RMSD>
1.957

$$$$
ligand
 OpenBabel11021811483D
libRbt.so/2013.1/901 2013/11/27
 19 21  0  0  0  0  0  0  0  0999 V2000
   -7.5811   -7.9363    8.4938 C   0  0  0  0  0  0  0  0  0  0  0  0
   -8.5368   -8.6239    7.6728 O   0  0  0  0  0  0  0  0  0  0  0  0
   -8.2905   -6.9574    9.4320 C   0  0  1  0  0  0  0  0  0  0  0  0
   -7.3426   -6.3036   10.2976 O   0  0  0  0  0  0  0  0  0  0  0  0
   -9.0050   -5.8705    8.6485 C   0  0  1  0  0  0  0  0  0  0  0  0
  -10.4193   -6.0994    8.6183 O   0  0  0  0  0  0  0  0  0  0  0  0
   -8.6931   -4.5743    9.3645 C   0  0  0  0  0  0  0  0  0  0  0  0
   -7.5241   -4.8800   10.2894 C   0  0  2  0  0  0  0  0  0  0  0  0
   -4.9873   -0.3153    9.7231 N   0  0  0  0  0  0  0  0  0  0  0  0
   -6.2172   -0.5686   10.2459 C   0  0  1  0  0  0  0  0  0  0  0  0
   -6.9605    0.4638   10.7103 N   0  0  0  0  0  0  0  0  0  0  0  0
   -6.7187   -1.8321   10.3087 N   0  0  0  0  0  0  0  0  0  0  0  0
   -6.0144   -2.9040    9.8542 C   0  0  2  0  0  0  0  0  0  0  0  0
   -4.7576   -2.7067    9.3112 C   0  0  1  0  0  0  0  0  0  0  0  0
   -4.2212   -1.3231    9.2503 C   0  0  0  0  0  0  0  0  0  0  0  0
   -3.0871   -1.0944    8.7734 O   0  0  0  0  0  0  0  0  0  0  0  0
   -4.2749   -3.9073    8.9470 N   0  0  0  0  0  0  0  0  0  0  0  0
   -5.2151   -4.8324    9.2512 C   0  0  0  0  0  0  0  0  0  0  0  0
   -6.2770   -4.2183    9.8042 N   0  0  1  0  0  0  0  0  0  0  0  0
  1  2  1  0  0  0  0
  3  1  1  6  0  0  0
  3  4  1  0  0  0  0
  3  5  1  0  0  0  0
  5  6  1  1  0  0  0
  5  7  1  0  0  0  0
  7  8  1  0  0  0  0
  8  4  1  6  0  0  0
  8 19  1  0  0  0  0
  9 15  1  0  0  0  0
  9 10  1  0  0  0  0
 10 11  1  6  0  0  0
 10 12  1  0  0  0  0
 13 12  1  6  0  0  0
 13 14  1  0  0  0  0
 13 19  1  0  0  0  0
 14 15  1  1  0  0  0
 14 17  1  0  0  0  0
 15 16  2  0  0  0  0
 17 18  1  0  0  0  0
 19 18  1  1  0  0  0
M  END
>  <CHROM.1>
177.63487525,-169.39585564,-6.69306811,-4.00272758,9.39649711,-2.11181124
0.17707044,0.26118733

>  <Name>
ligand

>  <RI>
0

>  <Rbt.Current_Directory>
/home/itssahil/PROJECTS/Mol_Feturizer/New_Systems/rnas/3SKI

>  <Rbt.Executable>
rbdock ($Id: //depot/dev/client3/rdock/2013.1/src/exe/rbdock.cxx#4 $)

>  <Rbt.Library>
libRbt.so (2013.1, Build901 2013/11/27)

>  <Rbt.Parameter_File>
/export/apps/rDock/src/rDock_2013.1_src/data/scripts/dock_solv.prm

>  <Rbt.Receptor>
prm/pocket_docking_5.prm

>  <SCORE>
-17.8529

>  <SCORE.INTER>
-14.9392

>  <SCORE.INTER.CONST>
1

>  <SCORE.INTER.POLAR>
0

>  <SCORE.INTER.ROT>
2

>  <SCORE.INTER.SOLV>
18.5107

>  <SCORE.INTER.VDW>
-21.063

>  <SCORE.INTER.norm>
-0.786273

>  <SCORE.INTRA>
-2.91372

>  <SCORE.INTRA.DIHEDRAL>
-5.03668

>  <SCORE.INTRA.DIHEDRAL.0>
6.26853

>  <SCORE.INTRA.POLAR>
0

>  <SCORE.INTRA.POLAR.0>
0

>  <SCORE.INTRA.REPUL>
0

>  <SCORE.INTRA.REPUL.0>
0

>  <SCORE.INTRA.SOLV>
-0.0243373

>  <SCORE.INTRA.SOLV.lig_0>
-38.4926

>  <SCORE.INTRA.VDW>
-0.383207

>  <SCORE.INTRA.VDW.0>
-0.59057

>  <SCORE.INTRA.norm>
-0.153353

>  <SCORE.RESTR>
0

>  <SCORE.RESTR.CAVITY>
0

>  <SCORE.RESTR.norm>
0

>  <SCORE.SYSTEM>
0

>  <SCORE.SYSTEM.CONST>
0

>  <SCORE.SYSTEM.DIHEDRAL>
0

>  <SCORE.SYSTEM.SOLV>
0

>  <SCORE.SYSTEM.norm>
0

>  <SCORE.heavy>
19

>  <SCORE.norm>
-0.939627

>  <RMSD>
1.960

$$$$
ligand
 OpenBabel11021811483D
libRbt.so/2013.1/901 2013/11/27
 19 21  0  0  0  0  0  0  0  0999 V2000
   -7.5490   -7.9154    8.4562 C   0  0  0  0  0  0  0  0  0  0  0  0
   -8.5242   -8.5369    7.6060 O   0  0  0  0  0  0  0  0  0  0  0  0
   -8.2293   -6.9562    9.4354 C   0  0  1  0  0  0  0  0  0  0  0  0
   -7.2555   -6.3204   10.2855 O   0  0  0  0  0  0  0  0  0  0  0  0
   -8.9664   -5.8532    8.6964 C   0  0  1  0  0  0  0  0  0  0  0  0
  -10.3811   -6.0815    8.7040 O   0  0  0  0  0  0  0  0  0  0  0  0
   -8.6323   -4.5722    9.4294 C   0  0  0  0  0  0  0  0  0  0  0  0
   -7.4362   -4.8970   10.3123 C   0  0  2  0  0  0  0  0  0  0  0  0
   -4.9881   -0.3024    9.6126 N   0  0  0  0  0  0  0  0  0  0  0  0
   -6.2107   -0.5646   10.1478 C   0  0  1  0  0  0  0  0  0  0  0  0
   -6.9712    0.4658   10.5883 N   0  0  0  0  0  0  0  0  0  0  0  0
   -6.6882   -1.8352   10.2467 N   0  0  0  0  0  0  0  0  0  0  0  0
   -5.9658   -2.9054    9.8174 C   0  0  2  0  0  0  0  0  0  0  0  0
   -4.7153   -2.6993    9.2633 C   0  0  1  0  0  0  0  0  0  0  0  0
   -4.2053   -1.3081    9.1631 C   0  0  0  0  0  0  0  0  0  0  0  0
   -3.0777   -1.0711    8.6748 O   0  0  0  0  0  0  0  0  0  0  0  0
   -4.2118   -3.9000    8.9288 N   0  0  0  0  0  0  0  0  0  0  0  0
   -5.1331   -4.8340    9.2621 C   0  0  0  0  0  0  0  0  0  0  0  0
   -6.2039   -4.2253    9.8037 N   0  0  1  0  0  0  0  0  0  0  0  0
  1  2  1  0  0  0  0
  3  1  1  6  0  0  0
  3  4  1  0  0  0  0
  3  5  1  0  0  0  0
  5  6  1  1  0  0  0
  5  7  1  0  0  0  0
  7  8  1  0  0  0  0
  8  4  1  6  0  0  0
  8 19  1  0  0  0  0
  9 15  1  0  0  0  0
  9 10  1  0  0  0  0
 10 11  1  6  0  0  0
 10 12  1  0  0  0  0
 13 12  1  6  0  0  0
 13 14  1  0  0  0  0
 13 19  1  0  0  0  0
 14 15  1  1  0  0  0
 14 17  1  0  0  0  0
 15 16  2  0  0  0  0
 17 18  1  0  0  0  0
 19 18  1  1  0  0  0
M  END
>  <CHROM.1>
-179.55141833,-172.66367534,-6.65239392,-3.99287126,9.36730624,-2.11261375
0.18369242,0.24909484

>  <Name>
ligand

>  <RI>
0

>  <Rbt.Current_Directory>
/home/itssahil/PROJECTS/Mol_Feturizer/New_Systems/rnas/3SKI

>  <Rbt.Executable>
rbdock ($Id: //depot/dev/client3/rdock/2013.1/src/exe/rbdock.cxx#4 $)

>  <Rbt.Library>
libRbt.so (2013.1, Build901 2013/11/27)

>  <Rbt.Parameter_File>
/export/apps/rDock/src/rDock_2013.1_src/data/scripts/dock_solv.prm

>  <Rbt.Receptor>
prm/pocket_docking_5.prm

>  <SCORE>
-17.929

>  <SCORE.INTER>
-15.0634

>  <SCORE.INTER.CONST>
1

>  <SCORE.INTER.POLAR>
0

>  <SCORE.INTER.ROT>
2

>  <SCORE.INTER.SOLV>
18.6261

>  <SCORE.INTER.VDW>
-21.1843

>  <SCORE.INTER.norm>
-0.792811

>  <SCORE.INTRA>
-2.86555

>  <SCORE.INTRA.DIHEDRAL>
-5.05801

>  <SCORE.INTRA.DIHEDRAL.0>
6.26853

>  <SCORE.INTRA.POLAR>
0

>  <SCORE.INTRA.POLAR.0>
0

>  <SCORE.INTRA.REPUL>
0

>  <SCORE.INTRA.REPUL.0>
0

>  <SCORE.INTRA.SOLV>
-0.0114779

>  <SCORE.INTRA.SOLV.lig_0>
-38.4926

>  <SCORE.INTRA.VDW>
-0.330802

>  <SCORE.INTRA.VDW.0>
-0.59057

>  <SCORE.INTRA.norm>
-0.150818

>  <SCORE.RESTR>
0

>  <SCORE.RESTR.CAVITY>
0

>  <SCORE.RESTR.norm>
0

>  <SCORE.SYSTEM>
0

>  <SCORE.SYSTEM.CONST>
0

>  <SCORE.SYSTEM.DIHEDRAL>
0

>  <SCORE.SYSTEM.SOLV>
0

>  <SCORE.SYSTEM.norm>
0

>  <SCORE.heavy>
19

>  <SCORE.norm>
-0.94363

>  <RMSD>
1.962

$$$$
ligand
 OpenBabel11021811483D
libRbt.so/2013.1/901 2013/11/27
 19 21  0  0  0  0  0  0  0  0999 V2000
   -7.5354   -7.9169    8.4383 C   0  0  0  0  0  0  0  0  0  0  0  0
   -8.4993   -8.6091    7.6309 O   0  0  0  0  0  0  0  0  0  0  0  0
   -8.2366   -6.9462    9.3911 C   0  0  1  0  0  0  0  0  0  0  0  0
   -7.2826   -6.3089   10.2622 O   0  0  0  0  0  0  0  0  0  0  0  0
   -8.9472   -5.8453    8.6236 C   0  0  1  0  0  0  0  0  0  0  0  0
  -10.3628   -6.0659    8.5947 O   0  0  0  0  0  0  0  0  0  0  0  0
   -8.6260   -4.5602    9.3553 C   0  0  0  0  0  0  0  0  0  0  0  0
   -7.4561   -4.8843   10.2728 C   0  0  2  0  0  0  0  0  0  0  0  0
   -4.9333   -0.3159    9.6741 N   0  0  0  0  0  0  0  0  0  0  0  0
   -6.1677   -0.5679   10.1868 C   0  0  1  0  0  0  0  0  0  0  0  0
   -6.9204    0.4671   10.6296 N   0  0  0  0  0  0  0  0  0  0  0  0
   -6.6643   -1.8328   10.2608 N   0  0  0  0  0  0  0  0  0  0  0  0
   -5.9504   -2.9073    9.8280 C   0  0  2  0  0  0  0  0  0  0  0  0
   -4.6887   -2.7115    9.2961 C   0  0  1  0  0  0  0  0  0  0  0  0
   -4.1577   -1.3264    9.2229 C   0  0  0  0  0  0  0  0  0  0  0  0
   -3.0195   -1.0989    8.7553 O   0  0  0  0  0  0  0  0  0  0  0  0
   -4.1968   -3.9146    8.9530 N   0  0  0  0  0  0  0  0  0  0  0  0
   -5.1362   -4.8398    9.2591 C   0  0  0  0  0  0  0  0  0  0  0  0
   -6.2067   -4.2234    9.7925 N   0  0  1  0  0  0  0  0  0  0  0  0
  1  2  1  0  0  0  0
  3  1  1  6  0  0  0
  3  4  1  0  0  0  0
  3  5  1  0  0  0  0
  5  6  1  1  0  0  0
  5  7  1  0  0  0  0
  7  8  1  0  0  0  0
  8  4  1  6  0  0  0
  8 19  1  0  0  0  0
  9 15  1  0  0  0  0
  9 10  1  0  0  0  0
 10 11  1  6  0  0  0
 10 12  1  0  0  0  0
 13 12  1  6  0  0  0
 13 14  1  0  0  0  0
 13 19  1  0  0  0  0
 14 15  1  1  0  0  0
 14 17  1  0  0  0  0
 15 16  2  0  0  0  0
 17 18  1  0  0  0  0
 19 18  1  1  0  0  0
M  END
>  <CHROM.1>
176.42412208,-171.17372787,-6.63361488,-3.99835923,9.36628465,-2.11329170
0.16546677,0.25402085

>  <Name>
ligand

>  <RI>
0

>  <Rbt.Current_Directory>
/home/itssahil/PROJECTS/Mol_Feturizer/New_Systems/rnas/3SKI

>  <Rbt.Executable>
rbdock ($Id: //depot/dev/client3/rdock/2013.1/src/exe/rbdock.cxx#4 $)

>  <Rbt.Library>
libRbt.so (2013.1, Build901 2013/11/27)

>  <Rbt.Parameter_File>
/export/apps/rDock/src/rDock_2013.1_src/data/scripts/dock_solv.prm

>  <Rbt.Receptor>
prm/pocket_docking_4.prm

>  <SCORE>
-17.8806

>  <SCORE.INTER>
-14.9817

>  <SCORE.INTER.CONST>
1

>  <SCORE.INTER.POLAR>
0

>  <SCORE.INTER.ROT>
2

>  <SCORE.INTER.SOLV>
18.5466

>  <SCORE.INTER.VDW>
-21.1033

>  <SCORE.INTER.norm>
-0.788511

>  <SCORE.INTRA>
-2.89888

>  <SCORE.INTRA.DIHEDRAL>
-5.01274

>  <SCORE.INTRA.DIHEDRAL.0>
6.26853

>  <SCORE.INTRA.POLAR>
0

>  <SCORE.INTRA.POLAR.0>
0

>  <SCORE.INTRA.REPUL>
0

>  <SCORE.INTRA.REPUL.0>
0

>  <SCORE.INTRA.SOLV>
-0.0309485

>  <SCORE.INTRA.SOLV.lig_0>
-38.4926

>  <SCORE.INTRA.VDW>
-0.377037

>  <SCORE.INTRA.VDW.0>
-0.59057

>  <SCORE.INTRA.norm>
-0.152573

>  <SCORE.RESTR>
0

>  <SCORE.RESTR.CAVITY>
0

>  <SCORE.RESTR.norm>
0

>  <SCORE.SYSTEM>
0

>  <SCORE.SYSTEM.CONST>
0

>  <SCORE.SYSTEM.DIHEDRAL>
0

>  <SCORE.SYSTEM.SOLV>
0

>  <SCORE.SYSTEM.norm>
0

>  <SCORE.heavy>
19

>  <SCORE.norm>
-0.941084

>  <RMSD>
1.966

$$$$
ligand
 OpenBabel11021811483D
libRbt.so/2013.1/901 2013/11/27
 19 21  0  0  0  0  0  0  0  0999 V2000
   -7.6121   -7.9279    8.4788 C   0  0  0  0  0  0  0  0  0  0  0  0
   -8.5578   -8.6165    7.6470 O   0  0  0  0  0  0  0  0  0  0  0  0
   -8.3296   -6.9227    9.3824 C   0  0  1  0  0  0  0  0  0  0  0  0
   -7.3931   -6.2656   10.2577 O   0  0  0  0  0  0  0  0  0  0  0  0
   -9.0111   -5.8411    8.5630 C   0  0  1  0  0  0  0  0  0  0  0  0
  -10.4273   -6.0520    8.5042 O   0  0  0  0  0  0  0  0  0  0  0  0
   -8.6982   -4.5362    9.2625 C   0  0  0  0  0  0  0  0  0  0  0  0
   -7.5550   -4.8401   10.2196 C   0  0  2  0  0  0  0  0  0  0  0  0
   -4.9436   -0.3204    9.6316 N   0  0  0  0  0  0  0  0  0  0  0  0
   -6.1884   -0.5479   10.1305 C   0  0  1  0  0  0  0  0  0  0  0  0
   -6.9277    0.5024   10.5596 N   0  0  0  0  0  0  0  0  0  0  0  0
   -6.7085   -1.8034   10.2039 N   0  0  0  0  0  0  0  0  0  0  0  0
   -6.0089   -2.8924    9.7845 C   0  0  2  0  0  0  0  0  0  0  0  0
   -4.7375   -2.7216    9.2671 C   0  0  1  0  0  0  0  0  0  0  0  0
   -4.1809   -1.3467    9.1942 C   0  0  0  0  0  0  0  0  0  0  0  0
   -3.0332   -1.1416    8.7395 O   0  0  0  0  0  0  0  0  0  0  0  0
   -4.2632   -3.9349    8.9351 N   0  0  0  0  0  0  0  0  0  0  0  0
   -5.2227   -4.8418    9.2339 C   0  0  0  0  0  0  0  0  0  0  0  0
   -6.2882   -4.2039    9.7516 N   0  0  1  0  0  0  0  0  0  0  0  0
  1  2  1  0  0  0  0
  3  1  1  6  0  0  0
  3  4  1  0  0  0  0
  3  5  1  0  0  0  0
  5  6  1  1  0  0  0
  5  7  1  0  0  0  0
  7  8  1  0  0  0  0
  8  4  1  6  0  0  0
  8 19  1  0  0  0  0
  9 15  1  0  0  0  0
  9 10  1  0  0  0  0
 10 11  1  6  0  0  0
 10 12  1  0  0  0  0
 13 12  1  6  0  0  0
 13 14  1  0  0  0  0
 13 19  1  0  0  0  0
 14 15  1  1  0  0  0
 14 17  1  0  0  0  0
 15 16  2  0  0  0  0
 17 18  1  0  0  0  0
 19 18  1  1  0  0  0
M  END
>  <CHROM.1>
177.71778858,-169.35779965,-6.69168713,-3.99035026,9.33092213,-2.11915688
0.15170922,0.24463537

>  <Name>
ligand

>  <RI>
0

>  <Rbt.Current_Directory>
/home/itssahil/PROJECTS/Mol_Feturizer/New_Systems/rnas/3SKI

>  <Rbt.Executable>
rbdock ($Id: //depot/dev/client3/rdock/2013.1/src/exe/rbdock.cxx#4 $)

>  <Rbt.Library>
libRbt.so (2013.1, Build901 2013/11/27)

>  <Rbt.Parameter_File>
/export/apps/rDock/src/rDock_2013.1_src/data/scripts/dock_solv.prm

>  <Rbt.Receptor>
prm/pocket_docking_4.prm

>  <SCORE>
-17.913

>  <SCORE.INTER>
-14.9991

>  <SCORE.INTER.CONST>
1

>  <SCORE.INTER.POLAR>
0

>  <SCORE.INTER.ROT>
2

>  <SCORE.INTER.SOLV>
18.615

>  <SCORE.INTER.VDW>
-21.1378

>  <SCORE.INTER.norm>
-0.789428

>  <SCORE.INTRA>
-2.91384

>  <SCORE.INTRA.DIHEDRAL>
-5.03801

>  <SCORE.INTRA.DIHEDRAL.0>
6.26853

>  <SCORE.INTRA.POLAR>
0

>  <SCORE.INTRA.POLAR.0>
0

>  <SCORE.INTRA.REPUL>
0

>  <SCORE.INTRA.REPUL.0>
0

>  <SCORE.INTRA.SOLV>
-0.0239125

>  <SCORE.INTRA.SOLV.lig_0>
-38.4926

>  <SCORE.INTRA.VDW>
-0.38288

>  <SCORE.INTRA.VDW.0>
-0.59057

>  <SCORE.INTRA.norm>
-0.15336

>  <SCORE.RESTR>
0

>  <SCORE.RESTR.CAVITY>
0

>  <SCORE.RESTR.norm>
0

>  <SCORE.SYSTEM>
0

>  <SCORE.SYSTEM.CONST>
0

>  <SCORE.SYSTEM.DIHEDRAL>
0

>  <SCORE.SYSTEM.SOLV>
0

>  <SCORE.SYSTEM.norm>
0

>  <SCORE.heavy>
19

>  <SCORE.norm>
-0.942788

>  <RMSD>
1.978

$$$$
ligand
 OpenBabel11021811483D
libRbt.so/2013.1/901 2013/11/27
 19 21  0  0  0  0  0  0  0  0999 V2000
   -7.6436   -7.9460    8.5008 C   0  0  0  0  0  0  0  0  0  0  0  0
   -8.5815   -8.6515    7.6746 O   0  0  0  0  0  0  0  0  0  0  0  0
   -8.3722   -6.9413    9.3962 C   0  0  1  0  0  0  0  0  0  0  0  0
   -7.4454   -6.2789   10.2778 O   0  0  0  0  0  0  0  0  0  0  0  0
   -9.0506   -5.8639    8.5686 C   0  0  1  0  0  0  0  0  0  0  0  0
  -10.4655   -6.0799    8.4983 O   0  0  0  0  0  0  0  0  0  0  0  0
   -8.7481   -4.5563    9.2677 C   0  0  0  0  0  0  0  0  0  0  0  0
   -7.6120   -4.8541   10.2352 C   0  0  2  0  0  0  0  0  0  0  0  0
   -4.9911   -0.3325    9.7074 N   0  0  0  0  0  0  0  0  0  0  0  0
   -6.2368   -0.5639   10.2023 C   0  0  1  0  0  0  0  0  0  0  0  0
   -6.9743    0.4823   10.6443 N   0  0  0  0  0  0  0  0  0  0  0  0
   -6.7594   -1.8191   10.2592 N   0  0  0  0  0  0  0  0  0  0  0  0
   -6.0616   -2.9041    9.8264 C   0  0  2  0  0  0  0  0  0  0  0  0
   -4.7895   -2.7292    9.3122 C   0  0  1  0  0  0  0  0  0  0  0  0
   -4.2301   -1.3545    9.2575 C   0  0  0  0  0  0  0  0  0  0  0  0
   -3.0816   -1.1460    8.8064 O   0  0  0  0  0  0  0  0  0  0  0  0
   -4.3173   -3.9391    8.9651 N   0  0  0  0  0  0  0  0  0  0  0  0
   -5.2788   -4.8478    9.2514 C   0  0  0  0  0  0  0  0  0  0  0  0
   -6.3436   -4.2145    9.7764 N   0  0  1  0  0  0  0  0  0  0  0  0
  1  2  1  0  0  0  0
  3  1  1  6  0  0  0
  3  4  1  0  0  0  0
  3  5  1  0  0  0  0
  5  6  1  1  0  0  0
  5  7  1  0  0  0  0
  7  8  1  0  0  0  0
  8  4  1  6  0  0  0
  8 19  1  0  0  0  0
  9 15  1  0  0  0  0
  9 10  1  0  0  0  0
 10 11  1  6  0  0  0
 10 12  1  0  0  0  0
 13 12  1  6  0  0  0
 13 14  1  0  0  0  0
 13 19  1  0  0  0  0
 14 15  1  1  0  0  0
 14 17  1  0  0  0  0
 15 16  2  0  0  0  0
 17 18  1  0  0  0  0
 19 18  1  1  0  0  0
M  END
>  <CHROM.1>
177.00023570,-168.34014046,-6.73847507,-4.00570554,9.36631226,-2.11567531
0.15124660,0.25226688

>  <Name>
ligand

>  <RI>
0

>  <Rbt.Current_Directory>
/home/itssahil/PROJECTS/Mol_Feturizer/New_Systems/rnas/3SKI

>  <Rbt.Executable>
rbdock ($Id: //depot/dev/client3/rdock/2013.1/src/exe/rbdock.cxx#4 $)

>  <Rbt.Library>
libRbt.so (2013.1, Build901 2013/11/27)

>  <Rbt.Parameter_File>
/export/apps/rDock/src/rDock_2013.1_src/data/scripts/dock_solv.prm

>  <Rbt.Receptor>
prm/pocket_docking_4.prm

>  <SCORE>
-17.8882

>  <SCORE.INTER>
-14.9661

>  <SCORE.INTER.CONST>
1

>  <SCORE.INTER.POLAR>
0

>  <SCORE.INTER.ROT>
2

>  <SCORE.INTER.SOLV>
18.5687

>  <SCORE.INTER.VDW>
-21.1003

>  <SCORE.INTER.norm>
-0.787688

>  <SCORE.INTRA>
-2.9221

>  <SCORE.INTRA.DIHEDRAL>
-5.02377

>  <SCORE.INTRA.DIHEDRAL.0>
6.26853

>  <SCORE.INTRA.POLAR>
0

>  <SCORE.INTRA.POLAR.0>
0

>  <SCORE.INTRA.REPUL>
0

>  <SCORE.INTRA.REPUL.0>
0

>  <SCORE.INTRA.SOLV>
-0.0271927

>  <SCORE.INTRA.SOLV.lig_0>
-38.4926

>  <SCORE.INTRA.VDW>
-0.396622

>  <SCORE.INTRA.VDW.0>
-0.59057

>  <SCORE.INTRA.norm>
-0.153795

>  <SCORE.RESTR>
0

>  <SCORE.RESTR.CAVITY>
0

>  <SCORE.RESTR.norm>
0

>  <SCORE.SYSTEM>
0

>  <SCORE.SYSTEM.CONST>
0

>  <SCORE.SYSTEM.DIHEDRAL>
0

>  <SCORE.SYSTEM.SOLV>
0

>  <SCORE.SYSTEM.norm>
0

>  <SCORE.heavy>
19

>  <SCORE.norm>
-0.941483

>  <RMSD>
1.979

$$$$
ligand
 OpenBabel11021811483D
libRbt.so/2013.1/901 2013/11/27
 19 21  0  0  0  0  0  0  0  0999 V2000
   -7.6127   -7.8826    8.4561 C   0  0  0  0  0  0  0  0  0  0  0  0
   -8.5604   -8.5658    7.6221 O   0  0  0  0  0  0  0  0  0  0  0  0
   -8.3287   -6.8876    9.3721 C   0  0  1  0  0  0  0  0  0  0  0  0
   -7.3907   -6.2402   10.2530 O   0  0  0  0  0  0  0  0  0  0  0  0
   -9.0118   -5.7970    8.5660 C   0  0  1  0  0  0  0  0  0  0  0  0
  -10.4281   -6.0074    8.5073 O   0  0  0  0  0  0  0  0  0  0  0  0
   -8.6978   -4.4999    9.2794 C   0  0  0  0  0  0  0  0  0  0  0  0
   -7.5528   -4.8144   10.2311 C   0  0  2  0  0  0  0  0  0  0  0  0
   -4.9067   -0.3000    9.7713 N   0  0  0  0  0  0  0  0  0  0  0  0
   -6.1463   -0.5345   10.2800 C   0  0  1  0  0  0  0  0  0  0  0  0
   -6.8690    0.5059   10.7586 N   0  0  0  0  0  0  0  0  0  0  0  0
   -6.6774   -1.7870   10.3148 N   0  0  0  0  0  0  0  0  0  0  0  0
   -5.9945   -2.8661    9.8451 C   0  0  2  0  0  0  0  0  0  0  0  0
   -4.7292   -2.6879    9.3153 C   0  0  1  0  0  0  0  0  0  0  0  0
   -4.1605   -1.3163    9.2850 C   0  0  0  0  0  0  0  0  0  0  0  0
   -3.0177   -1.1050    8.8210 O   0  0  0  0  0  0  0  0  0  0  0  0
   -4.2716   -3.8923    8.9318 N   0  0  0  0  0  0  0  0  0  0  0  0
   -5.2353   -4.8008    9.2112 C   0  0  0  0  0  0  0  0  0  0  0  0
   -6.2870   -4.1728    9.7680 N   0  0  1  0  0  0  0  0  0  0  0  0
  1  2  1  0  0  0  0
  3  1  1  6  0  0  0
  3  4  1  0  0  0  0
  3  5  1  0  0  0  0
  5  6  1  1  0  0  0
  5  7  1  0  0  0  0
  7  8  1  0  0  0  0
  8  4  1  6  0  0  0
  8 19  1  0  0  0  0
  9 15  1  0  0  0  0
  9 10  1  0  0  0  0
 10 11  1  6  0  0  0
 10 12  1  0  0  0  0
 13 12  1  6  0  0  0
 13 14  1  0  0  0  0
 13 19  1  0  0  0  0
 14 15  1  1  0  0  0
 14 17  1  0  0  0  0
 15 16  2  0  0  0  0
 17 18  1  0  0  0  0
 19 18  1  1  0  0  0
M  END
>  <CHROM.1>
177.49047287,-167.61209201,-6.68093944,-3.95832653,9.37399986,-2.12353926
0.16543789,0.27521939

>  <Name>
ligand

>  <RI>
0

>  <Rbt.Current_Directory>
/home/itssahil/PROJECTS/Mol_Feturizer/New_Systems/rnas/3SKI

>  <Rbt.Executable>
rbdock ($Id: //depot/dev/client3/rdock/2013.1/src/exe/rbdock.cxx#4 $)

>  <Rbt.Library>
libRbt.so (2013.1, Build901 2013/11/27)

>  <Rbt.Parameter_File>
/export/apps/rDock/src/rDock_2013.1_src/data/scripts/dock_solv.prm

>  <Rbt.Receptor>
prm/pocket_docking_8.prm

>  <SCORE>
-17.9078

>  <SCORE.INTER>
-14.9804

>  <SCORE.INTER.CONST>
1

>  <SCORE.INTER.POLAR>
0

>  <SCORE.INTER.ROT>
2

>  <SCORE.INTER.SOLV>
18.5419

>  <SCORE.INTER.VDW>
-21.1009

>  <SCORE.INTER.norm>
-0.788444

>  <SCORE.INTRA>
-2.92736

>  <SCORE.INTRA.DIHEDRAL>
-5.03274

>  <SCORE.INTRA.DIHEDRAL.0>
6.26853

>  <SCORE.INTRA.POLAR>
0

>  <SCORE.INTRA.POLAR.0>
0

>  <SCORE.INTRA.REPUL>
0

>  <SCORE.INTRA.REPUL.0>
0

>  <SCORE.INTRA.SOLV>
-0.0245281

>  <SCORE.INTRA.SOLV.lig_0>
-38.4926

>  <SCORE.INTRA.VDW>
-0.398724

>  <SCORE.INTRA.VDW.0>
-0.59057

>  <SCORE.INTRA.norm>
-0.154072

>  <SCORE.RESTR>
0

>  <SCORE.RESTR.CAVITY>
0

>  <SCORE.RESTR.norm>
0

>  <SCORE.SYSTEM>
0

>  <SCORE.SYSTEM.CONST>
0

>  <SCORE.SYSTEM.DIHEDRAL>
0

>  <SCORE.SYSTEM.SOLV>
0

>  <SCORE.SYSTEM.norm>
0

>  <SCORE.heavy>
19

>  <SCORE.norm>
-0.942516

>  <RMSD>
1.981

$$$$
ligand
 OpenBabel11021811483D
libRbt.so/2013.1/901 2013/11/27
 19 21  0  0  0  0  0  0  0  0999 V2000
   -7.6102   -7.9528    8.4444 C   0  0  0  0  0  0  0  0  0  0  0  0
   -8.5751   -8.6362    7.6306 O   0  0  0  0  0  0  0  0  0  0  0  0
   -8.3100   -6.9888    9.4050 C   0  0  1  0  0  0  0  0  0  0  0  0
   -7.3526   -6.3432   10.2661 O   0  0  0  0  0  0  0  0  0  0  0  0
   -9.0386   -5.8941    8.6456 C   0  0  1  0  0  0  0  0  0  0  0  0
  -10.4524   -6.1275    8.6316 O   0  0  0  0  0  0  0  0  0  0  0  0
   -8.7212   -4.6064    9.3744 C   0  0  0  0  0  0  0  0  0  0  0  0
   -7.5387   -4.9202   10.2793 C   0  0  2  0  0  0  0  0  0  0  0  0
   -5.0492   -0.3328    9.6871 N   0  0  0  0  0  0  0  0  0  0  0  0
   -6.2740   -0.5965   10.2167 C   0  0  1  0  0  0  0  0  0  0  0  0
   -7.0249    0.4300   10.6818 N   0  0  0  0  0  0  0  0  0  0  0  0
   -6.7629   -1.8647   10.2857 N   0  0  0  0  0  0  0  0  0  0  0  0
   -6.0505   -2.9309    9.8308 C   0  0  2  0  0  0  0  0  0  0  0  0
   -4.7983   -2.7231    9.2811 C   0  0  1  0  0  0  0  0  0  0  0  0
   -4.2757   -1.3346    9.2135 C   0  0  0  0  0  0  0  0  0  0  0  0
   -3.1462   -1.0963    8.7304 O   0  0  0  0  0  0  0  0  0  0  0  0
   -4.3058   -3.9201    8.9180 N   0  0  0  0  0  0  0  0  0  0  0  0
   -5.2355   -4.8533    9.2296 C   0  0  0  0  0  0  0  0  0  0  0  0
   -6.3005   -4.2480    9.7860 N   0  0  1  0  0  0  0  0  0  0  0  0
  1  2  1  0  0  0  0
  3  1  1  6  0  0  0
  3  4  1  0  0  0  0
  3  5  1  0  0  0  0
  5  6  1  1  0  0  0
  5  7  1  0  0  0  0
  7  8  1  0  0  0  0
  8  4  1  6  0  0  0
  8 19  1  0  0  0  0
  9 15  1  0  0  0  0
  9 10  1  0  0  0  0
 10 11  1  6  0  0  0
 10 12  1  0  0  0  0
 13 12  1  6  0  0  0
 13 14  1  0  0  0  0
 13 19  1  0  0  0  0
 14 15  1  1  0  0  0
 14 17  1  0  0  0  0
 15 16  2  0  0  0  0
 17 18  1  0  0  0  0
 19 18  1  1  0  0  0
M  END
>  <CHROM.1>
177.43170174,-170.50611208,-6.72975760,-4.02664800,9.37233102,-2.10920153
0.18310296,0.26178396

>  <Name>
ligand

>  <RI>
0

>  <Rbt.Current_Directory>
/home/itssahil/PROJECTS/Mol_Feturizer/New_Systems/rnas/3SKI

>  <Rbt.Executable>
rbdock ($Id: //depot/dev/client3/rdock/2013.1/src/exe/rbdock.cxx#4 $)

>  <Rbt.Library>
libRbt.so (2013.1, Build901 2013/11/27)

>  <Rbt.Parameter_File>
/export/apps/rDock/src/rDock_2013.1_src/data/scripts/dock_solv.prm

>  <Rbt.Receptor>
prm/pocket_docking_8.prm

>  <SCORE>
-17.8791

>  <SCORE.INTER>
-14.9738

>  <SCORE.INTER.CONST>
1

>  <SCORE.INTER.POLAR>
0

>  <SCORE.INTER.ROT>
2

>  <SCORE.INTER.SOLV>
18.6338

>  <SCORE.INTER.VDW>
-21.1271

>  <SCORE.INTER.norm>
-0.788093

>  <SCORE.INTRA>
-2.9053

>  <SCORE.INTRA.DIHEDRAL>
-5.03409

>  <SCORE.INTRA.DIHEDRAL.0>
6.26853

>  <SCORE.INTRA.POLAR>
0

>  <SCORE.INTRA.POLAR.0>
0

>  <SCORE.INTRA.REPUL>
0

>  <SCORE.INTRA.REPUL.0>
0

>  <SCORE.INTRA.SOLV>
-0.0256914

>  <SCORE.INTRA.SOLV.lig_0>
-38.4926

>  <SCORE.INTRA.VDW>
-0.375407

>  <SCORE.INTRA.VDW.0>
-0.59057

>  <SCORE.INTRA.norm>
-0.15291

>  <SCORE.RESTR>
0

>  <SCORE.RESTR.CAVITY>
0

>  <SCORE.RESTR.norm>
0

>  <SCORE.SYSTEM>
0

>  <SCORE.SYSTEM.CONST>
0

>  <SCORE.SYSTEM.DIHEDRAL>
0

>  <SCORE.SYSTEM.SOLV>
0

>  <SCORE.SYSTEM.norm>
0

>  <SCORE.heavy>
19

>  <SCORE.norm>
-0.941003

>  <RMSD>
1.984

$$$$
ligand
 OpenBabel11021811483D
libRbt.so/2013.1/901 2013/11/27
 19 21  0  0  0  0  0  0  0  0999 V2000
   -7.5812   -7.9151    8.4130 C   0  0  0  0  0  0  0  0  0  0  0  0
   -8.5511   -8.6079    7.6133 O   0  0  0  0  0  0  0  0  0  0  0  0
   -8.2752   -6.9423    9.3689 C   0  0  1  0  0  0  0  0  0  0  0  0
   -7.3149   -6.3043   10.2325 O   0  0  0  0  0  0  0  0  0  0  0  0
   -8.9902   -5.8421    8.6045 C   0  0  1  0  0  0  0  0  0  0  0  0
  -10.4062   -6.0617    8.5855 O   0  0  0  0  0  0  0  0  0  0  0  0
   -8.6631   -4.5561    9.3319 C   0  0  0  0  0  0  0  0  0  0  0  0
   -7.4872   -4.8796   10.2420 C   0  0  2  0  0  0  0  0  0  0  0  0
   -4.9459   -0.3192    9.6608 N   0  0  0  0  0  0  0  0  0  0  0  0
   -6.1747   -0.5699   10.1875 C   0  0  1  0  0  0  0  0  0  0  0  0
   -6.9152    0.4642   10.6523 N   0  0  0  0  0  0  0  0  0  0  0  0
   -6.6777   -1.8327   10.2539 N   0  0  0  0  0  0  0  0  0  0  0  0
   -5.9761   -2.9063    9.7992 C   0  0  2  0  0  0  0  0  0  0  0  0
   -4.7206   -2.7116    9.2524 C   0  0  1  0  0  0  0  0  0  0  0  0
   -4.1826   -1.3289    9.1876 C   0  0  0  0  0  0  0  0  0  0  0  0
   -3.0494   -1.1025    8.7071 O   0  0  0  0  0  0  0  0  0  0  0  0
   -4.2406   -3.9135    8.8888 N   0  0  0  0  0  0  0  0  0  0  0  0
   -5.1812   -4.8368    9.1972 C   0  0  0  0  0  0  0  0  0  0  0  0
   -6.2406   -4.2204    9.7522 N   0  0  1  0  0  0  0  0  0  0  0  0
  1  2  1  0  0  0  0
  3  1  1  6  0  0  0
  3  4  1  0  0  0  0
  3  5  1  0  0  0  0
  5  6  1  1  0  0  0
  5  7  1  0  0  0  0
  7  8  1  0  0  0  0
  8  4  1  6  0  0  0
  8 19  1  0  0  0  0
  9 15  1  0  0  0  0
  9 10  1  0  0  0  0
 10 11  1  6  0  0  0
 10 12  1  0  0  0  0
 13 12  1  6  0  0  0
 13 14  1  0  0  0  0
 13 19  1  0  0  0  0
 14 15  1  1  0  0  0
 14 17  1  0  0  0  0
 15 16  2  0  0  0  0
 17 18  1  0  0  0  0
 19 18  1  1  0  0  0
M  END
>  <CHROM.1>
176.41754602,-170.28146007,-6.66480423,-3.99718876,9.34042490,-2.11795502
0.17809383,0.26285625

>  <Name>
ligand

>  <RI>
0

>  <Rbt.Current_Directory>
/home/itssahil/PROJECTS/Mol_Feturizer/New_Systems/rnas/3SKI

>  <Rbt.Executable>
rbdock ($Id: //depot/dev/client3/rdock/2013.1/src/exe/rbdock.cxx#4 $)

>  <Rbt.Library>
libRbt.so (2013.1, Build901 2013/11/27)

>  <Rbt.Parameter_File>
/export/apps/rDock/src/rDock_2013.1_src/data/scripts/dock_solv.prm

>  <Rbt.Receptor>
prm/pocket_docking_5.prm

>  <SCORE>
-17.9756

>  <SCORE.INTER>
-15.0696

>  <SCORE.INTER.CONST>
1

>  <SCORE.INTER.POLAR>
0

>  <SCORE.INTER.ROT>
2

>  <SCORE.INTER.SOLV>
18.5673

>  <SCORE.INTER.VDW>
-21.1688

>  <SCORE.INTER.norm>
-0.793135

>  <SCORE.INTRA>
-2.90603

>  <SCORE.INTRA.DIHEDRAL>
-5.0118

>  <SCORE.INTRA.DIHEDRAL.0>
6.26853

>  <SCORE.INTRA.POLAR>
0

>  <SCORE.INTRA.POLAR.0>
0

>  <SCORE.INTRA.REPUL>
0

>  <SCORE.INTRA.REPUL.0>
0

>  <SCORE.INTRA.SOLV>
-0.0307035

>  <SCORE.INTRA.SOLV.lig_0>
-38.4926

>  <SCORE.INTRA.VDW>
-0.384779

>  <SCORE.INTRA.VDW.0>
-0.59057

>  <SCORE.INTRA.norm>
-0.152949

>  <SCORE.RESTR>
0

>  <SCORE.RESTR.CAVITY>
0

>  <SCORE.RESTR.norm>
0

>  <SCORE.SYSTEM>
0

>  <SCORE.SYSTEM.CONST>
0

>  <SCORE.SYSTEM.DIHEDRAL>
0

>  <SCORE.SYSTEM.SOLV>
0

>  <SCORE.SYSTEM.norm>
0

>  <SCORE.heavy>
19

>  <SCORE.norm>
-0.946084

>  <RMSD>
1.985

$$$$
ligand
 OpenBabel11021811483D
libRbt.so/2013.1/901 2013/11/27
 19 21  0  0  0  0  0  0  0  0999 V2000
   -7.6573   -7.9506    8.4734 C   0  0  0  0  0  0  0  0  0  0  0  0
   -8.5922   -8.6650    7.6514 O   0  0  0  0  0  0  0  0  0  0  0  0
   -8.3890   -6.9357    9.3546 C   0  0  1  0  0  0  0  0  0  0  0  0
   -7.4676   -6.2745   10.2428 O   0  0  0  0  0  0  0  0  0  0  0  0
   -9.0506   -5.8587    8.5131 C   0  0  1  0  0  0  0  0  0  0  0  0
  -10.4661   -6.0655    8.4282 O   0  0  0  0  0  0  0  0  0  0  0  0
   -8.7471   -4.5491    9.2081 C   0  0  0  0  0  0  0  0  0  0  0  0
   -7.6240   -4.8488   10.1899 C   0  0  2  0  0  0  0  0  0  0  0  0
   -4.9443   -0.3555    9.7184 N   0  0  0  0  0  0  0  0  0  0  0  0
   -6.1943   -0.5763   10.2070 C   0  0  1  0  0  0  0  0  0  0  0  0
   -6.9200    0.4744   10.6581 N   0  0  0  0  0  0  0  0  0  0  0  0
   -6.7331   -1.8254   10.2490 N   0  0  0  0  0  0  0  0  0  0  0  0
   -6.0477   -2.9145    9.8066 C   0  0  2  0  0  0  0  0  0  0  0  0
   -4.7719   -2.7503    9.2981 C   0  0  1  0  0  0  0  0  0  0  0  0
   -4.1950   -1.3824    9.2598 C   0  0  0  0  0  0  0  0  0  0  0  0
   -3.0425   -1.1836    8.8143 O   0  0  0  0  0  0  0  0  0  0  0  0
   -4.3141   -3.9623    8.9395 N   0  0  0  0  0  0  0  0  0  0  0  0
   -5.2879   -4.8617    9.2132 C   0  0  0  0  0  0  0  0  0  0  0  0
   -6.3462   -4.2205    9.7418 N   0  0  1  0  0  0  0  0  0  0  0  0
  1  2  1  0  0  0  0
  3  1  1  6  0  0  0
  3  4  1  0  0  0  0
  3  5  1  0  0  0  0
  5  6  1  1  0  0  0
  5  7  1  0  0  0  0
  7  8  1  0  0  0  0
  8  4  1  6  0  0  0
  8 19  1  0  0  0  0
  9 15  1  0  0  0  0
  9 10  1  0  0  0  0
 10 11  1  6  0  0  0
 10 12  1  0  0  0  0
 13 12  1  6  0  0  0
 13 14  1  0  0  0  0
 13 19  1  0  0  0  0
 14 15  1  1  0  0  0
 14 17  1  0  0  0  0
 15 16  2  0  0  0  0
 17 18  1  0  0  0  0
 19 18  1  1  0  0  0
M  END
>  <CHROM.1>
176.36254221,-167.22870031,-6.72879955,-4.01425312,9.34172854,-2.12165810
0.14485375,0.25799699

>  <Name>
ligand

>  <RI>
0

>  <Rbt.Current_Directory>
/home/itssahil/PROJECTS/Mol_Feturizer/New_Systems/rnas/3SKI

>  <Rbt.Executable>
rbdock ($Id: //depot/dev/client3/rdock/2013.1/src/exe/rbdock.cxx#4 $)

>  <Rbt.Library>
libRbt.so (2013.1, Build901 2013/11/27)

>  <Rbt.Parameter_File>
/export/apps/rDock/src/rDock_2013.1_src/data/scripts/dock_solv.prm

>  <Rbt.Receptor>
prm/pocket_docking_5.prm

>  <SCORE>
-17.8853

>  <SCORE.INTER>
-14.9563

>  <SCORE.INTER.CONST>
1

>  <SCORE.INTER.POLAR>
0

>  <SCORE.INTER.ROT>
2

>  <SCORE.INTER.SOLV>
18.507

>  <SCORE.INTER.VDW>
-21.0732

>  <SCORE.INTER.norm>
-0.787172

>  <SCORE.INTRA>
-2.92899

>  <SCORE.INTRA.DIHEDRAL>
-5.00789

>  <SCORE.INTRA.DIHEDRAL.0>
6.26853

>  <SCORE.INTRA.POLAR>
0

>  <SCORE.INTRA.POLAR.0>
0

>  <SCORE.INTRA.REPUL>
0

>  <SCORE.INTRA.REPUL.0>
0

>  <SCORE.INTRA.SOLV>
-0.0300684

>  <SCORE.INTRA.SOLV.lig_0>
-38.4926

>  <SCORE.INTRA.VDW>
-0.410014

>  <SCORE.INTRA.VDW.0>
-0.59057

>  <SCORE.INTRA.norm>
-0.154158

>  <SCORE.RESTR>
0

>  <SCORE.RESTR.CAVITY>
0

>  <SCORE.RESTR.norm>
0

>  <SCORE.SYSTEM>
0

>  <SCORE.SYSTEM.CONST>
0

>  <SCORE.SYSTEM.DIHEDRAL>
0

>  <SCORE.SYSTEM.SOLV>
0

>  <SCORE.SYSTEM.norm>
0

>  <SCORE.heavy>
19

>  <SCORE.norm>
-0.941329

>  <RMSD>
1.996

$$$$
ligand
 OpenBabel11021811483D
libRbt.so/2013.1/901 2013/11/27
 19 21  0  0  0  0  0  0  0  0999 V2000
   -7.7613   -7.9475    8.4892 C   0  0  0  0  0  0  0  0  0  0  0  0
   -8.7411   -8.6752    7.7339 O   0  0  0  0  0  0  0  0  0  0  0  0
   -8.4443   -6.9473    9.4246 C   0  0  1  0  0  0  0  0  0  0  0  0
   -7.4785   -6.3127   10.2847 O   0  0  0  0  0  0  0  0  0  0  0  0
   -9.1342   -5.8469    8.6378 C   0  0  1  0  0  0  0  0  0  0  0  0
  -10.5537   -6.0415    8.6123 O   0  0  0  0  0  0  0  0  0  0  0  0
   -8.7890   -4.5554    9.3470 C   0  0  0  0  0  0  0  0  0  0  0  0
   -7.6253   -4.8852   10.2703 C   0  0  2  0  0  0  0  0  0  0  0  0
   -4.9970   -0.3812    9.6385 N   0  0  0  0  0  0  0  0  0  0  0  0
   -6.2334   -0.6016   10.1609 C   0  0  1  0  0  0  0  0  0  0  0  0
   -6.9577    0.4527   10.6056 N   0  0  0  0  0  0  0  0  0  0  0  0
   -6.7600   -1.8539   10.2426 N   0  0  0  0  0  0  0  0  0  0  0  0
   -6.0755   -2.9467    9.8083 C   0  0  2  0  0  0  0  0  0  0  0  0
   -4.8133   -2.7832    9.2667 C   0  0  1  0  0  0  0  0  0  0  0  0
   -4.2494   -1.4116    9.1851 C   0  0  0  0  0  0  0  0  0  0  0  0
   -3.1094   -1.2132    8.7087 O   0  0  0  0  0  0  0  0  0  0  0  0
   -4.3531   -3.9989    8.9240 N   0  0  0  0  0  0  0  0  0  0  0  0
   -5.3124   -4.9001    9.2399 C   0  0  0  0  0  0  0  0  0  0  0  0
   -6.3638   -4.2563    9.7789 N   0  0  1  0  0  0  0  0  0  0  0  0
  1  2  1  0  0  0  0
  3  1  1  6  0  0  0
  3  4  1  0  0  0  0
  3  5  1  0  0  0  0
  5  6  1  1  0  0  0
  5  7  1  0  0  0  0
  7  8  1  0  0  0  0
  8  4  1  6  0  0  0
  8 19  1  0  0  0  0
  9 15  1  0  0  0  0
  9 10  1  0  0  0  0
 10 11  1  6  0  0  0
 10 12  1  0  0  0  0
 13 12  1  6  0  0  0
 13 14  1  0  0  0  0
 13 19  1  0  0  0  0
 14 15  1  1  0  0  0
 14 17  1  0  0  0  0
 15 16  2  0  0  0  0
 17 18  1  0  0  0  0
 19 18  1  1  0  0  0
M  END
>  <CHROM.1>
174.01643918,-170.20003497,-6.78080760,-4.03475682,9.36419737,-2.13303408
0.16665745,0.24819072

>  <Name>
ligand

>  <RI>
0

>  <Rbt.Current_Directory>
/home/itssahil/PROJECTS/Mol_Feturizer/New_Systems/rnas/3SKI

>  <Rbt.Executable>
rbdock ($Id: //depot/dev/client3/rdock/2013.1/src/exe/rbdock.cxx#4 $)

>  <Rbt.Library>
libRbt.so (2013.1, Build901 2013/11/27)

>  <Rbt.Parameter_File>
/export/apps/rDock/src/rDock_2013.1_src/data/scripts/dock_solv.prm

>  <Rbt.Receptor>
prm/blind_docking_40.prm

>  <SCORE>
-17.8412

>  <SCORE.INTER>
-14.9535

>  <SCORE.INTER.CONST>
1

>  <SCORE.INTER.POLAR>
0

>  <SCORE.INTER.ROT>
2

>  <SCORE.INTER.SOLV>
18.3323

>  <SCORE.INTER.VDW>
-21.0131

>  <SCORE.INTER.norm>
-0.787027

>  <SCORE.INTRA>
-2.88769

>  <SCORE.INTRA.DIHEDRAL>
-4.93045

>  <SCORE.INTRA.DIHEDRAL.0>
6.26853

>  <SCORE.INTRA.POLAR>
0

>  <SCORE.INTRA.POLAR.0>
0

>  <SCORE.INTRA.REPUL>
0

>  <SCORE.INTRA.REPUL.0>
0

>  <SCORE.INTRA.SOLV>
-0.0428402

>  <SCORE.INTRA.SOLV.lig_0>
-38.4926

>  <SCORE.INTRA.VDW>
-0.401045

>  <SCORE.INTRA.VDW.0>
-0.59057

>  <SCORE.INTRA.norm>
-0.151984

>  <SCORE.RESTR>
0

>  <SCORE.RESTR.CAVITY>
0

>  <SCORE.RESTR.norm>
0

>  <SCORE.SYSTEM>
0

>  <SCORE.SYSTEM.CONST>
0

>  <SCORE.SYSTEM.DIHEDRAL>
0

>  <SCORE.SYSTEM.SOLV>
0

>  <SCORE.SYSTEM.norm>
0

>  <SCORE.heavy>
19

>  <SCORE.norm>
-0.939011

>  <RMSD>
1.999

$$$$
ligand
 OpenBabel11021811483D
libRbt.so/2013.1/901 2013/11/27
 19 21  0  0  0  0  0  0  0  0999 V2000
   -9.1022   -6.4411    9.3902 C   0  0  0  0  0  0  0  0  0  0  0  0
   -9.6602   -7.6768    9.8613 O   0  0  0  0  0  0  0  0  0  0  0  0
   -7.5869   -6.5706    9.2208 C   0  0  1  0  0  0  0  0  0  0  0  0
   -7.0294   -5.3582    8.6782 O   0  0  0  0  0  0  0  0  0  0  0  0
   -6.9072   -6.8173   10.5561 C   0  0  1  0  0  0  0  0  0  0  0  0
   -6.5138   -8.1887   10.6907 O   0  0  0  0  0  0  0  0  0  0  0  0
   -5.6935   -5.9136   10.5733 C   0  0  0  0  0  0  0  0  0  0  0  0
   -5.9054   -4.9097    9.4495 C   0  0  2  0  0  0  0  0  0  0  0  0
   -4.3065    0.0901    9.6442 N   0  0  0  0  0  0  0  0  0  0  0  0
   -3.7606   -0.9737    8.9957 C   0  0  1  0  0  0  0  0  0  0  0  0
   -2.6314   -0.7937    8.2702 N   0  0  0  0  0  0  0  0  0  0  0  0
   -4.3194   -2.2128    9.0627 N   0  0  0  0  0  0  0  0  0  0  0  0
   -5.4520   -2.4482    9.7791 C   0  0  2  0  0  0  0  0  0  0  0  0
   -6.0511   -1.4039   10.4601 C   0  0  1  0  0  0  0  0  0  0  0  0
   -5.4323   -0.0564   10.3773 C   0  0  0  0  0  0  0  0  0  0  0  0
   -5.9401    0.9212   10.9710 O   0  0  0  0  0  0  0  0  0  0  0  0
   -7.1428   -1.8888   11.0767 N   0  0  0  0  0  0  0  0  0  0  0  0
   -7.2180   -3.2096   10.7905 C   0  0  0  0  0  0  0  0  0  0  0  0
   -6.1846   -3.5501    9.9989 N   0  0  1  0  0  0  0  0  0  0  0  0
  1  2  1  0  0  0  0
  3  1  1  1  0  0  0
  3  4  1  0  0  0  0
  3  5  1  0  0  0  0
  5  6  1  6  0  0  0
  5  7  1  0  0  0  0
  7  8  1  0  0  0  0
  8  4  1  1  0  0  0
  8 19  1  0  0  0  0
  9 15  1  0  0  0  0
  9 10  1  0  0  0  0
 10 11  1  1  0  0  0
 10 12  1  0  0  0  0
 13 12  1  1  0  0  0
 13 14  1  0  0  0  0
 13 19  1  0  0  0  0
 14 15  1  6  0  0  0
 14 17  1  0  0  0  0
 15 16  2  0  0  0  0
 17 18  1  0  0  0  0
 19 18  1  6  0  0  0
M  END
>  <CHROM.1>
176.82591315,-121.56941984,-6.19848613,-3.63926669,9.88589201,2.05317393
-0.38660643,-2.96687931

>  <Name>
ligand

>  <RI>
0

>  <Rbt.Current_Directory>
/home/itssahil/PROJECTS/Mol_Feturizer/New_Systems/rnas/3SKI

>  <Rbt.Executable>
rbdock ($Id: //depot/dev/client3/rdock/2013.1/src/exe/rbdock.cxx#4 $)

>  <Rbt.Library>
libRbt.so (2013.1, Build901 2013/11/27)

>  <Rbt.Parameter_File>
/export/apps/rDock/src/rDock_2013.1_src/data/scripts/dock_solv.prm

>  <Rbt.Receptor>
prm/pocket_docking_3.prm

>  <SCORE>
-13.9133

>  <SCORE.INTER>
-10.9505

>  <SCORE.INTER.CONST>
1

>  <SCORE.INTER.POLAR>
0

>  <SCORE.INTER.ROT>
2

>  <SCORE.INTER.SOLV>
14.5996

>  <SCORE.INTER.VDW>
-17.1002

>  <SCORE.INTER.norm>
-0.576345

>  <SCORE.INTRA>
-2.96273

>  <SCORE.INTRA.DIHEDRAL>
-5.02859

>  <SCORE.INTRA.DIHEDRAL.0>
6.26853

>  <SCORE.INTRA.POLAR>
0

>  <SCORE.INTRA.POLAR.0>
0

>  <SCORE.INTRA.REPUL>
0

>  <SCORE.INTRA.REPUL.0>
0

>  <SCORE.INTRA.SOLV>
-0.0222788

>  <SCORE.INTRA.SOLV.lig_0>
-38.4926

>  <SCORE.INTRA.VDW>
-0.437299

>  <SCORE.INTRA.VDW.0>
-0.59057

>  <SCORE.INTRA.norm>
-0.155933

>  <SCORE.RESTR>
0

>  <SCORE.RESTR.CAVITY>
0

>  <SCORE.RESTR.norm>
0

>  <SCORE.SYSTEM>
0

>  <SCORE.SYSTEM.CONST>
0

>  <SCORE.SYSTEM.DIHEDRAL>
0

>  <SCORE.SYSTEM.SOLV>
0

>  <SCORE.SYSTEM.norm>
0

>  <SCORE.heavy>
19

>  <SCORE.norm>
-0.732278

>  <RMSD>
2.908

$$$$
ligand
 OpenBabel11021811483D
libRbt.so/2013.1/901 2013/11/27
 19 21  0  0  0  0  0  0  0  0999 V2000
   -8.7523   -6.5973    8.9648 C   0  0  0  0  0  0  0  0  0  0  0  0
   -9.2516   -5.4591    9.6826 O   0  0  0  0  0  0  0  0  0  0  0  0
   -7.2415   -6.7340    9.1662 C   0  0  1  0  0  0  0  0  0  0  0  0
   -6.5606   -5.5374    8.7422 O   0  0  0  0  0  0  0  0  0  0  0  0
   -6.9029   -6.9464   10.6312 C   0  0  1  0  0  0  0  0  0  0  0  0
   -6.5642   -8.3145   10.8906 O   0  0  0  0  0  0  0  0  0  0  0  0
   -5.7212   -6.0449   10.9154 C   0  0  0  0  0  0  0  0  0  0  0  0
   -5.6501   -5.0707    9.7486 C   0  0  2  0  0  0  0  0  0  0  0  0
   -4.2713   -0.0026    9.8260 N   0  0  0  0  0  0  0  0  0  0  0  0
   -3.6147   -1.0755    9.3084 C   0  0  1  0  0  0  0  0  0  0  0  0
   -2.4163   -0.8864    8.7068 N   0  0  0  0  0  0  0  0  0  0  0  0
   -4.1311   -2.3323    9.3849 N   0  0  0  0  0  0  0  0  0  0  0  0
   -5.3298   -2.5774    9.9805 C   0  0  2  0  0  0  0  0  0  0  0  0
   -6.0422   -1.5245   10.5254 C   0  0  1  0  0  0  0  0  0  0  0  0
   -5.4684   -0.1577   10.4335 C   0  0  0  0  0  0  0  0  0  0  0  0
   -6.0778    0.8278   10.9062 O   0  0  0  0  0  0  0  0  0  0  0  0
   -7.1795   -2.0221   11.0414 N   0  0  0  0  0  0  0  0  0  0  0  0
   -7.1718   -3.3586   10.8277 C   0  0  0  0  0  0  0  0  0  0  0  0
   -6.0415   -3.6965   10.1806 N   0  0  1  0  0  0  0  0  0  0  0  0
  1  2  1  0  0  0  0
  3  1  1  1  0  0  0
  3  4  1  0  0  0  0
  3  5  1  0  0  0  0
  5  6  1  6  0  0  0
  5  7  1  0  0  0  0
  7  8  1  0  0  0  0
  8  4  1  6  0  0  0
  8 19  1  0  0  0  0
  9 15  1  0  0  0  0
  9 10  1  0  0  0  0
 10 11  1  1  0  0  0
 10 12  1  0  0  0  0
 13 12  1  1  0  0  0
 13 14  1  0  0  0  0
 13 19  1  0  0  0  0
 14 15  1  6  0  0  0
 14 17  1  0  0  0  0
 15 16  2  0  0  0  0
 17 18  1  0  0  0  0
 19 18  1  6  0  0  0
M  END
>  <CHROM.1>
-57.55821232,-113.68133881,-6.06636656,-3.62489481,9.98783117,1.99967155
-0.24311061,-3.02885142

>  <Name>
ligand

>  <RI>
0

>  <Rbt.Current_Directory>
/home/itssahil/PROJECTS/Mol_Feturizer/New_Systems/rnas/3SKI

>  <Rbt.Executable>
rbdock ($Id: //depot/dev/client3/rdock/2013.1/src/exe/rbdock.cxx#4 $)

>  <Rbt.Library>
libRbt.so (2013.1, Build901 2013/11/27)

>  <Rbt.Parameter_File>
/export/apps/rDock/src/rDock_2013.1_src/data/scripts/dock_solv.prm

>  <Rbt.Receptor>
prm/pocket_docking_4.prm

>  <SCORE>
-13.9835

>  <SCORE.INTER>
-10.9794

>  <SCORE.INTER.CONST>
1

>  <SCORE.INTER.POLAR>
0

>  <SCORE.INTER.ROT>
2

>  <SCORE.INTER.SOLV>
13.6049

>  <SCORE.INTER.VDW>
-16.7879

>  <SCORE.INTER.norm>
-0.577864

>  <SCORE.INTRA>
-3.00412

>  <SCORE.INTRA.DIHEDRAL>
-5.049

>  <SCORE.INTRA.DIHEDRAL.0>
6.26853

>  <SCORE.INTRA.POLAR>
0

>  <SCORE.INTRA.POLAR.0>
0

>  <SCORE.INTRA.REPUL>
0

>  <SCORE.INTRA.REPUL.0>
0

>  <SCORE.INTRA.SOLV>
0.281692

>  <SCORE.INTRA.SOLV.lig_0>
-38.4926

>  <SCORE.INTRA.VDW>
-0.62046

>  <SCORE.INTRA.VDW.0>
-0.59057

>  <SCORE.INTRA.norm>
-0.158111

>  <SCORE.RESTR>
0

>  <SCORE.RESTR.CAVITY>
0

>  <SCORE.RESTR.norm>
0

>  <SCORE.SYSTEM>
0

>  <SCORE.SYSTEM.CONST>
0

>  <SCORE.SYSTEM.DIHEDRAL>
0

>  <SCORE.SYSTEM.SOLV>
0

>  <SCORE.SYSTEM.norm>
0

>  <SCORE.heavy>
19

>  <SCORE.norm>
-0.735976

>  <RMSD>
2.927

$$$$
ligand
 OpenBabel11021811483D
libRbt.so/2013.1/901 2013/11/27
 19 21  0  0  0  0  0  0  0  0999 V2000
   -8.7113   -6.6095    8.9240 C   0  0  0  0  0  0  0  0  0  0  0  0
   -9.2316   -5.4928    9.6605 O   0  0  0  0  0  0  0  0  0  0  0  0
   -7.2068   -6.7525    9.1646 C   0  0  1  0  0  0  0  0  0  0  0  0
   -6.5101   -5.5592    8.7577 O   0  0  0  0  0  0  0  0  0  0  0  0
   -6.9073   -6.9654   10.6380 C   0  0  1  0  0  0  0  0  0  0  0  0
   -6.5813   -8.3348   10.9069 O   0  0  0  0  0  0  0  0  0  0  0  0
   -5.7294   -6.0688   10.9522 C   0  0  0  0  0  0  0  0  0  0  0  0
   -5.6239   -5.0958    9.7870 C   0  0  2  0  0  0  0  0  0  0  0  0
   -4.2285   -0.0327    9.8918 N   0  0  0  0  0  0  0  0  0  0  0  0
   -3.5636   -1.1087    9.3913 C   0  0  1  0  0  0  0  0  0  0  0  0
   -2.3504   -0.9247    8.8184 N   0  0  0  0  0  0  0  0  0  0  0  0
   -4.0864   -2.3634    9.4568 N   0  0  0  0  0  0  0  0  0  0  0  0
   -5.2999   -2.6033   10.0237 C   0  0  2  0  0  0  0  0  0  0  0  0
   -6.0213   -1.5471   10.5501 C   0  0  1  0  0  0  0  0  0  0  0  0
   -5.4404   -0.1826   10.4705 C   0  0  0  0  0  0  0  0  0  0  0  0
   -6.0572    0.8057   10.9273 O   0  0  0  0  0  0  0  0  0  0  0  0
   -7.1725   -2.0398   11.0393 N   0  0  0  0  0  0  0  0  0  0  0  0
   -7.1646   -3.3767   10.8273 C   0  0  0  0  0  0  0  0  0  0  0  0
   -6.0204   -3.7195   10.2079 N   0  0  1  0  0  0  0  0  0  0  0  0
  1  2  1  0  0  0  0
  3  1  1  1  0  0  0
  3  4  1  0  0  0  0
  3  5  1  0  0  0  0
  5  6  1  6  0  0  0
  5  7  1  0  0  0  0
  7  8  1  0  0  0  0
  8  4  1  6  0  0  0
  8 19  1  0  0  0  0
  9 15  1  0  0  0  0
  9 10  1  0  0  0  0
 10 11  1  1  0  0  0
 10 12  1  0  0  0  0
 13 12  1  1  0  0  0
 13 14  1  0  0  0  0
 13 19  1  0  0  0  0
 14 15  1  6  0  0  0
 14 17  1  0  0  0  0
 15 16  2  0  0  0  0
 17 18  1  0  0  0  0
 19 18  1  6  0  0  0
M  END
>  <CHROM.1>
-59.31470789,-113.56242442,-6.04123095,-3.64920898,10.01501250,2.00161608
-0.22197455,-3.02830605

>  <Name>
ligand

>  <RI>
0

>  <Rbt.Current_Directory>
/home/itssahil/PROJECTS/Mol_Feturizer/New_Systems/rnas/3SKI

>  <Rbt.Executable>
rbdock ($Id: //depot/dev/client3/rdock/2013.1/src/exe/rbdock.cxx#4 $)

>  <Rbt.Library>
libRbt.so (2013.1, Build901 2013/11/27)

>  <Rbt.Parameter_File>
/export/apps/rDock/src/rDock_2013.1_src/data/scripts/dock_solv.prm

>  <Rbt.Receptor>
prm/pocket_docking_5.prm

>  <SCORE>
-14.048

>  <SCORE.INTER>
-11.05

>  <SCORE.INTER.CONST>
1

>  <SCORE.INTER.POLAR>
0

>  <SCORE.INTER.ROT>
2

>  <SCORE.INTER.SOLV>
13.3715

>  <SCORE.INTER.VDW>
-16.7571

>  <SCORE.INTER.norm>
-0.581578

>  <SCORE.INTRA>
-2.99798

>  <SCORE.INTRA.DIHEDRAL>
-5.06957

>  <SCORE.INTRA.DIHEDRAL.0>
6.26853

>  <SCORE.INTRA.POLAR>
0

>  <SCORE.INTRA.POLAR.0>
0

>  <SCORE.INTRA.REPUL>
0

>  <SCORE.INTRA.REPUL.0>
0

>  <SCORE.INTRA.SOLV>
0.284048

>  <SCORE.INTRA.SOLV.lig_0>
-38.4926

>  <SCORE.INTRA.VDW>
-0.605216

>  <SCORE.INTRA.VDW.0>
-0.59057

>  <SCORE.INTRA.norm>
-0.157788

>  <SCORE.RESTR>
0

>  <SCORE.RESTR.CAVITY>
0

>  <SCORE.RESTR.norm>
0

>  <SCORE.SYSTEM>
0

>  <SCORE.SYSTEM.CONST>
0

>  <SCORE.SYSTEM.DIHEDRAL>
0

>  <SCORE.SYSTEM.SOLV>
0

>  <SCORE.SYSTEM.norm>
0

>  <SCORE.heavy>
19

>  <SCORE.norm>
-0.739366

>  <RMSD>
2.932

$$$$
ligand
 OpenBabel11021811483D
libRbt.so/2013.1/901 2013/11/27
 19 21  0  0  0  0  0  0  0  0999 V2000
   -8.9941   -6.2205    8.8698 C   0  0  0  0  0  0  0  0  0  0  0  0
   -9.4377   -5.0597    9.5882 O   0  0  0  0  0  0  0  0  0  0  0  0
   -7.5028   -6.4612    9.1143 C   0  0  1  0  0  0  0  0  0  0  0  0
   -6.7293   -5.3132    8.7158 O   0  0  0  0  0  0  0  0  0  0  0  0
   -7.2226   -6.7004   10.5875 C   0  0  1  0  0  0  0  0  0  0  0  0
   -6.9863   -8.0892   10.8502 O   0  0  0  0  0  0  0  0  0  0  0  0
   -5.9906   -5.8830   10.9100 C   0  0  0  0  0  0  0  0  0  0  0  0
   -5.8187   -4.9129    9.7503 C   0  0  2  0  0  0  0  0  0  0  0  0
   -4.2904    0.1089    9.5536 N   0  0  0  0  0  0  0  0  0  0  0  0
   -3.7171   -0.9974    9.0082 C   0  0  1  0  0  0  0  0  0  0  0  0
   -2.5753   -0.8623    8.2926 N   0  0  0  0  0  0  0  0  0  0  0  0
   -4.2607   -2.2347    9.1685 N   0  0  0  0  0  0  0  0  0  0  0  0
   -5.4049   -2.4259    9.8797 C   0  0  2  0  0  0  0  0  0  0  0  0
   -6.0318   -1.3370   10.4580 C   0  0  1  0  0  0  0  0  0  0  0  0
   -5.4293    0.0079   10.2740 C   0  0  0  0  0  0  0  0  0  0  0  0
   -5.9624    1.0242   10.7728 O   0  0  0  0  0  0  0  0  0  0  0  0
   -7.1298   -1.7845   11.0917 N   0  0  0  0  0  0  0  0  0  0  0  0
   -7.1814   -3.1258   10.9166 C   0  0  0  0  0  0  0  0  0  0  0  0
   -6.1273   -3.5161   10.1772 N   0  0  1  0  0  0  0  0  0  0  0  0
  1  2  1  0  0  0  0
  3  1  1  1  0  0  0
  3  4  1  0  0  0  0
  3  5  1  0  0  0  0
  5  6  1  6  0  0  0
  5  7  1  0  0  0  0
  7  8  1  0  0  0  0
  8  4  1  6  0  0  0
  8 19  1  0  0  0  0
  9 15  1  0  0  0  0
  9 10  1  0  0  0  0
 10 11  1  1  0  0  0
 10 12  1  0  0  0  0
 13 12  1  1  0  0  0
 13 14  1  0  0  0  0
 13 19  1  0  0  0  0
 14 15  1  6  0  0  0
 14 17  1  0  0  0  0
 15 16  2  0  0  0  0
 17 18  1  0  0  0  0
 19 18  1  6  0  0  0
M  END
>  <CHROM.1>
-58.09786198,-106.11063591,-6.19647349,-3.42578826,9.88901708,2.05291901
-0.32504634,-3.00318283

>  <Name>
ligand

>  <RI>
0

>  <Rbt.Current_Directory>
/home/itssahil/PROJECTS/Mol_Feturizer/New_Systems/rnas/3SKI

>  <Rbt.Executable>
rbdock ($Id: //depot/dev/client3/rdock/2013.1/src/exe/rbdock.cxx#4 $)

>  <Rbt.Library>
libRbt.so (2013.1, Build901 2013/11/27)

>  <Rbt.Parameter_File>
/export/apps/rDock/src/rDock_2013.1_src/data/scripts/dock_solv.prm

>  <Rbt.Receptor>
prm/pocket_docking_2.prm

>  <SCORE>
-12.7581

>  <SCORE.INTER>
-9.83279

>  <SCORE.INTER.CONST>
1

>  <SCORE.INTER.POLAR>
0

>  <SCORE.INTER.ROT>
2

>  <SCORE.INTER.SOLV>
14.5803

>  <SCORE.INTER.VDW>
-16.3486

>  <SCORE.INTER.norm>
-0.517515

>  <SCORE.INTRA>
-2.92599

>  <SCORE.INTRA.DIHEDRAL>
-5.06405

>  <SCORE.INTRA.DIHEDRAL.0>
6.26853

>  <SCORE.INTRA.POLAR>
0

>  <SCORE.INTRA.POLAR.0>
0

>  <SCORE.INTRA.REPUL>
0

>  <SCORE.INTRA.REPUL.0>
0

>  <SCORE.INTRA.SOLV>
0.272349

>  <SCORE.INTRA.SOLV.lig_0>
-38.4926

>  <SCORE.INTRA.VDW>
-0.530139

>  <SCORE.INTRA.VDW.0>
-0.59057

>  <SCORE.INTRA.norm>
-0.153999

>  <SCORE.RESTR>
0.000726111

>  <SCORE.RESTR.CAVITY>
0.000726111

>  <SCORE.RESTR.norm>
3.82164e-05

>  <SCORE.SYSTEM>
0

>  <SCORE.SYSTEM.CONST>
0

>  <SCORE.SYSTEM.DIHEDRAL>
0

>  <SCORE.SYSTEM.SOLV>
0

>  <SCORE.SYSTEM.norm>
0

>  <SCORE.heavy>
19

>  <SCORE.norm>
-0.671477

>  <RMSD>
2.941

$$$$
ligand
 OpenBabel11021811483D
libRbt.so/2013.1/901 2013/11/27
 19 21  0  0  0  0  0  0  0  0999 V2000
   -8.4184   -6.9623    8.7077 C   0  0  0  0  0  0  0  0  0  0  0  0
   -9.0182   -5.6793    8.9412 O   0  0  0  0  0  0  0  0  0  0  0  0
   -7.0011   -7.0011    9.2835 C   0  0  1  0  0  0  0  0  0  0  0  0
   -6.1916   -5.9537    8.7154 O   0  0  0  0  0  0  0  0  0  0  0  0
   -7.0166   -6.7893   10.7871 C   0  0  1  0  0  0  0  0  0  0  0  0
   -6.8041   -8.0225   11.4853 O   0  0  0  0  0  0  0  0  0  0  0  0
   -5.8947   -5.8160   11.0771 C   0  0  0  0  0  0  0  0  0  0  0  0
   -5.5172   -5.2036    9.7362 C   0  0  2  0  0  0  0  0  0  0  0  0
   -3.8956   -0.2075    9.7847 N   0  0  0  0  0  0  0  0  0  0  0  0
   -3.1754   -1.3574    9.8808 C   0  0  1  0  0  0  0  0  0  0  0  0
   -1.8297   -1.2822   10.0125 N   0  0  0  0  0  0  0  0  0  0  0  0
   -3.7750   -2.5787    9.8521 N   0  0  0  0  0  0  0  0  0  0  0  0
   -5.1233   -2.7100    9.7237 C   0  0  2  0  0  0  0  0  0  0  0  0
   -5.9070   -1.5748    9.6226 C   0  0  1  0  0  0  0  0  0  0  0  0
   -5.2399   -0.2482    9.6533 C   0  0  0  0  0  0  0  0  0  0  0  0
   -5.9053    0.8075    9.5595 O   0  0  0  0  0  0  0  0  0  0  0  0
   -7.1864   -1.9690    9.5008 N   0  0  0  0  0  0  0  0  0  0  0  0
   -7.1993   -3.3221    9.5320 C   0  0  0  0  0  0  0  0  0  0  0  0
   -5.9391   -3.7733    9.6690 N   0  0  1  0  0  0  0  0  0  0  0  0
  1  2  1  0  0  0  0
  3  1  1  6  0  0  0
  3  4  1  0  0  0  0
  3  5  1  0  0  0  0
  5  6  1  1  0  0  0
  5  7  1  0  0  0  0
  7  8  1  0  0  0  0
  8  4  1  6  0  0  0
  8 19  1  0  0  0  0
  9 15  1  0  0  0  0
  9 10  1  0  0  0  0
 10 11  1  1  0  0  0
 10 12  1  0  0  0  0
 13 12  1  1  0  0  0
 13 14  1  0  0  0  0
 13 19  1  0  0  0  0
 14 15  1  6  0  0  0
 14 17  1  0  0  0  0
 15 16  2  0  0  0  0
 17 18  1  0  0  0  0
 19 18  1  6  0  0  0
M  END
>  <CHROM.1>
-57.26068449,-134.22235117,-5.89106772,-3.73720797,9.76293735,2.05235856
0.27172837,2.98155066

>  <Name>
ligand

>  <RI>
0

>  <Rbt.Current_Directory>
/home/itssahil/PROJECTS/Mol_Feturizer/New_Systems/rnas/3SKI

>  <Rbt.Executable>
rbdock ($Id: //depot/dev/client3/rdock/2013.1/src/exe/rbdock.cxx#4 $)

>  <Rbt.Library>
libRbt.so (2013.1, Build901 2013/11/27)

>  <Rbt.Parameter_File>
/export/apps/rDock/src/rDock_2013.1_src/data/scripts/dock_solv.prm

>  <Rbt.Receptor>
prm/blind_docking_40.prm

>  <SCORE>
-15.1917

>  <SCORE.INTER>
-12.0745

>  <SCORE.INTER.CONST>
1

>  <SCORE.INTER.POLAR>
0

>  <SCORE.INTER.ROT>
2

>  <SCORE.INTER.SOLV>
16.3006

>  <SCORE.INTER.VDW>
-18.4165

>  <SCORE.INTER.norm>
-0.635499

>  <SCORE.INTRA>
-3.11717

>  <SCORE.INTRA.DIHEDRAL>
-5.02471

>  <SCORE.INTRA.DIHEDRAL.0>
6.26853

>  <SCORE.INTRA.POLAR>
0

>  <SCORE.INTRA.POLAR.0>
0

>  <SCORE.INTRA.REPUL>
0

>  <SCORE.INTRA.REPUL.0>
0

>  <SCORE.INTRA.SOLV>
0.296172

>  <SCORE.INTRA.SOLV.lig_0>
-38.4926

>  <SCORE.INTRA.VDW>
-0.752903

>  <SCORE.INTRA.VDW.0>
-0.59057

>  <SCORE.INTRA.norm>
-0.164062

>  <SCORE.RESTR>
0

>  <SCORE.RESTR.CAVITY>
0

>  <SCORE.RESTR.norm>
0

>  <SCORE.SYSTEM>
0

>  <SCORE.SYSTEM.CONST>
0

>  <SCORE.SYSTEM.DIHEDRAL>
0

>  <SCORE.SYSTEM.SOLV>
0

>  <SCORE.SYSTEM.norm>
0

>  <SCORE.heavy>
19

>  <SCORE.norm>
-0.799561

>  <RMSD>
2.947

$$$$
ligand
 OpenBabel11021811483D
libRbt.so/2013.1/901 2013/11/27
 19 21  0  0  0  0  0  0  0  0999 V2000
   -8.3940   -7.0124    8.7397 C   0  0  0  0  0  0  0  0  0  0  0  0
   -9.1581   -8.1228    9.2331 O   0  0  0  0  0  0  0  0  0  0  0  0
   -6.9743   -7.0468    9.3100 C   0  0  1  0  0  0  0  0  0  0  0  0
   -6.1743   -5.9882    8.7492 O   0  0  0  0  0  0  0  0  0  0  0  0
   -6.9857   -6.8498   10.8156 C   0  0  1  0  0  0  0  0  0  0  0  0
   -6.7620   -8.0883   11.5009 O   0  0  0  0  0  0  0  0  0  0  0  0
   -5.8696   -5.8715   11.1111 C   0  0  0  0  0  0  0  0  0  0  0  0
   -5.5014   -5.2434    9.7749 C   0  0  2  0  0  0  0  0  0  0  0  0
   -3.9096   -0.2375    9.7970 N   0  0  0  0  0  0  0  0  0  0  0  0
   -3.1801   -1.3832    9.8706 C   0  0  1  0  0  0  0  0  0  0  0  0
   -1.8319   -1.3001    9.9675 N   0  0  0  0  0  0  0  0  0  0  0  0
   -3.7728   -2.6081    9.8537 N   0  0  0  0  0  0  0  0  0  0  0  0
   -5.1232   -2.7474    9.7601 C   0  0  2  0  0  0  0  0  0  0  0  0
   -5.9161   -1.6167    9.6830 C   0  0  1  0  0  0  0  0  0  0  0  0
   -5.2566   -0.2861    9.7006 C   0  0  0  0  0  0  0  0  0  0  0  0
   -5.9306    0.7658    9.6274 O   0  0  0  0  0  0  0  0  0  0  0  0
   -7.1959   -2.0184    9.5933 N   0  0  0  0  0  0  0  0  0  0  0  0
   -7.1997   -3.3717    9.6205 C   0  0  0  0  0  0  0  0  0  0  0  0
   -5.9336   -3.8155    9.7233 N   0  0  1  0  0  0  0  0  0  0  0  0
  1  2  1  0  0  0  0
  3  1  1  6  0  0  0
  3  4  1  0  0  0  0
  3  5  1  0  0  0  0
  5  6  1  1  0  0  0
  5  7  1  0  0  0  0
  7  8  1  0  0  0  0
  8  4  1  6  0  0  0
  8 19  1  0  0  0  0
  9 15  1  0  0  0  0
  9 10  1  0  0  0  0
 10 11  1  1  0  0  0
 10 12  1  0  0  0  0
 13 12  1  1  0  0  0
 13 14  1  0  0  0  0
 13 19  1  0  0  0  0
 14 15  1  6  0  0  0
 14 17  1  0  0  0  0
 15 16  2  0  0  0  0
 17 18  1  0  0  0  0
 19 18  1  6  0  0  0
M  END
>  <CHROM.1>
176.09531797,-132.88152292,-5.89360903,-3.92644494,9.81264675,2.03883971
0.24706988,3.00248515

>  <Name>
ligand

>  <RI>
0

>  <Rbt.Current_Directory>
/home/itssahil/PROJECTS/Mol_Feturizer/New_Systems/rnas/3SKI

>  <Rbt.Executable>
rbdock ($Id: //depot/dev/client3/rdock/2013.1/src/exe/rbdock.cxx#4 $)

>  <Rbt.Library>
libRbt.so (2013.1, Build901 2013/11/27)

>  <Rbt.Parameter_File>
/export/apps/rDock/src/rDock_2013.1_src/data/scripts/dock_solv.prm

>  <Rbt.Receptor>
prm/pocket_docking_3.prm

>  <SCORE>
-15.2307

>  <SCORE.INTER>
-12.1947

>  <SCORE.INTER.CONST>
1

>  <SCORE.INTER.POLAR>
0

>  <SCORE.INTER.ROT>
2

>  <SCORE.INTER.SOLV>
15.8633

>  <SCORE.INTER.VDW>
-18.3509

>  <SCORE.INTER.norm>
-0.641825

>  <SCORE.INTRA>
-3.03606

>  <SCORE.INTRA.DIHEDRAL>
-5.00021

>  <SCORE.INTRA.DIHEDRAL.0>
6.26853

>  <SCORE.INTRA.POLAR>
0

>  <SCORE.INTRA.POLAR.0>
0

>  <SCORE.INTRA.REPUL>
0

>  <SCORE.INTRA.REPUL.0>
0

>  <SCORE.INTRA.SOLV>
-0.0258498

>  <SCORE.INTRA.SOLV.lig_0>
-38.4926

>  <SCORE.INTRA.VDW>
-0.523033

>  <SCORE.INTRA.VDW.0>
-0.59057

>  <SCORE.INTRA.norm>
-0.159793

>  <SCORE.RESTR>
0

>  <SCORE.RESTR.CAVITY>
0

>  <SCORE.RESTR.norm>
0

>  <SCORE.SYSTEM>
0

>  <SCORE.SYSTEM.CONST>
0

>  <SCORE.SYSTEM.DIHEDRAL>
0

>  <SCORE.SYSTEM.SOLV>
0

>  <SCORE.SYSTEM.norm>
0

>  <SCORE.heavy>
19

>  <SCORE.norm>
-0.801618

>  <RMSD>
2.957

$$$$
ligand
 OpenBabel11021811483D
libRbt.so/2013.1/901 2013/11/27
 19 21  0  0  0  0  0  0  0  0999 V2000
   -8.4094   -7.0090    8.7401 C   0  0  0  0  0  0  0  0  0  0  0  0
   -9.1568   -8.1313    9.2322 O   0  0  0  0  0  0  0  0  0  0  0  0
   -6.9802   -7.0394    9.2864 C   0  0  1  0  0  0  0  0  0  0  0  0
   -6.1922   -5.9798    8.7109 O   0  0  0  0  0  0  0  0  0  0  0  0
   -6.9667   -6.8404   10.7918 C   0  0  1  0  0  0  0  0  0  0  0  0
   -6.7286   -8.0775   11.4748 O   0  0  0  0  0  0  0  0  0  0  0  0
   -5.8480   -5.8592   11.0671 C   0  0  0  0  0  0  0  0  0  0  0  0
   -5.5038   -5.2320    9.7241 C   0  0  2  0  0  0  0  0  0  0  0  0
   -3.9276   -0.2215    9.7840 N   0  0  0  0  0  0  0  0  0  0  0  0
   -3.1951   -1.3654    9.8556 C   0  0  1  0  0  0  0  0  0  0  0  0
   -1.8477   -1.2788    9.9611 N   0  0  0  0  0  0  0  0  0  0  0  0
   -3.7839   -2.5920    9.8282 N   0  0  0  0  0  0  0  0  0  0  0  0
   -5.1332   -2.7348    9.7256 C   0  0  2  0  0  0  0  0  0  0  0  0
   -5.9291   -1.6062    9.6501 C   0  0  1  0  0  0  0  0  0  0  0  0
   -5.2739   -0.2737    9.6792 C   0  0  0  0  0  0  0  0  0  0  0  0
   -5.9506    0.7765    9.6079 O   0  0  0  0  0  0  0  0  0  0  0  0
   -7.2071   -2.0112    9.5504 N   0  0  0  0  0  0  0  0  0  0  0  0
   -7.2069   -3.3647    9.5700 C   0  0  0  0  0  0  0  0  0  0  0  0
   -5.9401   -3.8052    9.6779 N   0  0  1  0  0  0  0  0  0  0  0  0
  1  2  1  0  0  0  0
  3  1  1  6  0  0  0
  3  4  1  0  0  0  0
  3  5  1  0  0  0  0
  5  6  1  1  0  0  0
  5  7  1  0  0  0  0
  7  8  1  0  0  0  0
  8  4  1  6  0  0  0
  8 19  1  0  0  0  0
  9 15  1  0  0  0  0
  9 10  1  0  0  0  0
 10 11  1  1  0  0  0
 10 12  1  0  0  0  0
 13 12  1  1  0  0  0
 13 14  1  0  0  0  0
 13 19  1  0  0  0  0
 14 15  1  6  0  0  0
 14 17  1  0  0  0  0
 15 16  2  0  0  0  0
 17 18  1  0  0  0  0
 19 18  1  6  0  0  0
M  END
>  <CHROM.1>
175.25194477,-134.25405912,-5.89917830,-3.91630946,9.78598237,2.03595780
0.25054525,3.00215021

>  <Name>
ligand

>  <RI>
0

>  <Rbt.Current_Directory>
/home/itssahil/PROJECTS/Mol_Feturizer/New_Systems/rnas/3SKI

>  <Rbt.Executable>
rbdock ($Id: //depot/dev/client3/rdock/2013.1/src/exe/rbdock.cxx#4 $)

>  <Rbt.Library>
libRbt.so (2013.1, Build901 2013/11/27)

>  <Rbt.Parameter_File>
/export/apps/rDock/src/rDock_2013.1_src/data/scripts/dock_solv.prm

>  <Rbt.Receptor>
prm/pocket_docking_3.prm

>  <SCORE>
-15.1867

>  <SCORE.INTER>
-12.1526

>  <SCORE.INTER.CONST>
1

>  <SCORE.INTER.POLAR>
0

>  <SCORE.INTER.ROT>
2

>  <SCORE.INTER.SOLV>
15.8212

>  <SCORE.INTER.VDW>
-18.3088

>  <SCORE.INTER.norm>
-0.639608

>  <SCORE.INTRA>
-3.03414

>  <SCORE.INTRA.DIHEDRAL>
-4.97335

>  <SCORE.INTRA.DIHEDRAL.0>
6.26853

>  <SCORE.INTRA.POLAR>
0

>  <SCORE.INTRA.POLAR.0>
0

>  <SCORE.INTRA.REPUL>
0

>  <SCORE.INTRA.REPUL.0>
0

>  <SCORE.INTRA.SOLV>
-0.0301592

>  <SCORE.INTRA.SOLV.lig_0>
-38.4926

>  <SCORE.INTRA.VDW>
-0.532392

>  <SCORE.INTRA.VDW.0>
-0.59057

>  <SCORE.INTRA.norm>
-0.159692

>  <SCORE.RESTR>
0

>  <SCORE.RESTR.CAVITY>
0

>  <SCORE.RESTR.norm>
0

>  <SCORE.SYSTEM>
0

>  <SCORE.SYSTEM.CONST>
0

>  <SCORE.SYSTEM.DIHEDRAL>
0

>  <SCORE.SYSTEM.SOLV>
0

>  <SCORE.SYSTEM.norm>
0

>  <SCORE.heavy>
19

>  <SCORE.norm>
-0.7993

>  <RMSD>
2.959

$$$$
ligand
 OpenBabel11021811483D
libRbt.so/2013.1/901 2013/11/27
 19 21  0  0  0  0  0  0  0  0999 V2000
   -8.5055   -6.7977    8.8671 C   0  0  0  0  0  0  0  0  0  0  0  0
   -9.1633   -8.0262    9.2110 O   0  0  0  0  0  0  0  0  0  0  0  0
   -7.0066   -6.8955    9.1593 C   0  0  1  0  0  0  0  0  0  0  0  0
   -6.3271   -5.6951    8.7440 O   0  0  0  0  0  0  0  0  0  0  0  0
   -6.7500   -7.0634   10.6466 C   0  0  1  0  0  0  0  0  0  0  0  0
   -6.3987   -8.4165   10.9613 O   0  0  0  0  0  0  0  0  0  0  0  0
   -5.6060   -6.1288   10.9749 C   0  0  0  0  0  0  0  0  0  0  0  0
   -5.4870   -5.1830    9.7888 C   0  0  2  0  0  0  0  0  0  0  0  0
   -4.1541   -0.1051    9.9658 N   0  0  0  0  0  0  0  0  0  0  0  0
   -3.4383   -1.1784    9.5348 C   0  0  1  0  0  0  0  0  0  0  0  0
   -2.1819   -0.9869    9.0672 N   0  0  0  0  0  0  0  0  0  0  0  0
   -3.9528   -2.4379    9.5668 N   0  0  0  0  0  0  0  0  0  0  0  0
   -5.2084   -2.6854   10.0290 C   0  0  2  0  0  0  0  0  0  0  0  0
   -5.9827   -1.6322   10.4812 C   0  0  1  0  0  0  0  0  0  0  0  0
   -5.4101   -0.2625   10.4391 C   0  0  0  0  0  0  0  0  0  0  0  0
   -6.0735    0.7233   10.8316 O   0  0  0  0  0  0  0  0  0  0  0  0
   -7.1671   -2.1326   10.8737 N   0  0  0  0  0  0  0  0  0  0  0  0
   -7.1282   -3.4711   10.6758 C   0  0  0  0  0  0  0  0  0  0  0  0
   -5.9315   -3.8074   10.1608 N   0  0  1  0  0  0  0  0  0  0  0  0
  1  2  1  0  0  0  0
  3  1  1  1  0  0  0
  3  4  1  0  0  0  0
  3  5  1  0  0  0  0
  5  6  1  6  0  0  0
  5  7  1  0  0  0  0
  7  8  1  0  0  0  0
  8  4  1  6  0  0  0
  8 19  1  0  0  0  0
  9 15  1  0  0  0  0
  9 10  1  0  0  0  0
 10 11  1  1  0  0  0
 10 12  1  0  0  0  0
 13 12  1  1  0  0  0
 13 14  1  0  0  0  0
 13 19  1  0  0  0  0
 14 15  1  6  0  0  0
 14 17  1  0  0  0  0
 15 16  2  0  0  0  0
 17 18  1  0  0  0  0
 19 18  1  6  0  0  0
M  END
>  <CHROM.1>
176.63020207,-116.93172284,-5.93325870,-3.89225661,9.98959615,1.98334995
-0.16326458,-3.03015489

>  <Name>
ligand

>  <RI>
0

>  <Rbt.Current_Directory>
/home/itssahil/PROJECTS/Mol_Feturizer/New_Systems/rnas/3SKI

>  <Rbt.Executable>
rbdock ($Id: //depot/dev/client3/rdock/2013.1/src/exe/rbdock.cxx#4 $)

>  <Rbt.Library>
libRbt.so (2013.1, Build901 2013/11/27)

>  <Rbt.Parameter_File>
/export/apps/rDock/src/rDock_2013.1_src/data/scripts/dock_solv.prm

>  <Rbt.Receptor>
prm/pocket_docking_3.prm

>  <SCORE>
-13.826

>  <SCORE.INTER>
-10.8873

>  <SCORE.INTER.CONST>
1

>  <SCORE.INTER.POLAR>
0

>  <SCORE.INTER.ROT>
2

>  <SCORE.INTER.SOLV>
13.1836

>  <SCORE.INTER.VDW>
-16.586

>  <SCORE.INTER.norm>
-0.573014

>  <SCORE.INTRA>
-2.93874

>  <SCORE.INTRA.DIHEDRAL>
-5.02857

>  <SCORE.INTRA.DIHEDRAL.0>
6.26853

>  <SCORE.INTRA.POLAR>
0

>  <SCORE.INTRA.POLAR.0>
0

>  <SCORE.INTRA.REPUL>
0

>  <SCORE.INTRA.REPUL.0>
0

>  <SCORE.INTRA.SOLV>
-0.023586

>  <SCORE.INTRA.SOLV.lig_0>
-38.4926

>  <SCORE.INTRA.VDW>
-0.412665

>  <SCORE.INTRA.VDW.0>
-0.59057

>  <SCORE.INTRA.norm>
-0.154671

>  <SCORE.RESTR>
0

>  <SCORE.RESTR.CAVITY>
0

>  <SCORE.RESTR.norm>
0

>  <SCORE.SYSTEM>
0

>  <SCORE.SYSTEM.CONST>
0

>  <SCORE.SYSTEM.DIHEDRAL>
0

>  <SCORE.SYSTEM.SOLV>
0

>  <SCORE.SYSTEM.norm>
0

>  <SCORE.heavy>
19

>  <SCORE.norm>
-0.727685

>  <RMSD>
2.993

$$$$
ligand
 OpenBabel11021811483D
libRbt.so/2013.1/901 2013/11/27
 19 21  0  0  0  0  0  0  0  0999 V2000
  -10.6680   -8.5656    7.4395 C   0  0  0  0  0  0  0  0  0  0  0  0
   -9.3374   -8.4203    6.9213 O   0  0  0  0  0  0  0  0  0  0  0  0
  -11.0483   -7.3460    8.2820 C   0  0  1  0  0  0  0  0  0  0  0  0
  -10.1294   -7.1778    9.3785 O   0  0  0  0  0  0  0  0  0  0  0  0
  -10.9963   -6.0734    7.4551 C   0  0  1  0  0  0  0  0  0  0  0  0
  -12.3134   -5.6282    7.1077 O   0  0  0  0  0  0  0  0  0  0  0  0
  -10.3017   -5.0467    8.3232 C   0  0  0  0  0  0  0  0  0  0  0  0
   -9.6398   -5.8305    9.4470 C   0  0  2  0  0  0  0  0  0  0  0  0
   -5.3010   -2.8700    9.3839 N   0  0  0  0  0  0  0  0  0  0  0  0
   -6.6000   -2.5070    9.5604 C   0  0  1  0  0  0  0  0  0  0  0  0
   -6.8979   -1.2002    9.7539 N   0  0  0  0  0  0  0  0  0  0  0  0
   -7.6052   -3.4242    9.5428 N   0  0  0  0  0  0  0  0  0  0  0  0
   -7.3608   -4.7488    9.3501 C   0  0  2  0  0  0  0  0  0  0  0  0
   -6.0585   -5.1763    9.1642 C   0  0  1  0  0  0  0  0  0  0  0  0
   -4.9707   -4.1655    9.1876 C   0  0  0  0  0  0  0  0  0  0  0  0
   -3.7762   -4.5038    9.0301 O   0  0  0  0  0  0  0  0  0  0  0  0
   -6.0837   -6.5108    9.0035 N   0  0  0  0  0  0  0  0  0  0  0  0
   -7.3763   -6.9049    9.0813 C   0  0  0  0  0  0  0  0  0  0  0  0
   -8.1550   -5.8281    9.2921 N   0  0  1  0  0  0  0  0  0  0  0  0
  1  2  1  0  0  0  0
  3  1  1  6  0  0  0
  3  4  1  0  0  0  0
  3  5  1  0  0  0  0
  5  6  1  1  0  0  0
  5  7  1  0  0  0  0
  7  8  1  0  0  0  0
  8  4  1  6  0  0  0
  8 19  1  0  0  0  0
  9 15  1  0  0  0  0
  9 10  1  0  0  0  0
 10 11  1  6  0  0  0
 10 12  1  0  0  0  0
 13 12  1  6  0  0  0
 13 14  1  0  0  0  0
 13 19  1  0  0  0  0
 14 15  1  1  0  0  0
 14 17  1  0  0  0  0
 15 16  2  0  0  0  0
 17 18  1  0  0  0  0
 19 18  1  1  0  0  0
M  END
>  <CHROM.1>
-58.99645496,-177.64187335,-8.19726628,-5.41088501,8.73887893,-2.51132940
-0.16032553,0.20048547

>  <Name>
ligand

>  <RI>
0

>  <Rbt.Current_Directory>
/home/itssahil/PROJECTS/Mol_Feturizer/New_Systems/rnas/3SKI

>  <Rbt.Executable>
rbdock ($Id: //depot/dev/client3/rdock/2013.1/src/exe/rbdock.cxx#4 $)

>  <Rbt.Library>
libRbt.so (2013.1, Build901 2013/11/27)

>  <Rbt.Parameter_File>
/export/apps/rDock/src/rDock_2013.1_src/data/scripts/dock_solv.prm

>  <Rbt.Receptor>
prm/pocket_docking_6.prm

>  <SCORE>
-16.8465

>  <SCORE.INTER>
-13.8681

>  <SCORE.INTER.CONST>
1

>  <SCORE.INTER.POLAR>
0

>  <SCORE.INTER.ROT>
2

>  <SCORE.INTER.SOLV>
17.6758

>  <SCORE.INTER.VDW>
-20.0707

>  <SCORE.INTER.norm>
-0.729899

>  <SCORE.INTRA>
-2.97839

>  <SCORE.INTRA.DIHEDRAL>
-5.05961

>  <SCORE.INTRA.DIHEDRAL.0>
6.26853

>  <SCORE.INTRA.POLAR>
0

>  <SCORE.INTRA.POLAR.0>
0

>  <SCORE.INTRA.REPUL>
0

>  <SCORE.INTRA.REPUL.0>
0

>  <SCORE.INTRA.SOLV>
0.263748

>  <SCORE.INTRA.SOLV.lig_0>
-38.4926

>  <SCORE.INTRA.VDW>
-0.580462

>  <SCORE.INTRA.VDW.0>
-0.59057

>  <SCORE.INTRA.norm>
-0.156758

>  <SCORE.RESTR>
0

>  <SCORE.RESTR.CAVITY>
0

>  <SCORE.RESTR.norm>
0

>  <SCORE.SYSTEM>
0

>  <SCORE.SYSTEM.CONST>
0

>  <SCORE.SYSTEM.DIHEDRAL>
0

>  <SCORE.SYSTEM.SOLV>
0

>  <SCORE.SYSTEM.norm>
0

>  <SCORE.heavy>
19

>  <SCORE.norm>
-0.886656

>  <RMSD>
3.756

$$$$
ligand
 OpenBabel11021811483D
libRbt.so/2013.1/901 2013/11/27
 19 21  0  0  0  0  0  0  0  0999 V2000
   -9.6765   -8.9686    7.6894 C   0  0  0  0  0  0  0  0  0  0  0  0
   -8.9407   -9.7339    8.6553 O   0  0  0  0  0  0  0  0  0  0  0  0
  -10.7279   -8.1013    8.3852 C   0  0  1  0  0  0  0  0  0  0  0  0
  -10.1596   -7.4274    9.5244 O   0  0  0  0  0  0  0  0  0  0  0  0
  -11.2579   -7.0293    7.4494 C   0  0  1  0  0  0  0  0  0  0  0  0
  -12.5658   -7.3632    6.9684 O   0  0  0  0  0  0  0  0  0  0  0  0
  -11.3025   -5.7558    8.2657 C   0  0  0  0  0  0  0  0  0  0  0  0
  -10.4569   -6.0235    9.5021 C   0  0  2  0  0  0  0  0  0  0  0  0
   -5.3233   -6.0416   10.6150 N   0  0  0  0  0  0  0  0  0  0  0  0
   -6.2613   -7.0057   10.8175 C   0  0  1  0  0  0  0  0  0  0  0  0
   -5.8899   -8.1755   11.3897 N   0  0  0  0  0  0  0  0  0  0  0  0
   -7.5621   -6.8204   10.4631 N   0  0  0  0  0  0  0  0  0  0  0  0
   -7.9880   -5.6635    9.8871 C   0  0  2  0  0  0  0  0  0  0  0  0
   -7.0784   -4.6472    9.6576 C   0  0  1  0  0  0  0  0  0  0  0  0
   -5.6616   -4.8629   10.0472 C   0  0  0  0  0  0  0  0  0  0  0  0
   -4.8003   -3.9757    9.8546 O   0  0  0  0  0  0  0  0  0  0  0  0
   -7.7389   -3.6275    9.0820 N   0  0  0  0  0  0  0  0  0  0  0  0
   -9.0348   -3.9995    8.9618 C   0  0  0  0  0  0  0  0  0  0  0  0
   -9.1858   -5.2424    9.4545 N   0  0  1  0  0  0  0  0  0  0  0  0
  1  2  1  0  0  0  0
  3  1  1  6  0  0  0
  3  4  1  0  0  0  0
  3  5  1  0  0  0  0
  5  6  1  1  0  0  0
  5  7  1  0  0  0  0
  7  8  1  0  0  0  0
  8  4  1  6  0  0  0
  8 19  1  0  0  0  0
  9 15  1  0  0  0  0
  9 10  1  0  0  0  0
 10 11  1  1  0  0  0
 10 12  1  0  0  0  0
 13 12  1  1  0  0  0
 13 14  1  0  0  0  0
 13 19  1  0  0  0  0
 14 15  1  6  0  0  0
 14 17  1  0  0  0  0
 15 16  2  0  0  0  0
 17 18  1  0  0  0  0
 19 18  1  6  0  0  0
M  END
>  <CHROM.1>
46.07187265,-24.62060856,-8.54836970,-6.39849765,9.26918222,-2.80087077,-0.44461566
-0.07264924

>  <Name>
ligand

>  <RI>
0

>  <Rbt.Current_Directory>
/home/itssahil/PROJECTS/Mol_Feturizer/New_Systems/rnas/3SKI

>  <Rbt.Executable>
rbdock ($Id: //depot/dev/client3/rdock/2013.1/src/exe/rbdock.cxx#4 $)

>  <Rbt.Library>
libRbt.so (2013.1, Build901 2013/11/27)

>  <Rbt.Parameter_File>
/export/apps/rDock/src/rDock_2013.1_src/data/scripts/dock_solv.prm

>  <Rbt.Receptor>
prm/pocket_docking_5.prm

>  <SCORE>
-12.3054

>  <SCORE.INTER>
-9.77493

>  <SCORE.INTER.CONST>
1

>  <SCORE.INTER.POLAR>
0

>  <SCORE.INTER.ROT>
2

>  <SCORE.INTER.SOLV>
9.5465

>  <SCORE.INTER.VDW>
-14.6321

>  <SCORE.INTER.norm>
-0.51447

>  <SCORE.INTRA>
-2.53043

>  <SCORE.INTRA.DIHEDRAL>
-4.38145

>  <SCORE.INTRA.DIHEDRAL.0>
6.26853

>  <SCORE.INTRA.POLAR>
0

>  <SCORE.INTRA.POLAR.0>
0

>  <SCORE.INTRA.REPUL>
0

>  <SCORE.INTRA.REPUL.0>
0

>  <SCORE.INTRA.SOLV>
-0.0975198

>  <SCORE.INTRA.SOLV.lig_0>
-38.4926

>  <SCORE.INTRA.VDW>
-0.290944

>  <SCORE.INTRA.VDW.0>
-0.59057

>  <SCORE.INTRA.norm>
-0.13318

>  <SCORE.RESTR>
0

>  <SCORE.RESTR.CAVITY>
0

>  <SCORE.RESTR.norm>
0

>  <SCORE.SYSTEM>
0

>  <SCORE.SYSTEM.CONST>
0

>  <SCORE.SYSTEM.DIHEDRAL>
0

>  <SCORE.SYSTEM.SOLV>
0

>  <SCORE.SYSTEM.norm>
0

>  <SCORE.heavy>
19

>  <SCORE.norm>
-0.64765

>  <RMSD>
4.867

$$$$
ligand
 OpenBabel11021811483D
libRbt.so/2013.1/901 2013/11/27
 19 21  0  0  0  0  0  0  0  0999 V2000
   -5.9576   -7.2148   13.2128 C   0  0  0  0  0  0  0  0  0  0  0  0
   -4.6397   -6.8654   13.6614 O   0  0  0  0  0  0  0  0  0  0  0  0
   -6.0306   -8.7076   12.8842 C   0  0  1  0  0  0  0  0  0  0  0  0
   -7.3505   -9.0657   12.4318 O   0  0  0  0  0  0  0  0  0  0  0  0
   -5.0625   -9.0700   11.7719 C   0  0  1  0  0  0  0  0  0  0  0  0
   -3.9084   -9.7435   12.2898 O   0  0  0  0  0  0  0  0  0  0  0  0
   -5.8311   -9.9784   10.8370 C   0  0  0  0  0  0  0  0  0  0  0  0
   -7.2977   -9.8136   11.2081 C   0  0  2  0  0  0  0  0  0  0  0  0
   -8.4493   -5.0956    9.2061 N   0  0  0  0  0  0  0  0  0  0  0  0
   -7.6857   -5.4212   10.2837 C   0  0  1  0  0  0  0  0  0  0  0  0
   -7.1017   -4.4312   10.9999 N   0  0  0  0  0  0  0  0  0  0  0  0
   -7.4992   -6.7155   10.6604 N   0  0  0  0  0  0  0  0  0  0  0  0
   -8.0649   -7.7473    9.9772 C   0  0  2  0  0  0  0  0  0  0  0  0
   -8.8525   -7.4763    8.8729 C   0  0  1  0  0  0  0  0  0  0  0  0
   -9.0465   -6.0597    8.4713 C   0  0  0  0  0  0  0  0  0  0  0  0
   -9.7455   -5.7643    7.4762 O   0  0  0  0  0  0  0  0  0  0  0  0
   -9.2829   -8.6498    8.3779 N   0  0  0  0  0  0  0  0  0  0  0  0
   -8.7785   -9.6309    9.1623 C   0  0  0  0  0  0  0  0  0  0  0  0
   -8.0358   -9.0785   10.1388 N   0  0  1  0  0  0  0  0  0  0  0  0
  1  2  1  0  0  0  0
  3  1  1  6  0  0  0
  3  4  1  0  0  0  0
  3  5  1  0  0  0  0
  5  6  1  1  0  0  0
  5  7  1  0  0  0  0
  7  8  1  0  0  0  0
  8  4  1  1  0  0  0
  8 19  1  0  0  0  0
  9 15  1  0  0  0  0
  9 10  1  0  0  0  0
 10 11  1  1  0  0  0
 10 12  1  0  0  0  0
 13 12  1  1  0  0  0
 13 14  1  0  0  0  0
 13 19  1  0  0  0  0
 14 15  1  6  0  0  0
 14 17  1  0  0  0  0
 15 16  2  0  0  0  0
 17 18  1  0  0  0  0
 19 18  1  6  0  0  0
M  END
>  <CHROM.1>
-179.94516768,36.70238903,-7.23637351,-7.71685988,10.68695138,-0.33717607
-0.83401104,0.08413823

>  <Name>
ligand

>  <RI>
0

>  <Rbt.Current_Directory>
/home/itssahil/PROJECTS/Mol_Feturizer/New_Systems/rnas/3SKI

>  <Rbt.Executable>
rbdock ($Id: //depot/dev/client3/rdock/2013.1/src/exe/rbdock.cxx#4 $)

>  <Rbt.Library>
libRbt.so (2013.1, Build901 2013/11/27)

>  <Rbt.Parameter_File>
/export/apps/rDock/src/rDock_2013.1_src/data/scripts/dock_solv.prm

>  <Rbt.Receptor>
prm/pocket_docking_4.prm

>  <SCORE>
-12.9631

>  <SCORE.INTER>
-9.82953

>  <SCORE.INTER.CONST>
1

>  <SCORE.INTER.POLAR>
0

>  <SCORE.INTER.ROT>
2

>  <SCORE.INTER.SOLV>
12.1025

>  <SCORE.INTER.VDW>
-15.5205

>  <SCORE.INTER.norm>
-0.517344

>  <SCORE.INTRA>
-3.13353

>  <SCORE.INTRA.DIHEDRAL>
-5.0832

>  <SCORE.INTRA.DIHEDRAL.0>
6.26853

>  <SCORE.INTRA.POLAR>
0

>  <SCORE.INTRA.POLAR.0>
0

>  <SCORE.INTRA.REPUL>
0

>  <SCORE.INTRA.REPUL.0>
0

>  <SCORE.INTRA.SOLV>
1.21238

>  <SCORE.INTRA.SOLV.lig_0>
-38.4926

>  <SCORE.INTRA.VDW>
-1.19813

>  <SCORE.INTRA.VDW.0>
-0.59057

>  <SCORE.INTRA.norm>
-0.164923

>  <SCORE.RESTR>
0

>  <SCORE.RESTR.CAVITY>
0

>  <SCORE.RESTR.norm>
0

>  <SCORE.SYSTEM>
0

>  <SCORE.SYSTEM.CONST>
0

>  <SCORE.SYSTEM.DIHEDRAL>
0

>  <SCORE.SYSTEM.SOLV>
0

>  <SCORE.SYSTEM.norm>
0

>  <SCORE.heavy>
19

>  <SCORE.norm>
-0.682266

>  <RMSD>
5.512

$$$$
ligand
 OpenBabel11021811483D
libRbt.so/2013.1/901 2013/11/27
 19 21  0  0  0  0  0  0  0  0999 V2000
   -5.9530   -7.2306   13.2184 C   0  0  0  0  0  0  0  0  0  0  0  0
   -4.6375   -6.8836   13.6760 O   0  0  0  0  0  0  0  0  0  0  0  0
   -6.0241   -8.7216   12.8810 C   0  0  1  0  0  0  0  0  0  0  0  0
   -7.3437   -9.0789   12.4273 O   0  0  0  0  0  0  0  0  0  0  0  0
   -5.0561   -9.0759   11.7659 C   0  0  1  0  0  0  0  0  0  0  0  0
   -3.9008   -9.7508   12.2790 O   0  0  0  0  0  0  0  0  0  0  0  0
   -5.8241   -9.9797   10.8261 C   0  0  0  0  0  0  0  0  0  0  0  0
   -7.2906   -9.8193   11.1990 C   0  0  2  0  0  0  0  0  0  0  0  0
   -8.4635   -5.0903    9.2359 N   0  0  0  0  0  0  0  0  0  0  0  0
   -7.7004   -5.4211   10.3122 C   0  0  1  0  0  0  0  0  0  0  0  0
   -7.1231   -4.4344   11.0381 N   0  0  0  0  0  0  0  0  0  0  0  0
   -7.5076   -6.7177   10.6780 N   0  0  0  0  0  0  0  0  0  0  0  0
   -8.0664   -7.7465    9.9846 C   0  0  2  0  0  0  0  0  0  0  0  0
   -8.8532   -7.4701    8.8811 C   0  0  1  0  0  0  0  0  0  0  0  0
   -9.0540   -6.0512    8.4914 C   0  0  0  0  0  0  0  0  0  0  0  0
   -9.7525   -5.7507    7.4975 O   0  0  0  0  0  0  0  0  0  0  0  0
   -9.2762   -8.6416    8.3750 N   0  0  0  0  0  0  0  0  0  0  0  0
   -8.7682   -9.6267    9.1519 C   0  0  0  0  0  0  0  0  0  0  0  0
   -8.0304   -9.0789   10.1347 N   0  0  1  0  0  0  0  0  0  0  0  0
  1  2  1  0  0  0  0
  3  1  1  6  0  0  0
  3  4  1  0  0  0  0
  3  5  1  0  0  0  0
  5  6  1  1  0  0  0
  5  7  1  0  0  0  0
  7  8  1  0  0  0  0
  8  4  1  1  0  0  0
  8 19  1  0  0  0  0
  9 15  1  0  0  0  0
  9 10  1  0  0  0  0
 10 11  1  1  0  0  0
 10 12  1  0  0  0  0
 13 12  1  1  0  0  0
 13 14  1  0  0  0  0
 13 19  1  0  0  0  0
 14 15  1  6  0  0  0
 14 17  1  0  0  0  0
 15 16  2  0  0  0  0
 17 18  1  0  0  0  0
 19 18  1  6  0  0  0
M  END
>  <CHROM.1>
179.70926865,36.38878891,-7.23653159,-7.71927399,10.69369067,-0.33000409
-0.83363424,0.09898968

>  <Name>
ligand

>  <RI>
0

>  <Rbt.Current_Directory>
/home/itssahil/PROJECTS/Mol_Feturizer/New_Systems/rnas/3SKI

>  <Rbt.Executable>
rbdock ($Id: //depot/dev/client3/rdock/2013.1/src/exe/rbdock.cxx#4 $)

>  <Rbt.Library>
libRbt.so (2013.1, Build901 2013/11/27)

>  <Rbt.Parameter_File>
/export/apps/rDock/src/rDock_2013.1_src/data/scripts/dock_solv.prm

>  <Rbt.Receptor>
prm/pocket_docking_4.prm

>  <SCORE>
-12.9843

>  <SCORE.INTER>
-9.85169

>  <SCORE.INTER.CONST>
1

>  <SCORE.INTER.POLAR>
0

>  <SCORE.INTER.ROT>
2

>  <SCORE.INTER.SOLV>
12.1915

>  <SCORE.INTER.VDW>
-15.565

>  <SCORE.INTER.norm>
-0.51851

>  <SCORE.INTRA>
-3.13261

>  <SCORE.INTRA.DIHEDRAL>
-5.08312

>  <SCORE.INTRA.DIHEDRAL.0>
6.26853

>  <SCORE.INTRA.POLAR>
0

>  <SCORE.INTRA.POLAR.0>
0

>  <SCORE.INTRA.REPUL>
0

>  <SCORE.INTRA.REPUL.0>
0

>  <SCORE.INTRA.SOLV>
1.21273

>  <SCORE.INTRA.SOLV.lig_0>
-38.4926

>  <SCORE.INTRA.VDW>
-1.19741

>  <SCORE.INTRA.VDW.0>
-0.59057

>  <SCORE.INTRA.norm>
-0.164874

>  <SCORE.RESTR>
0

>  <SCORE.RESTR.CAVITY>
0

>  <SCORE.RESTR.norm>
0

>  <SCORE.SYSTEM>
0

>  <SCORE.SYSTEM.CONST>
0

>  <SCORE.SYSTEM.DIHEDRAL>
0

>  <SCORE.SYSTEM.SOLV>
0

>  <SCORE.SYSTEM.norm>
0

>  <SCORE.heavy>
19

>  <SCORE.norm>
-0.683384

>  <RMSD>
5.513

$$$$
ligand
 OpenBabel11021811483D
libRbt.so/2013.1/901 2013/11/27
 19 21  0  0  0  0  0  0  0  0999 V2000
   -5.9592   -7.2351   13.2166 C   0  0  0  0  0  0  0  0  0  0  0  0
   -4.6520   -6.8873   13.6965 O   0  0  0  0  0  0  0  0  0  0  0  0
   -6.0232   -8.7259   12.8769 C   0  0  1  0  0  0  0  0  0  0  0  0
   -7.3416   -9.0892   12.4244 O   0  0  0  0  0  0  0  0  0  0  0  0
   -5.0549   -9.0736   11.7600 C   0  0  1  0  0  0  0  0  0  0  0  0
   -3.8955   -9.7434   12.2706 O   0  0  0  0  0  0  0  0  0  0  0  0
   -5.8195   -9.9799   10.8198 C   0  0  0  0  0  0  0  0  0  0  0  0
   -7.2864   -9.8275   11.1950 C   0  0  2  0  0  0  0  0  0  0  0  0
   -8.4356   -5.1047    9.2032 N   0  0  0  0  0  0  0  0  0  0  0  0
   -7.6631   -5.4335   10.2734 C   0  0  1  0  0  0  0  0  0  0  0  0
   -7.0676   -4.4461   10.9837 N   0  0  0  0  0  0  0  0  0  0  0  0
   -7.4789   -6.7286   10.6486 N   0  0  0  0  0  0  0  0  0  0  0  0
   -8.0559   -7.7579    9.9711 C   0  0  2  0  0  0  0  0  0  0  0  0
   -8.8529   -7.4835    8.8744 C   0  0  1  0  0  0  0  0  0  0  0  0
   -9.0442   -6.0662    8.4743 C   0  0  0  0  0  0  0  0  0  0  0  0
   -9.7514   -5.7677    7.4860 O   0  0  0  0  0  0  0  0  0  0  0  0
   -9.2934   -8.6552    8.3839 N   0  0  0  0  0  0  0  0  0  0  0  0
   -8.7860   -9.6384    9.1636 C   0  0  0  0  0  0  0  0  0  0  0  0
   -8.0313   -9.0892   10.1327 N   0  0  1  0  0  0  0  0  0  0  0  0
  1  2  1  0  0  0  0
  3  1  1  6  0  0  0
  3  4  1  0  0  0  0
  3  5  1  0  0  0  0
  5  6  1  1  0  0  0
  5  7  1  0  0  0  0
  7  8  1  0  0  0  0
  8  4  1  1  0  0  0
  8 19  1  0  0  0  0
  9 15  1  0  0  0  0
  9 10  1  0  0  0  0
 10 11  1  1  0  0  0
 10 12  1  0  0  0  0
 13 12  1  1  0  0  0
 13 14  1  0  0  0  0
 13 19  1  0  0  0  0
 14 15  1  6  0  0  0
 14 17  1  0  0  0  0
 15 16  2  0  0  0  0
 17 18  1  0  0  0  0
 19 18  1  6  0  0  0
M  END
>  <CHROM.1>
178.63946962,37.59438929,-7.22978311,-7.72769187,10.68358253,-0.33819674
-0.83301616,0.08150240

>  <Name>
ligand

>  <RI>
0

>  <Rbt.Current_Directory>
/home/itssahil/PROJECTS/Mol_Feturizer/New_Systems/rnas/3SKI

>  <Rbt.Executable>
rbdock ($Id: //depot/dev/client3/rdock/2013.1/src/exe/rbdock.cxx#4 $)

>  <Rbt.Library>
libRbt.so (2013.1, Build901 2013/11/27)

>  <Rbt.Parameter_File>
/export/apps/rDock/src/rDock_2013.1_src/data/scripts/dock_solv.prm

>  <Rbt.Receptor>
prm/pocket_docking_5.prm

>  <SCORE>
-12.9675

>  <SCORE.INTER>
-9.81018

>  <SCORE.INTER.CONST>
1

>  <SCORE.INTER.POLAR>
0

>  <SCORE.INTER.ROT>
2

>  <SCORE.INTER.SOLV>
11.9961

>  <SCORE.INTER.VDW>
-15.4722

>  <SCORE.INTER.norm>
-0.516325

>  <SCORE.INTRA>
-3.15732

>  <SCORE.INTRA.DIHEDRAL>
-5.07672

>  <SCORE.INTRA.DIHEDRAL.0>
6.26853

>  <SCORE.INTRA.POLAR>
0

>  <SCORE.INTRA.POLAR.0>
0

>  <SCORE.INTRA.REPUL>
0

>  <SCORE.INTRA.REPUL.0>
0

>  <SCORE.INTRA.SOLV>
1.19879

>  <SCORE.INTRA.SOLV.lig_0>
-38.4926

>  <SCORE.INTRA.VDW>
-1.21835

>  <SCORE.INTRA.VDW.0>
-0.59057

>  <SCORE.INTRA.norm>
-0.166175

>  <SCORE.RESTR>
0

>  <SCORE.RESTR.CAVITY>
0

>  <SCORE.RESTR.norm>
0

>  <SCORE.SYSTEM>
0

>  <SCORE.SYSTEM.CONST>
0

>  <SCORE.SYSTEM.DIHEDRAL>
0

>  <SCORE.SYSTEM.SOLV>
0

>  <SCORE.SYSTEM.norm>
0

>  <SCORE.heavy>
19

>  <SCORE.norm>
-0.6825

>  <RMSD>
5.519

$$$$
ligand
 OpenBabel11021811483D
libRbt.so/2013.1/901 2013/11/27
 19 21  0  0  0  0  0  0  0  0999 V2000
   -7.5026   -5.4667    9.3795 C   0  0  0  0  0  0  0  0  0  0  0  0
   -8.6206   -4.5666    9.3840 O   0  0  0  0  0  0  0  0  0  0  0  0
   -7.9604   -6.8838    9.0274 C   0  0  1  0  0  0  0  0  0  0  0  0
   -6.8363   -7.7826    8.9688 O   0  0  0  0  0  0  0  0  0  0  0  0
   -8.9133   -7.4267   10.0777 C   0  0  1  0  0  0  0  0  0  0  0  0
  -10.2674   -7.4027    9.6093 O   0  0  0  0  0  0  0  0  0  0  0  0
   -8.4687   -8.8490   10.3409 C   0  0  0  0  0  0  0  0  0  0  0  0
   -7.0742   -8.9670    9.7435 C   0  0  2  0  0  0  0  0  0  0  0  0
   -4.9301   -6.6435   13.9384 N   0  0  0  0  0  0  0  0  0  0  0  0
   -5.9324   -6.2163   13.1240 C   0  0  1  0  0  0  0  0  0  0  0  0
   -6.5141   -5.0182   13.3690 N   0  0  0  0  0  0  0  0  0  0  0  0
   -6.3600   -6.9615   12.0687 N   0  0  0  0  0  0  0  0  0  0  0  0
   -5.8083   -8.1707   11.7773 C   0  0  2  0  0  0  0  0  0  0  0  0
   -4.7844   -8.6559   12.5708 C   0  0  1  0  0  0  0  0  0  0  0  0
   -4.3284   -7.8338   13.7204 C   0  0  0  0  0  0  0  0  0  0  0  0
   -3.4095   -8.2323   14.4706 O   0  0  0  0  0  0  0  0  0  0  0  0
   -4.4208   -9.8550   12.0836 N   0  0  0  0  0  0  0  0  0  0  0  0
   -5.1984  -10.1079   11.0049 C   0  0  0  0  0  0  0  0  0  0  0  0
   -6.0444   -9.0784   10.8185 N   0  0  1  0  0  0  0  0  0  0  0  0
  1  2  1  0  0  0  0
  3  1  1  1  0  0  0
  3  4  1  0  0  0  0
  3  5  1  0  0  0  0
  5  6  1  6  0  0  0
  5  7  1  0  0  0  0
  7  8  1  0  0  0  0
  8  4  1  1  0  0  0
  8 19  1  0  0  0  0
  9 15  1  0  0  0  0
  9 10  1  0  0  0  0
 10 11  1  6  0  0  0
 10 12  1  0  0  0  0
 13 12  1  6  0  0  0
 13 14  1  0  0  0  0
 13 19  1  0  0  0  0
 14 15  1  1  0  0  0
 14 17  1  0  0  0  0
 15 16  2  0  0  0  0
 17 18  1  0  0  0  0
 19 18  1  1  0  0  0
M  END
>  <CHROM.1>
177.71660795,58.52062253,-6.54985147,-7.54179380,11.29592157,3.02725918,0.77842433
-2.65371385

>  <Name>
ligand

>  <RI>
0

>  <Rbt.Current_Directory>
/home/itssahil/PROJECTS/Mol_Feturizer/New_Systems/rnas/3SKI

>  <Rbt.Executable>
rbdock ($Id: //depot/dev/client3/rdock/2013.1/src/exe/rbdock.cxx#4 $)

>  <Rbt.Library>
libRbt.so (2013.1, Build901 2013/11/27)

>  <Rbt.Parameter_File>
/export/apps/rDock/src/rDock_2013.1_src/data/scripts/dock_solv.prm

>  <Rbt.Receptor>
prm/pocket_docking_5.prm

>  <SCORE>
-12.7063

>  <SCORE.INTER>
-9.30646

>  <SCORE.INTER.CONST>
1

>  <SCORE.INTER.POLAR>
0

>  <SCORE.INTER.ROT>
2

>  <SCORE.INTER.SOLV>
15.3579

>  <SCORE.INTER.VDW>
-16.2569

>  <SCORE.INTER.norm>
-0.489814

>  <SCORE.INTRA>
-3.39989

>  <SCORE.INTRA.DIHEDRAL>
-5.04934

>  <SCORE.INTRA.DIHEDRAL.0>
6.26853

>  <SCORE.INTRA.POLAR>
0

>  <SCORE.INTRA.POLAR.0>
0

>  <SCORE.INTRA.REPUL>
0

>  <SCORE.INTRA.REPUL.0>
0

>  <SCORE.INTRA.SOLV>
0.710158

>  <SCORE.INTRA.SOLV.lig_0>
-38.4926

>  <SCORE.INTRA.VDW>
-1.2303

>  <SCORE.INTRA.VDW.0>
-0.59057

>  <SCORE.INTRA.norm>
-0.178942

>  <SCORE.RESTR>
0

>  <SCORE.RESTR.CAVITY>
0

>  <SCORE.RESTR.norm>
0

>  <SCORE.SYSTEM>
0

>  <SCORE.SYSTEM.CONST>
0

>  <SCORE.SYSTEM.DIHEDRAL>
0

>  <SCORE.SYSTEM.SOLV>
0

>  <SCORE.SYSTEM.norm>
0

>  <SCORE.heavy>
19

>  <SCORE.norm>
-0.668755

>  <RMSD>
5.607

$$$$
ligand
 OpenBabel11021811483D
libRbt.so/2013.1/901 2013/11/27
 19 21  0  0  0  0  0  0  0  0999 V2000
   -7.6073   -3.9333    9.5957 C   0  0  0  0  0  0  0  0  0  0  0  0
   -6.4653   -3.9280    8.7261 O   0  0  0  0  0  0  0  0  0  0  0  0
   -8.6792   -4.8864    9.0623 C   0  0  1  0  0  0  0  0  0  0  0  0
   -8.1549   -6.2218    8.9330 O   0  0  0  0  0  0  0  0  0  0  0  0
   -9.8642   -4.9604   10.0090 C   0  0  1  0  0  0  0  0  0  0  0  0
  -10.9775   -4.2131    9.5034 O   0  0  0  0  0  0  0  0  0  0  0  0
  -10.2155   -6.4285   10.1146 C   0  0  0  0  0  0  0  0  0  0  0  0
   -9.0204   -7.1845    9.5526 C   0  0  2  0  0  0  0  0  0  0  0  0
   -6.1144   -6.6243   13.8924 N   0  0  0  0  0  0  0  0  0  0  0  0
   -6.6598   -5.6778   13.0819 C   0  0  1  0  0  0  0  0  0  0  0  0
   -6.4657   -4.3698   13.3739 N   0  0  0  0  0  0  0  0  0  0  0  0
   -7.3906   -6.0144   11.9843 N   0  0  0  0  0  0  0  0  0  0  0  0
   -7.6136   -7.3130   11.6448 C   0  0  2  0  0  0  0  0  0  0  0  0
   -7.0826   -8.3188   12.4321 C   0  0  1  0  0  0  0  0  0  0  0  0
   -6.2887   -7.9380   13.6281 C   0  0  0  0  0  0  0  0  0  0  0  0
   -5.7928   -8.8115   14.3745 O   0  0  0  0  0  0  0  0  0  0  0  0
   -7.4461   -9.4960   11.8943 N   0  0  0  0  0  0  0  0  0  0  0  0
   -8.1829   -9.2281   10.7908 C   0  0  0  0  0  0  0  0  0  0  0  0
   -8.2837   -7.8950   10.6392 N   0  0  1  0  0  0  0  0  0  0  0  0
  1  2  1  0  0  0  0
  3  1  1  1  0  0  0
  3  4  1  0  0  0  0
  3  5  1  0  0  0  0
  5  6  1  6  0  0  0
  5  7  1  0  0  0  0
  7  8  1  0  0  0  0
  8  4  1  1  0  0  0
  8 19  1  0  0  0  0
  9 15  1  0  0  0  0
  9 10  1  0  0  0  0
 10 11  1  6  0  0  0
 10 12  1  0  0  0  0
 13 12  1  6  0  0  0
 13 14  1  0  0  0  0
 13 19  1  0  0  0  0
 14 15  1  1  0  0  0
 14 17  1  0  0  0  0
 15 16  2  0  0  0  0
 17 18  1  0  0  0  0
 19 18  1  1  0  0  0
M  END
>  <CHROM.1>
58.06793864,52.42876200,-7.81575902,-6.43883462,11.17431774,-2.31404680,0.84570673
2.83262362

>  <Name>
ligand

>  <RI>
0

>  <Rbt.Current_Directory>
/home/itssahil/PROJECTS/Mol_Feturizer/New_Systems/rnas/3SKI

>  <Rbt.Executable>
rbdock ($Id: //depot/dev/client3/rdock/2013.1/src/exe/rbdock.cxx#4 $)

>  <Rbt.Library>
libRbt.so (2013.1, Build901 2013/11/27)

>  <Rbt.Parameter_File>
/export/apps/rDock/src/rDock_2013.1_src/data/scripts/dock_solv.prm

>  <Rbt.Receptor>
prm/pocket_docking_4.prm

>  <SCORE>
-11.942

>  <SCORE.INTER>
-8.42834

>  <SCORE.INTER.CONST>
1

>  <SCORE.INTER.POLAR>
0

>  <SCORE.INTER.ROT>
2

>  <SCORE.INTER.SOLV>
19.2646

>  <SCORE.INTER.VDW>
-16.9738

>  <SCORE.INTER.norm>
-0.443597

>  <SCORE.INTRA>
-3.51368

>  <SCORE.INTRA.DIHEDRAL>
-5.06029

>  <SCORE.INTRA.DIHEDRAL.0>
6.26853

>  <SCORE.INTRA.POLAR>
0

>  <SCORE.INTRA.POLAR.0>
0

>  <SCORE.INTRA.REPUL>
0

>  <SCORE.INTRA.REPUL.0>
0

>  <SCORE.INTRA.SOLV>
0.701806

>  <SCORE.INTRA.SOLV.lig_0>
-38.4926

>  <SCORE.INTRA.VDW>
-1.33444

>  <SCORE.INTRA.VDW.0>
-0.59057

>  <SCORE.INTRA.norm>
-0.184931

>  <SCORE.RESTR>
0

>  <SCORE.RESTR.CAVITY>
0

>  <SCORE.RESTR.norm>
0

>  <SCORE.SYSTEM>
0

>  <SCORE.SYSTEM.CONST>
0

>  <SCORE.SYSTEM.DIHEDRAL>
0

>  <SCORE.SYSTEM.SOLV>
0

>  <SCORE.SYSTEM.norm>
0

>  <SCORE.heavy>
19

>  <SCORE.norm>
-0.628527

>  <RMSD>
5.628

$$$$
ligand
 OpenBabel11021811483D
libRbt.so/2013.1/901 2013/11/27
 19 21  0  0  0  0  0  0  0  0999 V2000
   -8.0449   -9.7996   10.1974 C   0  0  0  0  0  0  0  0  0  0  0  0
   -8.3205  -10.8928   11.0857 O   0  0  0  0  0  0  0  0  0  0  0  0
   -6.8563   -8.9831   10.7095 C   0  0  1  0  0  0  0  0  0  0  0  0
   -6.5151   -7.9399    9.7766 O   0  0  0  0  0  0  0  0  0  0  0  0
   -7.1840   -8.3117   12.0316 C   0  0  1  0  0  0  0  0  0  0  0  0
   -6.5568   -8.9915   13.1262 O   0  0  0  0  0  0  0  0  0  0  0  0
   -6.6595   -6.8970   11.9158 C   0  0  0  0  0  0  0  0  0  0  0  0
   -6.3967   -6.6698   10.4343 C   0  0  2  0  0  0  0  0  0  0  0  0
  -11.0530   -6.1755    8.0536 N   0  0  0  0  0  0  0  0  0  0  0  0
  -10.3989   -7.2959    8.4624 C   0  0  1  0  0  0  0  0  0  0  0  0
  -10.9731   -8.5051    8.2572 N   0  0  0  0  0  0  0  0  0  0  0  0
   -9.1817   -7.2301    9.0676 N   0  0  0  0  0  0  0  0  0  0  0  0
   -8.5603   -6.0413    9.2954 C   0  0  2  0  0  0  0  0  0  0  0  0
   -9.1779   -4.8684    8.9002 C   0  0  1  0  0  0  0  0  0  0  0  0
  -10.5068   -4.9540    8.2428 C   0  0  0  0  0  0  0  0  0  0  0  0
  -11.1080   -3.9207    7.8727 O   0  0  0  0  0  0  0  0  0  0  0  0
   -8.3728   -3.8465    9.2391 N   0  0  0  0  0  0  0  0  0  0  0  0
   -7.2735   -4.3733    9.8274 C   0  0  0  0  0  0  0  0  0  0  0  0
   -7.3888   -5.7134    9.8604 N   0  0  1  0  0  0  0  0  0  0  0  0
  1  2  1  0  0  0  0
  3  1  1  6  0  0  0
  3  4  1  0  0  0  0
  3  5  1  0  0  0  0
  5  6  1  1  0  0  0
  5  7  1  0  0  0  0
  7  8  1  0  0  0  0
  8  4  1  6  0  0  0
  8 19  1  0  0  0  0
  9 15  1  0  0  0  0
  9 10  1  0  0  0  0
 10 11  1  6  0  0  0
 10 12  1  0  0  0  0
 13 12  1  6  0  0  0
 13 14  1  0  0  0  0
 13 19  1  0  0  0  0
 14 15  1  1  0  0  0
 14 17  1  0  0  0  0
 15 16  2  0  0  0  0
 17 18  1  0  0  0  0
 19 18  1  1  0  0  0
M  END
>  <CHROM.1>
176.03030254,27.31902043,-8.42932318,-6.98934760,9.84722464,0.88749334,0.61526757
2.91561213

>  <Name>
ligand

>  <RI>
0

>  <Rbt.Current_Directory>
/home/itssahil/PROJECTS/Mol_Feturizer/New_Systems/rnas/3SKI

>  <Rbt.Executable>
rbdock ($Id: //depot/dev/client3/rdock/2013.1/src/exe/rbdock.cxx#4 $)

>  <Rbt.Library>
libRbt.so (2013.1, Build901 2013/11/27)

>  <Rbt.Parameter_File>
/export/apps/rDock/src/rDock_2013.1_src/data/scripts/dock_solv.prm

>  <Rbt.Receptor>
prm/pocket_docking_5.prm

>  <SCORE>
-13.2419

>  <SCORE.INTER>
-10.2135

>  <SCORE.INTER.CONST>
1

>  <SCORE.INTER.POLAR>
0

>  <SCORE.INTER.ROT>
2

>  <SCORE.INTER.SOLV>
11.3164

>  <SCORE.INTER.VDW>
-15.5144

>  <SCORE.INTER.norm>
-0.537551

>  <SCORE.INTRA>
-3.02846

>  <SCORE.INTRA.DIHEDRAL>
-5.02869

>  <SCORE.INTRA.DIHEDRAL.0>
6.26853

>  <SCORE.INTRA.POLAR>
0

>  <SCORE.INTRA.POLAR.0>
0

>  <SCORE.INTRA.REPUL>
0

>  <SCORE.INTRA.REPUL.0>
0

>  <SCORE.INTRA.SOLV>
1.18483

>  <SCORE.INTRA.SOLV.lig_0>
-38.4926

>  <SCORE.INTRA.VDW>
-1.10654

>  <SCORE.INTRA.VDW.0>
-0.59057

>  <SCORE.INTRA.norm>
-0.159393

>  <SCORE.RESTR>
0

>  <SCORE.RESTR.CAVITY>
0

>  <SCORE.RESTR.norm>
0

>  <SCORE.SYSTEM>
0

>  <SCORE.SYSTEM.CONST>
0

>  <SCORE.SYSTEM.DIHEDRAL>
0

>  <SCORE.SYSTEM.SOLV>
0

>  <SCORE.SYSTEM.norm>
0

>  <SCORE.heavy>
19

>  <SCORE.norm>
-0.696944

>  <RMSD>
5.673

$$$$
ligand
 OpenBabel11021811483D
libRbt.so/2013.1/901 2013/11/27
 19 21  0  0  0  0  0  0  0  0999 V2000
   -7.2361   -5.9063    9.2468 C   0  0  0  0  0  0  0  0  0  0  0  0
   -8.2982   -4.9429    9.1840 O   0  0  0  0  0  0  0  0  0  0  0  0
   -7.7950   -7.3251    9.1188 C   0  0  1  0  0  0  0  0  0  0  0  0
   -6.7288   -8.2937    9.1081 O   0  0  0  0  0  0  0  0  0  0  0  0
   -8.6966   -7.6649   10.2926 C   0  0  1  0  0  0  0  0  0  0  0  0
  -10.0780   -7.6159    9.9148 O   0  0  0  0  0  0  0  0  0  0  0  0
   -8.3120   -9.0663   10.7148 C   0  0  0  0  0  0  0  0  0  0  0  0
   -6.9735   -9.3496   10.0487 C   0  0  2  0  0  0  0  0  0  0  0  0
   -4.6663   -6.8052   14.0230 N   0  0  0  0  0  0  0  0  0  0  0  0
   -5.7333   -6.4439   13.2607 C   0  0  1  0  0  0  0  0  0  0  0  0
   -6.3455   -5.2606   13.5037 N   0  0  0  0  0  0  0  0  0  0  0  0
   -6.1960   -7.2403   12.2588 N   0  0  0  0  0  0  0  0  0  0  0  0
   -5.6161   -8.4373   11.9718 C   0  0  2  0  0  0  0  0  0  0  0  0
   -4.5266   -8.8564   12.7137 C   0  0  1  0  0  0  0  0  0  0  0  0
   -4.0328   -7.9789   13.8054 C   0  0  0  0  0  0  0  0  0  0  0  0
   -3.0541   -8.3169   14.5082 O   0  0  0  0  0  0  0  0  0  0  0  0
   -4.1470  -10.0571   12.2430 N   0  0  0  0  0  0  0  0  0  0  0  0
   -4.9794  -10.3756   11.2244 C   0  0  0  0  0  0  0  0  0  0  0  0
   -5.8754   -9.3855   11.0592 N   0  0  1  0  0  0  0  0  0  0  0  0
  1  2  1  0  0  0  0
  3  1  1  1  0  0  0
  3  4  1  0  0  0  0
  3  5  1  0  0  0  0
  5  6  1  6  0  0  0
  5  7  1  0  0  0  0
  7  8  1  0  0  0  0
  8  4  1  6  0  0  0
  8 19  1  0  0  0  0
  9 15  1  0  0  0  0
  9 10  1  0  0  0  0
 10 11  1  6  0  0  0
 10 12  1  0  0  0  0
 13 12  1  6  0  0  0
 13 14  1  0  0  0  0
 13 19  1  0  0  0  0
 14 15  1  1  0  0  0
 14 17  1  0  0  0  0
 15 16  2  0  0  0  0
 17 18  1  0  0  0  0
 19 18  1  1  0  0  0
M  END
>  <CHROM.1>
176.88396246,66.52969033,-6.33412076,-7.81746722,11.43585749,3.01971259,0.76717589
-2.68288935

>  <Name>
ligand

>  <RI>
0

>  <Rbt.Current_Directory>
/home/itssahil/PROJECTS/Mol_Feturizer/New_Systems/rnas/3SKI

>  <Rbt.Executable>
rbdock ($Id: //depot/dev/client3/rdock/2013.1/src/exe/rbdock.cxx#4 $)

>  <Rbt.Library>
libRbt.so (2013.1, Build901 2013/11/27)

>  <Rbt.Parameter_File>
/export/apps/rDock/src/rDock_2013.1_src/data/scripts/dock_solv.prm

>  <Rbt.Receptor>
prm/pocket_docking_6.prm

>  <SCORE>
-12.9323

>  <SCORE.INTER>
-9.49659

>  <SCORE.INTER.CONST>
1

>  <SCORE.INTER.POLAR>
0

>  <SCORE.INTER.ROT>
2

>  <SCORE.INTER.SOLV>
15.7975

>  <SCORE.INTER.VDW>
-16.5302

>  <SCORE.INTER.norm>
-0.499821

>  <SCORE.INTRA>
-3.43571

>  <SCORE.INTRA.DIHEDRAL>
-5.02572

>  <SCORE.INTRA.DIHEDRAL.0>
6.26853

>  <SCORE.INTRA.POLAR>
0

>  <SCORE.INTRA.POLAR.0>
0

>  <SCORE.INTRA.REPUL>
0

>  <SCORE.INTRA.REPUL.0>
0

>  <SCORE.INTRA.SOLV>
0.388597

>  <SCORE.INTRA.SOLV.lig_0>
-38.4926

>  <SCORE.INTRA.VDW>
-1.11714

>  <SCORE.INTRA.VDW.0>
-0.59057

>  <SCORE.INTRA.norm>
-0.180827

>  <SCORE.RESTR>
0

>  <SCORE.RESTR.CAVITY>
0

>  <SCORE.RESTR.norm>
0

>  <SCORE.SYSTEM>
0

>  <SCORE.SYSTEM.CONST>
0

>  <SCORE.SYSTEM.DIHEDRAL>
0

>  <SCORE.SYSTEM.SOLV>
0

>  <SCORE.SYSTEM.norm>
0

>  <SCORE.heavy>
19

>  <SCORE.norm>
-0.680647

>  <RMSD>
5.799

$$$$
ligand
 OpenBabel11021811483D
libRbt.so/2013.1/901 2013/11/27
 19 21  0  0  0  0  0  0  0  0999 V2000
   -6.0559   -6.0404   12.6307 C   0  0  0  0  0  0  0  0  0  0  0  0
   -6.8791   -5.1885   13.4411 O   0  0  0  0  0  0  0  0  0  0  0  0
   -6.2240   -7.5019   13.0518 C   0  0  1  0  0  0  0  0  0  0  0  0
   -7.5394   -7.9816   12.7132 O   0  0  0  0  0  0  0  0  0  0  0  0
   -5.2245   -8.3945   12.3376 C   0  0  1  0  0  0  0  0  0  0  0  0
   -4.1568   -8.7790   13.2127 O   0  0  0  0  0  0  0  0  0  0  0  0
   -6.0057   -9.6103   11.8887 C   0  0  0  0  0  0  0  0  0  0  0  0
   -7.4741   -9.2290   12.0066 C   0  0  2  0  0  0  0  0  0  0  0  0
   -9.1488   -5.8155    8.3822 N   0  0  0  0  0  0  0  0  0  0  0  0
   -8.5995   -5.5868    9.6053 C   0  0  1  0  0  0  0  0  0  0  0  0
   -8.4279   -4.3095   10.0215 N   0  0  0  0  0  0  0  0  0  0  0  0
   -8.2233   -6.6096   10.4204 N   0  0  0  0  0  0  0  0  0  0  0  0
   -8.3758   -7.9104   10.0517 C   0  0  2  0  0  0  0  0  0  0  0  0
   -8.9298   -8.2035    8.8186 C   0  0  1  0  0  0  0  0  0  0  0  0
   -9.3343   -7.0782    7.9380 C   0  0  0  0  0  0  0  0  0  0  0  0
   -9.8346   -7.2924    6.8111 O   0  0  0  0  0  0  0  0  0  0  0  0
   -8.9658   -9.5415    8.6926 N   0  0  0  0  0  0  0  0  0  0  0  0
   -8.4505  -10.0703    9.8271 C   0  0  0  0  0  0  0  0  0  0  0  0
   -8.0915   -9.0734   10.6564 N   0  0  1  0  0  0  0  0  0  0  0  0
  1  2  1  0  0  0  0
  3  1  1  6  0  0  0
  3  4  1  0  0  0  0
  3  5  1  0  0  0  0
  5  6  1  1  0  0  0
  5  7  1  0  0  0  0
  7  8  1  0  0  0  0
  8  4  1  6  0  0  0
  8 19  1  0  0  0  0
  9 15  1  0  0  0  0
  9 10  1  0  0  0  0
 10 11  1  1  0  0  0
 10 12  1  0  0  0  0
 13 12  1  1  0  0  0
 13 14  1  0  0  0  0
 13 19  1  0  0  0  0
 14 15  1  6  0  0  0
 14 17  1  0  0  0  0
 15 16  2  0  0  0  0
 17 18  1  0  0  0  0
 19 18  1  6  0  0  0
M  END
>  <CHROM.1>
68.82951306,14.77399381,-7.63842931,-7.56606289,10.71894360,0.03938413,-0.93330377
0.20231646

>  <Name>
ligand

>  <RI>
0

>  <Rbt.Current_Directory>
/home/itssahil/PROJECTS/Mol_Feturizer/New_Systems/rnas/3SKI

>  <Rbt.Executable>
rbdock ($Id: //depot/dev/client3/rdock/2013.1/src/exe/rbdock.cxx#4 $)

>  <Rbt.Library>
libRbt.so (2013.1, Build901 2013/11/27)

>  <Rbt.Parameter_File>
/export/apps/rDock/src/rDock_2013.1_src/data/scripts/dock_solv.prm

>  <Rbt.Receptor>
prm/pocket_docking_4.prm

>  <SCORE>
-12.4768

>  <SCORE.INTER>
-9.60398

>  <SCORE.INTER.CONST>
1

>  <SCORE.INTER.POLAR>
0

>  <SCORE.INTER.ROT>
2

>  <SCORE.INTER.SOLV>
13.2334

>  <SCORE.INTER.VDW>
-15.7471

>  <SCORE.INTER.norm>
-0.505472

>  <SCORE.INTRA>
-2.87278

>  <SCORE.INTRA.DIHEDRAL>
-4.79856

>  <SCORE.INTRA.DIHEDRAL.0>
6.26853

>  <SCORE.INTRA.POLAR>
0

>  <SCORE.INTRA.POLAR.0>
0

>  <SCORE.INTRA.REPUL>
0

>  <SCORE.INTRA.REPUL.0>
0

>  <SCORE.INTRA.SOLV>
1.3005

>  <SCORE.INTRA.SOLV.lig_0>
-38.4926

>  <SCORE.INTRA.VDW>
-1.12375

>  <SCORE.INTRA.VDW.0>
-0.59057

>  <SCORE.INTRA.norm>
-0.151199

>  <SCORE.RESTR>
0

>  <SCORE.RESTR.CAVITY>
0

>  <SCORE.RESTR.norm>
0

>  <SCORE.SYSTEM>
0

>  <SCORE.SYSTEM.CONST>
0

>  <SCORE.SYSTEM.DIHEDRAL>
0

>  <SCORE.SYSTEM.SOLV>
0

>  <SCORE.SYSTEM.norm>
0

>  <SCORE.heavy>
19

>  <SCORE.norm>
-0.656671

>  <RMSD>
5.821

$$$$
ligand
 OpenBabel11021811483D
libRbt.so/2013.1/901 2013/11/27
 19 21  0  0  0  0  0  0  0  0999 V2000
   -2.7815   -1.0245   10.2752 C   0  0  0  0  0  0  0  0  0  0  0  0
   -1.7427   -0.8802    9.2952 O   0  0  0  0  0  0  0  0  0  0  0  0
   -4.1444   -0.7007    9.6592 C   0  0  1  0  0  0  0  0  0  0  0  0
   -4.5239   -1.7092    8.7032 O   0  0  0  0  0  0  0  0  0  0  0  0
   -5.2284   -0.6606   10.7218 C   0  0  1  0  0  0  0  0  0  0  0  0
   -5.5990    0.6885   11.0319 O   0  0  0  0  0  0  0  0  0  0  0  0
   -6.4048   -1.4126   10.1382 C   0  0  0  0  0  0  0  0  0  0  0  0
   -5.8571   -2.1823    8.9453 C   0  0  2  0  0  0  0  0  0  0  0  0
   -8.7264   -6.5515    9.4643 N   0  0  0  0  0  0  0  0  0  0  0  0
   -9.1200   -5.2798    9.1851 C   0  0  1  0  0  0  0  0  0  0  0  0
  -10.4370   -5.0236    9.0012 N   0  0  0  0  0  0  0  0  0  0  0  0
   -8.2232   -4.2604    9.0908 N   0  0  0  0  0  0  0  0  0  0  0  0
   -6.8895   -4.4632    9.2689 C   0  0  2  0  0  0  0  0  0  0  0  0
   -6.4312   -5.7363    9.5559 C   0  0  1  0  0  0  0  0  0  0  0  0
   -7.4200   -6.8400    9.6541 C   0  0  0  0  0  0  0  0  0  0  0  0
   -7.0537   -8.0099    9.9059 O   0  0  0  0  0  0  0  0  0  0  0  0
   -5.0939   -5.6730    9.6783 N   0  0  0  0  0  0  0  0  0  0  0  0
   -4.7282   -4.3853    9.4779 C   0  0  0  0  0  0  0  0  0  0  0  0
   -5.8255   -3.6475    9.2289 N   0  0  1  0  0  0  0  0  0  0  0  0
  1  2  1  0  0  0  0
  3  1  1  1  0  0  0
  3  4  1  0  0  0  0
  3  5  1  0  0  0  0
  5  6  1  6  0  0  0
  5  7  1  0  0  0  0
  7  8  1  0  0  0  0
  8  4  1  1  0  0  0
  8 19  1  0  0  0  0
  9 15  1  0  0  0  0
  9 10  1  0  0  0  0
 10 11  1  1  0  0  0
 10 12  1  0  0  0  0
 13 12  1  1  0  0  0
 13 14  1  0  0  0  0
 13 19  1  0  0  0  0
 14 15  1  6  0  0  0
 14 17  1  0  0  0  0
 15 16  2  0  0  0  0
 17 18  1  0  0  0  0
 19 18  1  6  0  0  0
M  END
>  <CHROM.1>
68.92843029,-167.61470610,-6.05604445,-3.49155531,9.60238709,-0.91780566
-0.00508528,-3.04725032

>  <Name>
ligand

>  <RI>
0

>  <Rbt.Current_Directory>
/home/itssahil/PROJECTS/Mol_Feturizer/New_Systems/rnas/3SKI

>  <Rbt.Executable>
rbdock ($Id: //depot/dev/client3/rdock/2013.1/src/exe/rbdock.cxx#4 $)

>  <Rbt.Library>
libRbt.so (2013.1, Build901 2013/11/27)

>  <Rbt.Parameter_File>
/export/apps/rDock/src/rDock_2013.1_src/data/scripts/dock_solv.prm

>  <Rbt.Receptor>
prm/pocket_docking_5.prm

>  <SCORE>
-17.44

>  <SCORE.INTER>
-14.4478

>  <SCORE.INTER.CONST>
1

>  <SCORE.INTER.POLAR>
0

>  <SCORE.INTER.ROT>
2

>  <SCORE.INTER.SOLV>
14.1976

>  <SCORE.INTER.VDW>
-19.2977

>  <SCORE.INTER.norm>
-0.760412

>  <SCORE.INTRA>
-2.99216

>  <SCORE.INTRA.DIHEDRAL>
-4.76855

>  <SCORE.INTRA.DIHEDRAL.0>
6.26853

>  <SCORE.INTRA.POLAR>
0

>  <SCORE.INTRA.POLAR.0>
0

>  <SCORE.INTRA.REPUL>
0

>  <SCORE.INTRA.REPUL.0>
0

>  <SCORE.INTRA.SOLV>
-0.270647

>  <SCORE.INTRA.SOLV.lig_0>
-38.4926

>  <SCORE.INTRA.VDW>
-0.47256

>  <SCORE.INTRA.VDW.0>
-0.59057

>  <SCORE.INTRA.norm>
-0.157482

>  <SCORE.RESTR>
0

>  <SCORE.RESTR.CAVITY>
0

>  <SCORE.RESTR.norm>
0

>  <SCORE.SYSTEM>
0

>  <SCORE.SYSTEM.CONST>
0

>  <SCORE.SYSTEM.DIHEDRAL>
0

>  <SCORE.SYSTEM.SOLV>
0

>  <SCORE.SYSTEM.norm>
0

>  <SCORE.heavy>
19

>  <SCORE.norm>
-0.917894

>  <RMSD>
5.850

$$$$
ligand
 OpenBabel11021811483D
libRbt.so/2013.1/901 2013/11/27
 19 21  0  0  0  0  0  0  0  0999 V2000
   -3.0125   -0.8358   10.2293 C   0  0  0  0  0  0  0  0  0  0  0  0
   -1.9734   -0.7593    9.2421 O   0  0  0  0  0  0  0  0  0  0  0  0
   -4.3844   -0.6611    9.5741 C   0  0  1  0  0  0  0  0  0  0  0  0
   -4.6827   -1.7756    8.7116 O   0  0  0  0  0  0  0  0  0  0  0  0
   -5.4844   -0.5966   10.6190 C   0  0  1  0  0  0  0  0  0  0  0  0
   -5.9472    0.7475   10.8003 O   0  0  0  0  0  0  0  0  0  0  0  0
   -6.6001   -1.4753   10.0966 C   0  0  0  0  0  0  0  0  0  0  0  0
   -5.9855   -2.3124    8.9844 C   0  0  2  0  0  0  0  0  0  0  0  0
   -8.5865   -6.7555   10.0265 N   0  0  0  0  0  0  0  0  0  0  0  0
   -9.0601   -5.5383    9.6465 C   0  0  1  0  0  0  0  0  0  0  0  0
  -10.3951   -5.3696    9.4942 N   0  0  0  0  0  0  0  0  0  0  0  0
   -8.2254   -4.4874    9.4207 N   0  0  0  0  0  0  0  0  0  0  0  0
   -6.8770   -4.6026    9.5616 C   0  0  2  0  0  0  0  0  0  0  0  0
   -6.3384   -5.8170    9.9469 C   0  0  1  0  0  0  0  0  0  0  0  0
   -7.2600   -6.9563   10.1883 C   0  0  0  0  0  0  0  0  0  0  0  0
   -6.8204   -8.0761   10.5327 O   0  0  0  0  0  0  0  0  0  0  0  0
   -5.0031   -5.6729   10.0074 N   0  0  0  0  0  0  0  0  0  0  0  0
   -4.7172   -4.3929    9.6729 C   0  0  0  0  0  0  0  0  0  0  0  0
   -5.8621   -3.7403    9.4018 N   0  0  1  0  0  0  0  0  0  0  0  0
  1  2  1  0  0  0  0
  3  1  1  1  0  0  0
  3  4  1  0  0  0  0
  3  5  1  0  0  0  0
  5  6  1  6  0  0  0
  5  7  1  0  0  0  0
  7  8  1  0  0  0  0
  8  4  1  1  0  0  0
  8 19  1  0  0  0  0
  9 15  1  0  0  0  0
  9 10  1  0  0  0  0
 10 11  1  1  0  0  0
 10 12  1  0  0  0  0
 13 12  1  1  0  0  0
 13 14  1  0  0  0  0
 13 19  1  0  0  0  0
 14 15  1  6  0  0  0
 14 17  1  0  0  0  0
 15 16  2  0  0  0  0
 17 18  1  0  0  0  0
 19 18  1  6  0  0  0
M  END
>  <CHROM.1>
66.91183611,-170.60905958,-6.11294740,-3.55756508,9.79912811,-0.97941138
-0.02982124,-3.13878611

>  <Name>
ligand

>  <RI>
0

>  <Rbt.Current_Directory>
/home/itssahil/PROJECTS/Mol_Feturizer/New_Systems/rnas/3SKI

>  <Rbt.Executable>
rbdock ($Id: //depot/dev/client3/rdock/2013.1/src/exe/rbdock.cxx#4 $)

>  <Rbt.Library>
libRbt.so (2013.1, Build901 2013/11/27)

>  <Rbt.Parameter_File>
/export/apps/rDock/src/rDock_2013.1_src/data/scripts/dock_solv.prm

>  <Rbt.Receptor>
prm/pocket_docking_3.prm

>  <SCORE>
-16.1891

>  <SCORE.INTER>
-13.1739

>  <SCORE.INTER.CONST>
1

>  <SCORE.INTER.POLAR>
0

>  <SCORE.INTER.ROT>
2

>  <SCORE.INTER.SOLV>
13.781

>  <SCORE.INTER.VDW>
-18.3096

>  <SCORE.INTER.norm>
-0.693365

>  <SCORE.INTRA>
-3.02156

>  <SCORE.INTRA.DIHEDRAL>
-4.88383

>  <SCORE.INTRA.DIHEDRAL.0>
6.26853

>  <SCORE.INTRA.POLAR>
0

>  <SCORE.INTRA.POLAR.0>
0

>  <SCORE.INTRA.REPUL>
0

>  <SCORE.INTRA.REPUL.0>
0

>  <SCORE.INTRA.SOLV>
-0.264311

>  <SCORE.INTRA.SOLV.lig_0>
-38.4926

>  <SCORE.INTRA.VDW>
-0.447485

>  <SCORE.INTRA.VDW.0>
-0.59057

>  <SCORE.INTRA.norm>
-0.159029

>  <SCORE.RESTR>
0.00643435

>  <SCORE.RESTR.CAVITY>
0.00643435

>  <SCORE.RESTR.norm>
0.00033865

>  <SCORE.SYSTEM>
0

>  <SCORE.SYSTEM.CONST>
0

>  <SCORE.SYSTEM.DIHEDRAL>
0

>  <SCORE.SYSTEM.SOLV>
0

>  <SCORE.SYSTEM.norm>
0

>  <SCORE.heavy>
19

>  <SCORE.norm>
-0.852056

>  <RMSD>
5.858

$$$$
ligand
 OpenBabel11021811483D
libRbt.so/2013.1/901 2013/11/27
 19 21  0  0  0  0  0  0  0  0999 V2000
   -2.9967   -0.8387   10.1763 C   0  0  0  0  0  0  0  0  0  0  0  0
   -2.0003   -0.7569    9.1463 O   0  0  0  0  0  0  0  0  0  0  0  0
   -4.3942   -0.6488    9.5825 C   0  0  1  0  0  0  0  0  0  0  0  0
   -4.7281   -1.7418    8.7056 O   0  0  0  0  0  0  0  0  0  0  0  0
   -5.4504   -0.6110   10.6729 C   0  0  1  0  0  0  0  0  0  0  0  0
   -5.9050    0.7278   10.9064 O   0  0  0  0  0  0  0  0  0  0  0  0
   -6.5869   -1.4774   10.1752 C   0  0  0  0  0  0  0  0  0  0  0  0
   -6.0186   -2.2861    9.0182 C   0  0  2  0  0  0  0  0  0  0  0  0
   -8.5693   -6.7829    9.9489 N   0  0  0  0  0  0  0  0  0  0  0  0
   -9.0571   -5.5604    9.6058 C   0  0  1  0  0  0  0  0  0  0  0  0
  -10.3946   -5.4011    9.4653 N   0  0  0  0  0  0  0  0  0  0  0  0
   -8.2343   -4.4952    9.4051 N   0  0  0  0  0  0  0  0  0  0  0  0
   -6.8840   -4.6006    9.5356 C   0  0  2  0  0  0  0  0  0  0  0  0
   -6.3311   -5.8198    9.8837 C   0  0  1  0  0  0  0  0  0  0  0  0
   -7.2399   -6.9747   10.0979 C   0  0  0  0  0  0  0  0  0  0  0  0
   -6.7872   -8.0993   10.4084 O   0  0  0  0  0  0  0  0  0  0  0  0
   -4.9971   -5.6639    9.9412 N   0  0  0  0  0  0  0  0  0  0  0  0
   -4.7258   -4.3722    9.6413 C   0  0  0  0  0  0  0  0  0  0  0  0
   -5.8787   -3.7239    9.3947 N   0  0  1  0  0  0  0  0  0  0  0  0
  1  2  1  0  0  0  0
  3  1  1  1  0  0  0
  3  4  1  0  0  0  0
  3  5  1  0  0  0  0
  5  6  1  6  0  0  0
  5  7  1  0  0  0  0
  7  8  1  0  0  0  0
  8  4  1  1  0  0  0
  8 19  1  0  0  0  0
  9 15  1  0  0  0  0
  9 10  1  0  0  0  0
 10 11  1  1  0  0  0
 10 12  1  0  0  0  0
 13 12  1  1  0  0  0
 13 14  1  0  0  0  0
 13 19  1  0  0  0  0
 14 15  1  6  0  0  0
 14 17  1  0  0  0  0
 15 16  2  0  0  0  0
 17 18  1  0  0  0  0
 19 18  1  6  0  0  0
M  END
>  <CHROM.1>
66.05326296,-168.48292361,-6.11104837,-3.56020923,9.77587045,-0.98222274
-0.04809261,-3.11369664

>  <Name>
ligand

>  <RI>
0

>  <Rbt.Current_Directory>
/home/itssahil/PROJECTS/Mol_Feturizer/New_Systems/rnas/3SKI

>  <Rbt.Executable>
rbdock ($Id: //depot/dev/client3/rdock/2013.1/src/exe/rbdock.cxx#4 $)

>  <Rbt.Library>
libRbt.so (2013.1, Build901 2013/11/27)

>  <Rbt.Parameter_File>
/export/apps/rDock/src/rDock_2013.1_src/data/scripts/dock_solv.prm

>  <Rbt.Receptor>
prm/pocket_docking_3.prm

>  <SCORE>
-16.0857

>  <SCORE.INTER>
-13.0296

>  <SCORE.INTER.CONST>
1

>  <SCORE.INTER.POLAR>
0

>  <SCORE.INTER.ROT>
2

>  <SCORE.INTER.SOLV>
13.7184

>  <SCORE.INTER.VDW>
-18.1925

>  <SCORE.INTER.norm>
-0.685766

>  <SCORE.INTRA>
-3.05617

>  <SCORE.INTRA.DIHEDRAL>
-4.9218

>  <SCORE.INTRA.DIHEDRAL.0>
6.26853

>  <SCORE.INTRA.POLAR>
0

>  <SCORE.INTRA.POLAR.0>
0

>  <SCORE.INTRA.REPUL>
0

>  <SCORE.INTRA.REPUL.0>
0

>  <SCORE.INTRA.SOLV>
-0.26053

>  <SCORE.INTRA.SOLV.lig_0>
-38.4926

>  <SCORE.INTRA.VDW>
-0.465006

>  <SCORE.INTRA.VDW.0>
-0.59057

>  <SCORE.INTRA.norm>
-0.160851

>  <SCORE.RESTR>
1.64956e-05

>  <SCORE.RESTR.CAVITY>
1.64956e-05

>  <SCORE.RESTR.norm>
8.68191e-07

>  <SCORE.SYSTEM>
0

>  <SCORE.SYSTEM.CONST>
0

>  <SCORE.SYSTEM.DIHEDRAL>
0

>  <SCORE.SYSTEM.SOLV>
0

>  <SCORE.SYSTEM.norm>
0

>  <SCORE.heavy>
19

>  <SCORE.norm>
-0.846616

>  <RMSD>
5.865

$$$$
ligand
 OpenBabel11021811483D
libRbt.so/2013.1/901 2013/11/27
 19 21  0  0  0  0  0  0  0  0999 V2000
   -2.8512   -1.0852   10.2415 C   0  0  0  0  0  0  0  0  0  0  0  0
   -1.8156   -0.9022    9.2646 O   0  0  0  0  0  0  0  0  0  0  0  0
   -4.2190   -0.7639    9.6351 C   0  0  1  0  0  0  0  0  0  0  0  0
   -4.6113   -1.7823    8.6948 O   0  0  0  0  0  0  0  0  0  0  0  0
   -5.2923   -0.7076   10.7077 C   0  0  1  0  0  0  0  0  0  0  0  0
   -5.6554    0.6463   11.0055 O   0  0  0  0  0  0  0  0  0  0  0  0
   -6.4769   -1.4623   10.1446 C   0  0  0  0  0  0  0  0  0  0  0  0
   -5.9435   -2.2478    8.9555 C   0  0  2  0  0  0  0  0  0  0  0  0
   -8.7979   -6.6380    9.3706 N   0  0  0  0  0  0  0  0  0  0  0  0
   -9.1874   -5.3728    9.0577 C   0  0  1  0  0  0  0  0  0  0  0  0
  -10.4952   -5.1307    8.8026 N   0  0  0  0  0  0  0  0  0  0  0  0
   -8.2958   -4.3463    8.9995 N   0  0  0  0  0  0  0  0  0  0  0  0
   -6.9716   -4.5348    9.2491 C   0  0  2  0  0  0  0  0  0  0  0  0
   -6.5178   -5.8006    9.5732 C   0  0  1  0  0  0  0  0  0  0  0  0
   -7.5007   -6.9124    9.6314 C   0  0  0  0  0  0  0  0  0  0  0  0
   -7.1380   -8.0761    9.9146 O   0  0  0  0  0  0  0  0  0  0  0  0
   -5.1894   -5.7237    9.7646 N   0  0  0  0  0  0  0  0  0  0  0  0
   -4.8249   -4.4347    9.5698 C   0  0  0  0  0  0  0  0  0  0  0  0
   -5.9141   -3.7098    9.2560 N   0  0  1  0  0  0  0  0  0  0  0  0
  1  2  1  0  0  0  0
  3  1  1  1  0  0  0
  3  4  1  0  0  0  0
  3  5  1  0  0  0  0
  5  6  1  6  0  0  0
  5  7  1  0  0  0  0
  7  8  1  0  0  0  0
  8  4  1  1  0  0  0
  8 19  1  0  0  0  0
  9 15  1  0  0  0  0
  9 10  1  0  0  0  0
 10 11  1  1  0  0  0
 10 12  1  0  0  0  0
 13 12  1  1  0  0  0
 13 14  1  0  0  0  0
 13 19  1  0  0  0  0
 14 15  1  6  0  0  0
 14 17  1  0  0  0  0
 15 16  2  0  0  0  0
 17 18  1  0  0  0  0
 19 18  1  6  0  0  0
M  END
>  <CHROM.1>
71.31524980,-163.98539480,-6.13301993,-3.55589550,9.57876428,-0.92020026
0.02608647,-3.06220807

>  <Name>
ligand

>  <RI>
0

>  <Rbt.Current_Directory>
/home/itssahil/PROJECTS/Mol_Feturizer/New_Systems/rnas/3SKI

>  <Rbt.Executable>
rbdock ($Id: //depot/dev/client3/rdock/2013.1/src/exe/rbdock.cxx#4 $)

>  <Rbt.Library>
libRbt.so (2013.1, Build901 2013/11/27)

>  <Rbt.Parameter_File>
/export/apps/rDock/src/rDock_2013.1_src/data/scripts/dock_solv.prm

>  <Rbt.Receptor>
prm/blind_docking_20.prm

>  <SCORE>
-17.359

>  <SCORE.INTER>
-14.4219

>  <SCORE.INTER.CONST>
1

>  <SCORE.INTER.POLAR>
0

>  <SCORE.INTER.ROT>
2

>  <SCORE.INTER.SOLV>
13.8511

>  <SCORE.INTER.VDW>
-19.165

>  <SCORE.INTER.norm>
-0.759049

>  <SCORE.INTRA>
-2.93788

>  <SCORE.INTRA.DIHEDRAL>
-4.59868

>  <SCORE.INTRA.DIHEDRAL.0>
6.26853

>  <SCORE.INTRA.POLAR>
0

>  <SCORE.INTRA.POLAR.0>
0

>  <SCORE.INTRA.REPUL>
0

>  <SCORE.INTRA.REPUL.0>
0

>  <SCORE.INTRA.SOLV>
-0.278047

>  <SCORE.INTRA.SOLV.lig_0>
-38.4926

>  <SCORE.INTRA.VDW>
-0.499516

>  <SCORE.INTRA.VDW.0>
-0.59057

>  <SCORE.INTRA.norm>
-0.154625

>  <SCORE.RESTR>
0.000848771

>  <SCORE.RESTR.CAVITY>
0.000848771

>  <SCORE.RESTR.norm>
4.46722e-05

>  <SCORE.SYSTEM>
0

>  <SCORE.SYSTEM.CONST>
0

>  <SCORE.SYSTEM.DIHEDRAL>
0

>  <SCORE.SYSTEM.SOLV>
0

>  <SCORE.SYSTEM.norm>
0

>  <SCORE.heavy>
19

>  <SCORE.norm>
-0.91363

>  <RMSD>
5.867

$$$$
ligand
 OpenBabel11021811483D
libRbt.so/2013.1/901 2013/11/27
 19 21  0  0  0  0  0  0  0  0999 V2000
   -2.9776   -1.7491    9.9211 C   0  0  0  0  0  0  0  0  0  0  0  0
   -2.3814   -0.7627   10.7765 O   0  0  0  0  0  0  0  0  0  0  0  0
   -4.3633   -1.2896    9.4624 C   0  0  1  0  0  0  0  0  0  0  0  0
   -4.9732   -2.2802    8.6129 O   0  0  0  0  0  0  0  0  0  0  0  0
   -5.2904   -1.0839   10.6473 C   0  0  1  0  0  0  0  0  0  0  0  0
   -5.4645    0.3097   10.9320 O   0  0  0  0  0  0  0  0  0  0  0  0
   -6.6089   -1.7128   10.2521 C   0  0  0  0  0  0  0  0  0  0  0  0
   -6.3088   -2.5840    9.0412 C   0  0  2  0  0  0  0  0  0  0  0  0
   -9.5270   -6.7018    9.5708 N   0  0  0  0  0  0  0  0  0  0  0  0
   -9.8053   -5.4203    9.2092 C   0  0  1  0  0  0  0  0  0  0  0  0
  -11.0853   -5.0787    8.9288 N   0  0  0  0  0  0  0  0  0  0  0  0
   -8.8298   -4.4749    9.1271 N   0  0  0  0  0  0  0  0  0  0  0  0
   -7.5288   -4.7648    9.4004 C   0  0  2  0  0  0  0  0  0  0  0  0
   -7.1866   -6.0518    9.7741 C   0  0  1  0  0  0  0  0  0  0  0  0
   -8.2602   -7.0745    9.8579 C   0  0  0  0  0  0  0  0  0  0  0  0
   -7.9997   -8.2538   10.1859 O   0  0  0  0  0  0  0  0  0  0  0  0
   -5.8584   -6.0799    9.9800 N   0  0  0  0  0  0  0  0  0  0  0  0
   -5.3847   -4.8337    9.7455 C   0  0  0  0  0  0  0  0  0  0  0  0
   -6.4056   -4.0317    9.3925 N   0  0  1  0  0  0  0  0  0  0  0  0
  1  2  1  0  0  0  0
  3  1  1  1  0  0  0
  3  4  1  0  0  0  0
  3  5  1  0  0  0  0
  5  6  1  6  0  0  0
  5  7  1  0  0  0  0
  7  8  1  0  0  0  0
  8  4  1  1  0  0  0
  8 19  1  0  0  0  0
  9 15  1  0  0  0  0
  9 10  1  0  0  0  0
 10 11  1  1  0  0  0
 10 12  1  0  0  0  0
 13 12  1  1  0  0  0
 13 14  1  0  0  0  0
 13 19  1  0  0  0  0
 14 15  1  6  0  0  0
 14 17  1  0  0  0  0
 15 16  2  0  0  0  0
 17 18  1  0  0  0  0
 19 18  1  6  0  0  0
M  END
>  <CHROM.1>
-179.48228760,-156.48860652,-6.57718615,-3.81417313,9.74457073,-0.83869368
0.13562786,3.13953648

>  <Name>
ligand

>  <RI>
0

>  <Rbt.Current_Directory>
/home/itssahil/PROJECTS/Mol_Feturizer/New_Systems/rnas/3SKI

>  <Rbt.Executable>
rbdock ($Id: //depot/dev/client3/rdock/2013.1/src/exe/rbdock.cxx#4 $)

>  <Rbt.Library>
libRbt.so (2013.1, Build901 2013/11/27)

>  <Rbt.Parameter_File>
/export/apps/rDock/src/rDock_2013.1_src/data/scripts/dock_solv.prm

>  <Rbt.Receptor>
prm/pocket_docking_4.prm

>  <SCORE>
-15.7787

>  <SCORE.INTER>
-12.8208

>  <SCORE.INTER.CONST>
1

>  <SCORE.INTER.POLAR>
0

>  <SCORE.INTER.ROT>
2

>  <SCORE.INTER.SOLV>
14.2623

>  <SCORE.INTER.VDW>
-18.2346

>  <SCORE.INTER.norm>
-0.674778

>  <SCORE.INTRA>
-2.95807

>  <SCORE.INTRA.DIHEDRAL>
-5.04698

>  <SCORE.INTRA.DIHEDRAL.0>
6.26853

>  <SCORE.INTRA.POLAR>
0

>  <SCORE.INTRA.POLAR.0>
0

>  <SCORE.INTRA.REPUL>
0

>  <SCORE.INTRA.REPUL.0>
0

>  <SCORE.INTRA.SOLV>
-0.00678926

>  <SCORE.INTRA.SOLV.lig_0>
-38.4926

>  <SCORE.INTRA.VDW>
-0.431184

>  <SCORE.INTRA.VDW.0>
-0.59057

>  <SCORE.INTRA.norm>
-0.155688

>  <SCORE.RESTR>
0.000120392

>  <SCORE.RESTR.CAVITY>
0.000120392

>  <SCORE.RESTR.norm>
6.33643e-06

>  <SCORE.SYSTEM>
0

>  <SCORE.SYSTEM.CONST>
0

>  <SCORE.SYSTEM.DIHEDRAL>
0

>  <SCORE.SYSTEM.SOLV>
0

>  <SCORE.SYSTEM.norm>
0

>  <SCORE.heavy>
19

>  <SCORE.norm>
-0.830459

>  <RMSD>
5.885

$$$$
ligand
 OpenBabel11021811483D
libRbt.so/2013.1/901 2013/11/27
 19 21  0  0  0  0  0  0  0  0999 V2000
   -2.9171   -1.0220   10.2124 C   0  0  0  0  0  0  0  0  0  0  0  0
   -1.8895   -0.8715    9.2217 O   0  0  0  0  0  0  0  0  0  0  0  0
   -4.2925   -0.7483    9.5999 C   0  0  1  0  0  0  0  0  0  0  0  0
   -4.6573   -1.7940    8.6789 O   0  0  0  0  0  0  0  0  0  0  0  0
   -5.3676   -0.7001   10.6712 C   0  0  1  0  0  0  0  0  0  0  0  0
   -5.7662    0.6492   10.9435 O   0  0  0  0  0  0  0  0  0  0  0  0
   -6.5316   -1.4961   10.1222 C   0  0  0  0  0  0  0  0  0  0  0  0
   -5.9771   -2.2895    8.9481 C   0  0  2  0  0  0  0  0  0  0  0  0
   -8.6678   -6.7925    9.2225 N   0  0  0  0  0  0  0  0  0  0  0  0
   -9.0849   -5.5501    8.8582 C   0  0  1  0  0  0  0  0  0  0  0  0
  -10.3781   -5.3686    8.4999 N   0  0  0  0  0  0  0  0  0  0  0  0
   -8.2354   -4.4869    8.8500 N   0  0  0  0  0  0  0  0  0  0  0  0
   -6.9276   -4.6143    9.2031 C   0  0  2  0  0  0  0  0  0  0  0  0
   -6.4473   -5.8544    9.5835 C   0  0  1  0  0  0  0  0  0  0  0  0
   -7.3841   -7.0067    9.5864 C   0  0  0  0  0  0  0  0  0  0  0  0
   -6.9956   -8.1495    9.9170 O   0  0  0  0  0  0  0  0  0  0  0  0
   -5.1419   -5.7173    9.8743 N   0  0  0  0  0  0  0  0  0  0  0  0
   -4.8181   -4.4167    9.6849 C   0  0  0  0  0  0  0  0  0  0  0  0
   -5.9094   -3.7442    9.2760 N   0  0  1  0  0  0  0  0  0  0  0  0
  1  2  1  0  0  0  0
  3  1  1  1  0  0  0
  3  4  1  0  0  0  0
  3  5  1  0  0  0  0
  5  6  1  6  0  0  0
  5  7  1  0  0  0  0
  7  8  1  0  0  0  0
  8  4  1  1  0  0  0
  8 19  1  0  0  0  0
  9 15  1  0  0  0  0
  9 10  1  0  0  0  0
 10 11  1  1  0  0  0
 10 12  1  0  0  0  0
 13 12  1  1  0  0  0
 13 14  1  0  0  0  0
 13 19  1  0  0  0  0
 14 15  1  6  0  0  0
 14 17  1  0  0  0  0
 15 16  2  0  0  0  0
 17 18  1  0  0  0  0
 19 18  1  6  0  0  0
M  END
>  <CHROM.1>
69.49725182,-159.50666214,-6.11905549,-3.60626807,9.53198456,-0.95460531
0.07256177,-3.08133944

>  <Name>
ligand

>  <RI>
0

>  <Rbt.Current_Directory>
/home/itssahil/PROJECTS/Mol_Feturizer/New_Systems/rnas/3SKI

>  <Rbt.Executable>
rbdock ($Id: //depot/dev/client3/rdock/2013.1/src/exe/rbdock.cxx#4 $)

>  <Rbt.Library>
libRbt.so (2013.1, Build901 2013/11/27)

>  <Rbt.Parameter_File>
/export/apps/rDock/src/rDock_2013.1_src/data/scripts/dock_solv.prm

>  <Rbt.Receptor>
prm/pocket_docking_3.prm

>  <SCORE>
-17.0761

>  <SCORE.INTER>
-14.0646

>  <SCORE.INTER.CONST>
1

>  <SCORE.INTER.POLAR>
0

>  <SCORE.INTER.ROT>
2

>  <SCORE.INTER.SOLV>
13.6095

>  <SCORE.INTER.VDW>
-18.8462

>  <SCORE.INTER.norm>
-0.74024

>  <SCORE.INTRA>
-3.01153

>  <SCORE.INTRA.DIHEDRAL>
-4.72673

>  <SCORE.INTRA.DIHEDRAL.0>
6.26853

>  <SCORE.INTRA.POLAR>
0

>  <SCORE.INTRA.POLAR.0>
0

>  <SCORE.INTRA.REPUL>
0

>  <SCORE.INTRA.REPUL.0>
0

>  <SCORE.INTRA.SOLV>
-0.270495

>  <SCORE.INTRA.SOLV.lig_0>
-38.4926

>  <SCORE.INTRA.VDW>
-0.51292

>  <SCORE.INTRA.VDW.0>
-0.59057

>  <SCORE.INTRA.norm>
-0.158502

>  <SCORE.RESTR>
0

>  <SCORE.RESTR.CAVITY>
0

>  <SCORE.RESTR.norm>
0

>  <SCORE.SYSTEM>
0

>  <SCORE.SYSTEM.CONST>
0

>  <SCORE.SYSTEM.DIHEDRAL>
0

>  <SCORE.SYSTEM.SOLV>
0

>  <SCORE.SYSTEM.norm>
0

>  <SCORE.heavy>
19

>  <SCORE.norm>
-0.898741

>  <RMSD>
5.892

$$$$
ligand
 OpenBabel11021811483D
libRbt.so/2013.1/901 2013/11/27
 19 21  0  0  0  0  0  0  0  0999 V2000
   -2.9242   -1.0143   10.2098 C   0  0  0  0  0  0  0  0  0  0  0  0
   -1.8954   -0.8226    9.2274 O   0  0  0  0  0  0  0  0  0  0  0  0
   -4.3011   -0.7418    9.6001 C   0  0  1  0  0  0  0  0  0  0  0  0
   -4.6666   -1.7876    8.6794 O   0  0  0  0  0  0  0  0  0  0  0  0
   -5.3742   -0.6951   10.6735 C   0  0  1  0  0  0  0  0  0  0  0  0
   -5.7737    0.6537   10.9470 O   0  0  0  0  0  0  0  0  0  0  0  0
   -6.5384   -1.4921   10.1264 C   0  0  0  0  0  0  0  0  0  0  0  0
   -5.9853   -2.2845    8.9510 C   0  0  2  0  0  0  0  0  0  0  0  0
   -8.6695   -6.7916    9.2238 N   0  0  0  0  0  0  0  0  0  0  0  0
   -9.0885   -5.5496    8.8602 C   0  0  1  0  0  0  0  0  0  0  0  0
  -10.3821   -5.3698    8.5021 N   0  0  0  0  0  0  0  0  0  0  0  0
   -8.2406   -4.4851    8.8522 N   0  0  0  0  0  0  0  0  0  0  0  0
   -6.9325   -4.6108    9.2051 C   0  0  2  0  0  0  0  0  0  0  0  0
   -6.4503   -5.8504    9.5848 C   0  0  1  0  0  0  0  0  0  0  0  0
   -7.3855   -7.0041    9.5873 C   0  0  0  0  0  0  0  0  0  0  0  0
   -6.9953   -8.1464    9.9174 O   0  0  0  0  0  0  0  0  0  0  0  0
   -5.1451   -5.7115    9.8754 N   0  0  0  0  0  0  0  0  0  0  0  0
   -4.8231   -4.4104    9.6866 C   0  0  0  0  0  0  0  0  0  0  0  0
   -5.9155   -3.7393    9.2782 N   0  0  1  0  0  0  0  0  0  0  0  0
  1  2  1  0  0  0  0
  3  1  1  1  0  0  0
  3  4  1  0  0  0  0
  3  5  1  0  0  0  0
  5  6  1  6  0  0  0
  5  7  1  0  0  0  0
  7  8  1  0  0  0  0
  8  4  1  1  0  0  0
  8 19  1  0  0  0  0
  9 15  1  0  0  0  0
  9 10  1  0  0  0  0
 10 11  1  1  0  0  0
 10 12  1  0  0  0  0
 13 12  1  1  0  0  0
 13 14  1  0  0  0  0
 13 19  1  0  0  0  0
 14 15  1  6  0  0  0
 14 17  1  0  0  0  0
 15 16  2  0  0  0  0
 17 18  1  0  0  0  0
 19 18  1  6  0  0  0
M  END
>  <CHROM.1>
71.25272808,-159.40344815,-6.12425528,-3.59952696,9.53380551,-0.95594323
0.07269346,-3.08157733

>  <Name>
ligand

>  <RI>
0

>  <Rbt.Current_Directory>
/home/itssahil/PROJECTS/Mol_Feturizer/New_Systems/rnas/3SKI

>  <Rbt.Executable>
rbdock ($Id: //depot/dev/client3/rdock/2013.1/src/exe/rbdock.cxx#4 $)

>  <Rbt.Library>
libRbt.so (2013.1, Build901 2013/11/27)

>  <Rbt.Parameter_File>
/export/apps/rDock/src/rDock_2013.1_src/data/scripts/dock_solv.prm

>  <Rbt.Receptor>
prm/pocket_docking_3.prm

>  <SCORE>
-17.0582

>  <SCORE.INTER>
-14.1066

>  <SCORE.INTER.CONST>
1

>  <SCORE.INTER.POLAR>
0

>  <SCORE.INTER.ROT>
2

>  <SCORE.INTER.SOLV>
13.6084

>  <SCORE.INTER.VDW>
-18.8739

>  <SCORE.INTER.norm>
-0.742454

>  <SCORE.INTRA>
-2.95224

>  <SCORE.INTRA.DIHEDRAL>
-4.60089

>  <SCORE.INTRA.DIHEDRAL.0>
6.26853

>  <SCORE.INTRA.POLAR>
0

>  <SCORE.INTRA.POLAR.0>
0

>  <SCORE.INTRA.REPUL>
0

>  <SCORE.INTRA.REPUL.0>
0

>  <SCORE.INTRA.SOLV>
-0.276658

>  <SCORE.INTRA.SOLV.lig_0>
-38.4926

>  <SCORE.INTRA.VDW>
-0.513469

>  <SCORE.INTRA.VDW.0>
-0.59057

>  <SCORE.INTRA.norm>
-0.155381

>  <SCORE.RESTR>
0.000713895

>  <SCORE.RESTR.CAVITY>
0.000713895

>  <SCORE.RESTR.norm>
3.75734e-05

>  <SCORE.SYSTEM>
0

>  <SCORE.SYSTEM.CONST>
0

>  <SCORE.SYSTEM.DIHEDRAL>
0

>  <SCORE.SYSTEM.SOLV>
0

>  <SCORE.SYSTEM.norm>
0

>  <SCORE.heavy>
19

>  <SCORE.norm>
-0.897798

>  <RMSD>
5.894

$$$$
ligand
 OpenBabel11021811483D
libRbt.so/2013.1/901 2013/11/27
 19 21  0  0  0  0  0  0  0  0999 V2000
   -3.0724   -1.6240   10.0074 C   0  0  0  0  0  0  0  0  0  0  0  0
   -2.6647   -0.6396   10.9691 O   0  0  0  0  0  0  0  0  0  0  0  0
   -4.4421   -1.2662    9.4262 C   0  0  1  0  0  0  0  0  0  0  0  0
   -4.9408   -2.3366    8.6011 O   0  0  0  0  0  0  0  0  0  0  0  0
   -5.4610   -1.0392   10.5290 C   0  0  1  0  0  0  0  0  0  0  0  0
   -5.7221    0.3579   10.7123 O   0  0  0  0  0  0  0  0  0  0  0  0
   -6.7157   -1.7590   10.0847 C   0  0  0  0  0  0  0  0  0  0  0  0
   -6.2875   -2.6841    8.9549 C   0  0  2  0  0  0  0  0  0  0  0  0
   -9.3544   -6.8976    9.6137 N   0  0  0  0  0  0  0  0  0  0  0  0
   -9.6699   -5.6529    9.1648 C   0  0  1  0  0  0  0  0  0  0  0  0
  -10.9507   -5.3836    8.8168 N   0  0  0  0  0  0  0  0  0  0  0  0
   -8.7312   -4.6730    9.0618 N   0  0  0  0  0  0  0  0  0  0  0  0
   -7.4313   -4.8902    9.4003 C   0  0  2  0  0  0  0  0  0  0  0  0
   -7.0522   -6.1370    9.8640 C   0  0  1  0  0  0  0  0  0  0  0  0
   -8.0860   -7.1980    9.9698 C   0  0  0  0  0  0  0  0  0  0  0  0
   -7.7910   -8.3435   10.3783 O   0  0  0  0  0  0  0  0  0  0  0  0
   -5.7332   -6.0957   10.1205 N   0  0  0  0  0  0  0  0  0  0  0  0
   -5.3015   -4.8465    9.8284 C   0  0  0  0  0  0  0  0  0  0  0  0
   -6.3394   -4.1112    9.3896 N   0  0  1  0  0  0  0  0  0  0  0  0
  1  2  1  0  0  0  0
  3  1  1  1  0  0  0
  3  4  1  0  0  0  0
  3  5  1  0  0  0  0
  5  6  1  6  0  0  0
  5  7  1  0  0  0  0
  7  8  1  0  0  0  0
  8  4  1  1  0  0  0
  8 19  1  0  0  0  0
  9 15  1  0  0  0  0
  9 10  1  0  0  0  0
 10 11  1  1  0  0  0
 10 12  1  0  0  0  0
 13 12  1  1  0  0  0
 13 14  1  0  0  0  0
 13 19  1  0  0  0  0
 14 15  1  6  0  0  0
 14 17  1  0  0  0  0
 15 16  2  0  0  0  0
 17 18  1  0  0  0  0
 19 18  1  6  0  0  0
M  END
>  <CHROM.1>
-172.12053318,-158.39239454,-6.55701392,-3.87922846,9.74883931,-0.88731982
0.19198405,3.09028478

>  <Name>
ligand

>  <RI>
0

>  <Rbt.Current_Directory>
/home/itssahil/PROJECTS/Mol_Feturizer/New_Systems/rnas/3SKI

>  <Rbt.Executable>
rbdock ($Id: //depot/dev/client3/rdock/2013.1/src/exe/rbdock.cxx#4 $)

>  <Rbt.Library>
libRbt.so (2013.1, Build901 2013/11/27)

>  <Rbt.Parameter_File>
/export/apps/rDock/src/rDock_2013.1_src/data/scripts/dock_solv.prm

>  <Rbt.Receptor>
prm/pocket_docking_7.prm

>  <SCORE>
-15.5364

>  <SCORE.INTER>
-12.8065

>  <SCORE.INTER.CONST>
1

>  <SCORE.INTER.POLAR>
0

>  <SCORE.INTER.ROT>
2

>  <SCORE.INTER.SOLV>
13.6779

>  <SCORE.INTER.VDW>
-18.0303

>  <SCORE.INTER.norm>
-0.674028

>  <SCORE.INTRA>
-2.73263

>  <SCORE.INTRA.DIHEDRAL>
-4.82486

>  <SCORE.INTRA.DIHEDRAL.0>
6.26853

>  <SCORE.INTRA.POLAR>
0

>  <SCORE.INTRA.POLAR.0>
0

>  <SCORE.INTRA.REPUL>
0

>  <SCORE.INTRA.REPUL.0>
0

>  <SCORE.INTRA.SOLV>
0.0274589

>  <SCORE.INTRA.SOLV.lig_0>
-38.4926

>  <SCORE.INTRA.VDW>
-0.333928

>  <SCORE.INTRA.VDW.0>
-0.59057

>  <SCORE.INTRA.norm>
-0.143823

>  <SCORE.RESTR>
0.00275999

>  <SCORE.RESTR.CAVITY>
0.00275999

>  <SCORE.RESTR.norm>
0.000145263

>  <SCORE.SYSTEM>
0

>  <SCORE.SYSTEM.CONST>
0

>  <SCORE.SYSTEM.DIHEDRAL>
0

>  <SCORE.SYSTEM.SOLV>
0

>  <SCORE.SYSTEM.norm>
0

>  <SCORE.heavy>
19

>  <SCORE.norm>
-0.817706

>  <RMSD>
5.894

$$$$
ligand
 OpenBabel11021811483D
libRbt.so/2013.1/901 2013/11/27
 19 21  0  0  0  0  0  0  0  0999 V2000
  -10.3335   -5.2945    9.3374 C   0  0  0  0  0  0  0  0  0  0  0  0
  -10.2198   -5.8657   10.6492 O   0  0  0  0  0  0  0  0  0  0  0  0
  -10.0428   -6.3508    8.2689 C   0  0  1  0  0  0  0  0  0  0  0  0
   -8.7001   -6.8549    8.4029 O   0  0  0  0  0  0  0  0  0  0  0  0
  -10.9817   -7.5366    8.4036 C   0  0  1  0  0  0  0  0  0  0  0  0
  -11.9995   -7.5076    7.3952 O   0  0  0  0  0  0  0  0  0  0  0  0
  -10.1154   -8.7674    8.2468 C   0  0  0  0  0  0  0  0  0  0  0  0
   -8.6797   -8.2899    8.4094 C   0  0  2  0  0  0  0  0  0  0  0  0
   -6.3453   -6.9001   12.9052 N   0  0  0  0  0  0  0  0  0  0  0  0
   -6.7652   -6.1276   11.8674 C   0  0  1  0  0  0  0  0  0  0  0  0
   -6.5869   -4.7866   11.9306 N   0  0  0  0  0  0  0  0  0  0  0  0
   -7.3549   -6.6704   10.7675 N   0  0  0  0  0  0  0  0  0  0  0  0
   -7.5556   -8.0113   10.6526 C   0  0  2  0  0  0  0  0  0  0  0  0
   -7.1481   -8.8465   11.6771 C   0  0  1  0  0  0  0  0  0  0  0  0
   -6.5076   -8.2413   12.8726 C   0  0  0  0  0  0  0  0  0  0  0  0
   -6.1273   -8.9546   13.8278 O   0  0  0  0  0  0  0  0  0  0  0  0
   -7.4605  -10.1066   11.3280 N   0  0  0  0  0  0  0  0  0  0  0  0
   -8.0447  -10.0571   10.1080 C   0  0  0  0  0  0  0  0  0  0  0  0
   -8.1014   -8.7773    9.6964 N   0  0  1  0  0  0  0  0  0  0  0  0
  1  2  1  0  0  0  0
  3  1  1  1  0  0  0
  3  4  1  0  0  0  0
  3  5  1  0  0  0  0
  5  6  1  6  0  0  0
  5  7  1  0  0  0  0
  7  8  1  0  0  0  0
  8  4  1  1  0  0  0
  8 19  1  0  0  0  0
  9 15  1  0  0  0  0
  9 10  1  0  0  0  0
 10 11  1  6  0  0  0
 10 12  1  0  0  0  0
 13 12  1  6  0  0  0
 13 14  1  0  0  0  0
 13 19  1  0  0  0  0
 14 15  1  1  0  0  0
 14 17  1  0  0  0  0
 15 16  2  0  0  0  0
 17 18  1  0  0  0  0
 19 18  1  1  0  0  0
M  END
>  <CHROM.1>
-61.27406473,-6.26452600,-8.42681039,-7.54358071,10.32745877,3.12275509,0.82208900
-2.95993822

>  <Name>
ligand

>  <RI>
0

>  <Rbt.Current_Directory>
/home/itssahil/PROJECTS/Mol_Feturizer/New_Systems/rnas/3SKI

>  <Rbt.Executable>
rbdock ($Id: //depot/dev/client3/rdock/2013.1/src/exe/rbdock.cxx#4 $)

>  <Rbt.Library>
libRbt.so (2013.1, Build901 2013/11/27)

>  <Rbt.Parameter_File>
/export/apps/rDock/src/rDock_2013.1_src/data/scripts/dock_solv.prm

>  <Rbt.Receptor>
prm/pocket_docking_4.prm

>  <SCORE>
-13.5144

>  <SCORE.INTER>
-10.4746

>  <SCORE.INTER.CONST>
1

>  <SCORE.INTER.POLAR>
0

>  <SCORE.INTER.ROT>
2

>  <SCORE.INTER.SOLV>
10.8232

>  <SCORE.INTER.VDW>
-15.5241

>  <SCORE.INTER.norm>
-0.551293

>  <SCORE.INTRA>
-3.04466

>  <SCORE.INTRA.DIHEDRAL>
-5.05392

>  <SCORE.INTRA.DIHEDRAL.0>
6.26853

>  <SCORE.INTRA.POLAR>
0

>  <SCORE.INTRA.POLAR.0>
0

>  <SCORE.INTRA.REPUL>
0

>  <SCORE.INTRA.REPUL.0>
0

>  <SCORE.INTRA.SOLV>
0.965529

>  <SCORE.INTRA.SOLV.lig_0>
-38.4926

>  <SCORE.INTRA.VDW>
-1.00046

>  <SCORE.INTRA.VDW.0>
-0.59057

>  <SCORE.INTRA.norm>
-0.160245

>  <SCORE.RESTR>
0.0048054

>  <SCORE.RESTR.CAVITY>
0.0048054

>  <SCORE.RESTR.norm>
0.000252916

>  <SCORE.SYSTEM>
0

>  <SCORE.SYSTEM.CONST>
0

>  <SCORE.SYSTEM.DIHEDRAL>
0

>  <SCORE.SYSTEM.SOLV>
0

>  <SCORE.SYSTEM.norm>
0

>  <SCORE.heavy>
19

>  <SCORE.norm>
-0.711285

>  <RMSD>
5.896

$$$$
ligand
 OpenBabel11021811483D
libRbt.so/2013.1/901 2013/11/27
 19 21  0  0  0  0  0  0  0  0999 V2000
   -7.9689   -9.4019   11.2729 C   0  0  0  0  0  0  0  0  0  0  0  0
   -8.2715  -10.4478   10.3376 O   0  0  0  0  0  0  0  0  0  0  0  0
   -6.6836   -8.6779   10.8657 C   0  0  1  0  0  0  0  0  0  0  0  0
   -6.8467   -8.0289    9.5901 O   0  0  0  0  0  0  0  0  0  0  0  0
   -6.3210   -7.6008   11.8728 C   0  0  1  0  0  0  0  0  0  0  0  0
   -5.2358   -8.0196   12.7097 O   0  0  0  0  0  0  0  0  0  0  0  0
   -5.9238   -6.3905   11.0559 C   0  0  0  0  0  0  0  0  0  0  0  0
   -6.4230   -6.6588    9.6437 C   0  0  2  0  0  0  0  0  0  0  0  0
  -11.2573   -6.4066    7.6044 N   0  0  0  0  0  0  0  0  0  0  0  0
  -10.4332   -7.4774    7.7605 C   0  0  1  0  0  0  0  0  0  0  0  0
  -10.8540   -8.6973    7.3499 N   0  0  0  0  0  0  0  0  0  0  0  0
   -9.1966   -7.3506    8.3144 N   0  0  0  0  0  0  0  0  0  0  0  0
   -8.7246   -6.1478    8.7412 C   0  0  2  0  0  0  0  0  0  0  0  0
   -9.5188   -5.0233    8.6071 C   0  0  1  0  0  0  0  0  0  0  0  0
  -10.8668   -5.1757    8.0028 C   0  0  0  0  0  0  0  0  0  0  0  0
  -11.6244   -4.1892    7.8655 O   0  0  0  0  0  0  0  0  0  0  0  0
   -8.8355   -3.9770    9.1026 N   0  0  0  0  0  0  0  0  0  0  0  0
   -7.6377   -4.4400    9.5304 C   0  0  0  0  0  0  0  0  0  0  0  0
   -7.5709   -5.7654    9.3084 N   0  0  1  0  0  0  0  0  0  0  0  0
  1  2  1  0  0  0  0
  3  1  1  1  0  0  0
  3  4  1  0  0  0  0
  3  5  1  0  0  0  0
  5  6  1  6  0  0  0
  5  7  1  0  0  0  0
  7  8  1  0  0  0  0
  8  4  1  1  0  0  0
  8 19  1  0  0  0  0
  9 15  1  0  0  0  0
  9 10  1  0  0  0  0
 10 11  1  6  0  0  0
 10 12  1  0  0  0  0
 13 12  1  6  0  0  0
 13 14  1  0  0  0  0
 13 19  1  0  0  0  0
 14 15  1  1  0  0  0
 14 17  1  0  0  0  0
 15 16  2  0  0  0  0
 17 18  1  0  0  0  0
 19 18  1  1  0  0  0
M  END
>  <CHROM.1>
63.16677346,-14.58824769,-8.40151113,-6.89727780,9.49006948,0.52349674,0.62723952
3.02326125

>  <Name>
ligand

>  <RI>
0

>  <Rbt.Current_Directory>
/home/itssahil/PROJECTS/Mol_Feturizer/New_Systems/rnas/3SKI

>  <Rbt.Executable>
rbdock ($Id: //depot/dev/client3/rdock/2013.1/src/exe/rbdock.cxx#4 $)

>  <Rbt.Library>
libRbt.so (2013.1, Build901 2013/11/27)

>  <Rbt.Parameter_File>
/export/apps/rDock/src/rDock_2013.1_src/data/scripts/dock_solv.prm

>  <Rbt.Receptor>
prm/pocket_docking_6.prm

>  <SCORE>
-13.3813

>  <SCORE.INTER>
-10.2481

>  <SCORE.INTER.CONST>
1

>  <SCORE.INTER.POLAR>
0

>  <SCORE.INTER.ROT>
2

>  <SCORE.INTER.SOLV>
10.0155

>  <SCORE.INTER.VDW>
-15.1039

>  <SCORE.INTER.norm>
-0.539374

>  <SCORE.INTRA>
-3.13319

>  <SCORE.INTRA.DIHEDRAL>
-5.01521

>  <SCORE.INTRA.DIHEDRAL.0>
6.26853

>  <SCORE.INTRA.POLAR>
0

>  <SCORE.INTRA.POLAR.0>
0

>  <SCORE.INTRA.REPUL>
0

>  <SCORE.INTRA.REPUL.0>
0

>  <SCORE.INTRA.SOLV>
-0.16806

>  <SCORE.INTRA.SOLV.lig_0>
-38.4926

>  <SCORE.INTRA.VDW>
-0.541552

>  <SCORE.INTRA.VDW.0>
-0.59057

>  <SCORE.INTRA.norm>
-0.164905

>  <SCORE.RESTR>
0

>  <SCORE.RESTR.CAVITY>
0

>  <SCORE.RESTR.norm>
0

>  <SCORE.SYSTEM>
0

>  <SCORE.SYSTEM.CONST>
0

>  <SCORE.SYSTEM.DIHEDRAL>
0

>  <SCORE.SYSTEM.SOLV>
0

>  <SCORE.SYSTEM.norm>
0

>  <SCORE.heavy>
19

>  <SCORE.norm>
-0.704278

>  <RMSD>
5.903

$$$$
ligand
 OpenBabel11021811483D
libRbt.so/2013.1/901 2013/11/27
 19 21  0  0  0  0  0  0  0  0999 V2000
   -7.9707   -9.5283   11.3397 C   0  0  0  0  0  0  0  0  0  0  0  0
   -7.7297  -10.5617   10.3731 O   0  0  0  0  0  0  0  0  0  0  0  0
   -6.7692   -8.5840   11.4214 C   0  0  1  0  0  0  0  0  0  0  0  0
   -6.5959   -7.8715   10.1815 O   0  0  0  0  0  0  0  0  0  0  0  0
   -6.9645   -7.5449   12.5113 C   0  0  1  0  0  0  0  0  0  0  0  0
   -6.1757   -7.8533   13.6673 O   0  0  0  0  0  0  0  0  0  0  0  0
   -6.5274   -6.2280   11.9074 C   0  0  0  0  0  0  0  0  0  0  0  0
   -6.4594   -6.4605   10.4052 C   0  0  2  0  0  0  0  0  0  0  0  0
  -10.5863   -6.9168    7.1874 N   0  0  0  0  0  0  0  0  0  0  0  0
   -9.7325   -7.8700    7.6486 C   0  0  1  0  0  0  0  0  0  0  0  0
   -9.9098   -9.1555    7.2613 N   0  0  0  0  0  0  0  0  0  0  0  0
   -8.7040   -7.5615    8.4847 N   0  0  0  0  0  0  0  0  0  0  0  0
   -8.4802   -6.2859    8.9021 C   0  0  2  0  0  0  0  0  0  0  0  0
   -9.3163   -5.2745    8.4647 C   0  0  1  0  0  0  0  0  0  0  0  0
  -10.4360   -5.6248    7.5541 C   0  0  0  0  0  0  0  0  0  0  0  0
  -11.2227   -4.7460    7.1359 O   0  0  0  0  0  0  0  0  0  0  0  0
   -8.8926   -4.1244    9.0169 N   0  0  0  0  0  0  0  0  0  0  0  0
   -7.8108   -4.4133    9.7774 C   0  0  0  0  0  0  0  0  0  0  0  0
   -7.5596   -5.7332    9.7058 N   0  0  1  0  0  0  0  0  0  0  0  0
  1  2  1  0  0  0  0
  3  1  1  6  0  0  0
  3  4  1  0  0  0  0
  3  5  1  0  0  0  0
  5  6  1  1  0  0  0
  5  7  1  0  0  0  0
  7  8  1  0  0  0  0
  8  4  1  1  0  0  0
  8 19  1  0  0  0  0
  9 15  1  0  0  0  0
  9 10  1  0  0  0  0
 10 11  1  6  0  0  0
 10 12  1  0  0  0  0
 13 12  1  6  0  0  0
 13 14  1  0  0  0  0
 13 19  1  0  0  0  0
 14 15  1  1  0  0  0
 14 17  1  0  0  0  0
 15 16  2  0  0  0  0
 17 18  1  0  0  0  0
 19 18  1  1  0  0  0
M  END
>  <CHROM.1>
65.26242375,-4.85972431,-8.28138363,-7.02403346,9.67439852,0.40119335,0.89888633
3.12017472

>  <Name>
ligand

>  <RI>
0

>  <Rbt.Current_Directory>
/home/itssahil/PROJECTS/Mol_Feturizer/New_Systems/rnas/3SKI

>  <Rbt.Executable>
rbdock ($Id: //depot/dev/client3/rdock/2013.1/src/exe/rbdock.cxx#4 $)

>  <Rbt.Library>
libRbt.so (2013.1, Build901 2013/11/27)

>  <Rbt.Parameter_File>
/export/apps/rDock/src/rDock_2013.1_src/data/scripts/dock_solv.prm

>  <Rbt.Receptor>
prm/pocket_docking_6.prm

>  <SCORE>
-13.6582

>  <SCORE.INTER>
-10.6025

>  <SCORE.INTER.CONST>
1

>  <SCORE.INTER.POLAR>
0

>  <SCORE.INTER.ROT>
2

>  <SCORE.INTER.SOLV>
13.4141

>  <SCORE.INTER.VDW>
-16.473

>  <SCORE.INTER.norm>
-0.558026

>  <SCORE.INTRA>
-3.05574

>  <SCORE.INTRA.DIHEDRAL>
-4.95931

>  <SCORE.INTRA.DIHEDRAL.0>
6.26853

>  <SCORE.INTRA.POLAR>
0

>  <SCORE.INTRA.POLAR.0>
0

>  <SCORE.INTRA.REPUL>
0

>  <SCORE.INTRA.REPUL.0>
0

>  <SCORE.INTRA.SOLV>
0.364315

>  <SCORE.INTRA.SOLV.lig_0>
-38.4926

>  <SCORE.INTRA.VDW>
-0.75824

>  <SCORE.INTRA.VDW.0>
-0.59057

>  <SCORE.INTRA.norm>
-0.160828

>  <SCORE.RESTR>
0

>  <SCORE.RESTR.CAVITY>
0

>  <SCORE.RESTR.norm>
0

>  <SCORE.SYSTEM>
0

>  <SCORE.SYSTEM.CONST>
0

>  <SCORE.SYSTEM.DIHEDRAL>
0

>  <SCORE.SYSTEM.SOLV>
0

>  <SCORE.SYSTEM.norm>
0

>  <SCORE.heavy>
19

>  <SCORE.norm>
-0.718855

>  <RMSD>
5.904

$$$$
ligand
 OpenBabel11021811483D
libRbt.so/2013.1/901 2013/11/27
 19 21  0  0  0  0  0  0  0  0999 V2000
   -7.8819   -9.6165   11.3717 C   0  0  0  0  0  0  0  0  0  0  0  0
   -7.5620  -10.5959   10.3724 O   0  0  0  0  0  0  0  0  0  0  0  0
   -6.7222   -8.6332   11.5449 C   0  0  1  0  0  0  0  0  0  0  0  0
   -6.4826   -7.9077   10.3238 O   0  0  0  0  0  0  0  0  0  0  0  0
   -7.0318   -7.6078   12.6214 C   0  0  1  0  0  0  0  0  0  0  0  0
   -6.3199   -7.8969   13.8310 O   0  0  0  0  0  0  0  0  0  0  0  0
   -6.5963   -6.2734   12.0561 C   0  0  0  0  0  0  0  0  0  0  0  0
   -6.4106   -6.4943   10.5620 C   0  0  2  0  0  0  0  0  0  0  0  0
  -10.4126   -7.0990    7.2136 N   0  0  0  0  0  0  0  0  0  0  0  0
   -9.5806   -8.0302    7.7530 C   0  0  1  0  0  0  0  0  0  0  0  0
   -9.7476   -9.3327    7.4220 N   0  0  0  0  0  0  0  0  0  0  0  0
   -8.5838   -7.6833    8.6121 N   0  0  0  0  0  0  0  0  0  0  0  0
   -8.3716   -6.3894    8.9756 C   0  0  2  0  0  0  0  0  0  0  0  0
   -9.1865   -5.3989    8.4578 C   0  0  1  0  0  0  0  0  0  0  0  0
  -10.2717   -5.7910    7.5228 C   0  0  0  0  0  0  0  0  0  0  0  0
  -11.0386   -4.9322    7.0326 O   0  0  0  0  0  0  0  0  0  0  0  0
   -8.7801   -4.2240    8.9695 N   0  0  0  0  0  0  0  0  0  0  0  0
   -7.7294   -4.4776    9.7842 C   0  0  0  0  0  0  0  0  0  0  0  0
   -7.4804   -5.7999    9.7864 N   0  0  1  0  0  0  0  0  0  0  0  0
  1  2  1  0  0  0  0
  3  1  1  6  0  0  0
  3  4  1  0  0  0  0
  3  5  1  0  0  0  0
  5  6  1  1  0  0  0
  5  7  1  0  0  0  0
  7  8  1  0  0  0  0
  8  4  1  1  0  0  0
  8 19  1  0  0  0  0
  9 15  1  0  0  0  0
  9 10  1  0  0  0  0
 10 11  1  6  0  0  0
 10 12  1  0  0  0  0
 13 12  1  6  0  0  0
 13 14  1  0  0  0  0
 13 19  1  0  0  0  0
 14 15  1  1  0  0  0
 14 17  1  0  0  0  0
 15 16  2  0  0  0  0
 17 18  1  0  0  0  0
 19 18  1  1  0  0  0
M  END
>  <CHROM.1>
62.35133973,-0.64833784,-8.19525362,-7.12003184,9.74129965,0.39240625,0.93417194
3.11524751

>  <Name>
ligand

>  <RI>
0

>  <Rbt.Current_Directory>
/home/itssahil/PROJECTS/Mol_Feturizer/New_Systems/rnas/3SKI

>  <Rbt.Executable>
rbdock ($Id: //depot/dev/client3/rdock/2013.1/src/exe/rbdock.cxx#4 $)

>  <Rbt.Library>
libRbt.so (2013.1, Build901 2013/11/27)

>  <Rbt.Parameter_File>
/export/apps/rDock/src/rDock_2013.1_src/data/scripts/dock_solv.prm

>  <Rbt.Receptor>
prm/pocket_docking_4.prm

>  <SCORE>
-13.2401

>  <SCORE.INTER>
-10.2445

>  <SCORE.INTER.CONST>
1

>  <SCORE.INTER.POLAR>
0

>  <SCORE.INTER.ROT>
2

>  <SCORE.INTER.SOLV>
14.2939

>  <SCORE.INTER.VDW>
-16.5277

>  <SCORE.INTER.norm>
-0.539186

>  <SCORE.INTRA>
-2.99558

>  <SCORE.INTRA.DIHEDRAL>
-5.04389

>  <SCORE.INTRA.DIHEDRAL.0>
6.26853

>  <SCORE.INTRA.POLAR>
0

>  <SCORE.INTRA.POLAR.0>
0

>  <SCORE.INTRA.REPUL>
0

>  <SCORE.INTRA.REPUL.0>
0

>  <SCORE.INTRA.SOLV>
0.768274

>  <SCORE.INTRA.SOLV.lig_0>
-38.4926

>  <SCORE.INTRA.VDW>
-0.857775

>  <SCORE.INTRA.VDW.0>
-0.59057

>  <SCORE.INTRA.norm>
-0.157662

>  <SCORE.RESTR>
0

>  <SCORE.RESTR.CAVITY>
0

>  <SCORE.RESTR.norm>
0

>  <SCORE.SYSTEM>
0

>  <SCORE.SYSTEM.CONST>
0

>  <SCORE.SYSTEM.DIHEDRAL>
0

>  <SCORE.SYSTEM.SOLV>
0

>  <SCORE.SYSTEM.norm>
0

>  <SCORE.heavy>
19

>  <SCORE.norm>
-0.696848

>  <RMSD>
5.913

$$$$
ligand
 OpenBabel11021811483D
libRbt.so/2013.1/901 2013/11/27
 19 21  0  0  0  0  0  0  0  0999 V2000
   -3.0658   -1.7823    9.9121 C   0  0  0  0  0  0  0  0  0  0  0  0
   -2.4735   -0.7436   10.7061 O   0  0  0  0  0  0  0  0  0  0  0  0
   -4.4511   -1.3548    9.4224 C   0  0  1  0  0  0  0  0  0  0  0  0
   -5.0398   -2.3806    8.6001 O   0  0  0  0  0  0  0  0  0  0  0  0
   -5.3944   -1.1201   10.5890 C   0  0  1  0  0  0  0  0  0  0  0  0
   -5.5875    0.2803   10.8243 O   0  0  0  0  0  0  0  0  0  0  0  0
   -6.7010   -1.7772   10.2005 C   0  0  0  0  0  0  0  0  0  0  0  0
   -6.3768   -2.6854    9.0233 C   0  0  2  0  0  0  0  0  0  0  0  0
   -9.5332   -6.8513    9.5481 N   0  0  0  0  0  0  0  0  0  0  0  0
   -9.8193   -5.5900    9.1268 C   0  0  1  0  0  0  0  0  0  0  0  0
  -11.0908   -5.2868    8.7728 N   0  0  0  0  0  0  0  0  0  0  0  0
   -8.8603   -4.6269    9.0571 N   0  0  0  0  0  0  0  0  0  0  0  0
   -7.5686   -4.8782    9.4031 C   0  0  2  0  0  0  0  0  0  0  0  0
   -7.2191   -6.1433    9.8398 C   0  0  1  0  0  0  0  0  0  0  0  0
   -8.2746   -7.1857    9.9093 C   0  0  0  0  0  0  0  0  0  0  0  0
   -8.0067   -8.3465   10.2925 O   0  0  0  0  0  0  0  0  0  0  0  0
   -5.9023   -6.1348   10.1103 N   0  0  0  0  0  0  0  0  0  0  0  0
   -5.4429   -4.8877    9.8533 C   0  0  0  0  0  0  0  0  0  0  0  0
   -6.4615   -4.1213    9.4224 N   0  0  1  0  0  0  0  0  0  0  0  0
  1  2  1  0  0  0  0
  3  1  1  1  0  0  0
  3  4  1  0  0  0  0
  3  5  1  0  0  0  0
  5  6  1  6  0  0  0
  5  7  1  0  0  0  0
  7  8  1  0  0  0  0
  8  4  1  1  0  0  0
  8 19  1  0  0  0  0
  9 15  1  0  0  0  0
  9 10  1  0  0  0  0
 10 11  1  1  0  0  0
 10 12  1  0  0  0  0
 13 12  1  1  0  0  0
 13 14  1  0  0  0  0
 13 19  1  0  0  0  0
 14 15  1  6  0  0  0
 14 17  1  0  0  0  0
 15 16  2  0  0  0  0
 17 18  1  0  0  0  0
 19 18  1  6  0  0  0
M  END
>  <CHROM.1>
178.72923288,-154.29348890,-6.63242853,-3.90188539,9.73229726,-0.85102551
0.17265041,3.10064218

>  <Name>
ligand

>  <RI>
0

>  <Rbt.Current_Directory>
/home/itssahil/PROJECTS/Mol_Feturizer/New_Systems/rnas/3SKI

>  <Rbt.Executable>
rbdock ($Id: //depot/dev/client3/rdock/2013.1/src/exe/rbdock.cxx#4 $)

>  <Rbt.Library>
libRbt.so (2013.1, Build901 2013/11/27)

>  <Rbt.Parameter_File>
/export/apps/rDock/src/rDock_2013.1_src/data/scripts/dock_solv.prm

>  <Rbt.Receptor>
prm/pocket_docking_4.prm

>  <SCORE>
-15.7138

>  <SCORE.INTER>
-12.7268

>  <SCORE.INTER.CONST>
1

>  <SCORE.INTER.POLAR>
0

>  <SCORE.INTER.ROT>
2

>  <SCORE.INTER.SOLV>
13.5187

>  <SCORE.INTER.VDW>
-17.9241

>  <SCORE.INTER.norm>
-0.669831

>  <SCORE.INTRA>
-2.98704

>  <SCORE.INTRA.DIHEDRAL>
-5.04212

>  <SCORE.INTRA.DIHEDRAL.0>
6.26853

>  <SCORE.INTRA.POLAR>
0

>  <SCORE.INTRA.POLAR.0>
0

>  <SCORE.INTRA.REPUL>
0

>  <SCORE.INTRA.REPUL.0>
0

>  <SCORE.INTRA.SOLV>
-0.015127

>  <SCORE.INTRA.SOLV.lig_0>
-38.4926

>  <SCORE.INTRA.VDW>
-0.458416

>  <SCORE.INTRA.VDW.0>
-0.59057

>  <SCORE.INTRA.norm>
-0.157213

>  <SCORE.RESTR>
7.70061e-05

>  <SCORE.RESTR.CAVITY>
7.70061e-05

>  <SCORE.RESTR.norm>
4.05295e-06

>  <SCORE.SYSTEM>
0

>  <SCORE.SYSTEM.CONST>
0

>  <SCORE.SYSTEM.DIHEDRAL>
0

>  <SCORE.SYSTEM.SOLV>
0

>  <SCORE.SYSTEM.norm>
0

>  <SCORE.heavy>
19

>  <SCORE.norm>
-0.82704

>  <RMSD>
5.915

$$$$
ligand
 OpenBabel11021811483D
libRbt.so/2013.1/901 2013/11/27
 19 21  0  0  0  0  0  0  0  0999 V2000
  -10.2439   -5.2858    9.2755 C   0  0  0  0  0  0  0  0  0  0  0  0
   -9.3274   -4.1953    9.0992 O   0  0  0  0  0  0  0  0  0  0  0  0
   -9.9888   -6.3714    8.2276 C   0  0  1  0  0  0  0  0  0  0  0  0
   -8.6566   -6.9035    8.3591 O   0  0  0  0  0  0  0  0  0  0  0  0
  -10.9532   -7.5320    8.3977 C   0  0  1  0  0  0  0  0  0  0  0  0
  -11.9806   -7.5013    7.3992 O   0  0  0  0  0  0  0  0  0  0  0  0
  -10.1169   -8.7856    8.2593 C   0  0  0  0  0  0  0  0  0  0  0  0
   -8.6691   -8.3381    8.3969 C   0  0  2  0  0  0  0  0  0  0  0  0
   -6.3624   -6.8934   12.8897 N   0  0  0  0  0  0  0  0  0  0  0  0
   -6.7884   -6.1323   11.8459 C   0  0  1  0  0  0  0  0  0  0  0  0
   -6.6256   -4.7890   11.9011 N   0  0  0  0  0  0  0  0  0  0  0  0
   -7.3690   -6.6887   10.7480 N   0  0  0  0  0  0  0  0  0  0  0  0
   -7.5540   -8.0325   10.6411 C   0  0  2  0  0  0  0  0  0  0  0  0
   -7.1396   -8.8566   11.6719 C   0  0  1  0  0  0  0  0  0  0  0  0
   -6.5092   -8.2365   12.8651 C   0  0  0  0  0  0  0  0  0  0  0  0
   -6.1232   -8.9394   13.8258 O   0  0  0  0  0  0  0  0  0  0  0  0
   -7.4367  -10.1223   11.3300 N   0  0  0  0  0  0  0  0  0  0  0  0
   -8.0182  -10.0872   10.1082 C   0  0  0  0  0  0  0  0  0  0  0  0
   -8.0885   -8.8108    9.6884 N   0  0  1  0  0  0  0  0  0  0  0  0
  1  2  1  0  0  0  0
  3  1  1  1  0  0  0
  3  4  1  0  0  0  0
  3  5  1  0  0  0  0
  5  6  1  6  0  0  0
  5  7  1  0  0  0  0
  7  8  1  0  0  0  0
  8  4  1  1  0  0  0
  8 19  1  0  0  0  0
  9 15  1  0  0  0  0
  9 10  1  0  0  0  0
 10 11  1  6  0  0  0
 10 12  1  0  0  0  0
 13 12  1  6  0  0  0
 13 14  1  0  0  0  0
 13 19  1  0  0  0  0
 14 15  1  1  0  0  0
 14 17  1  0  0  0  0
 15 16  2  0  0  0  0
 17 18  1  0  0  0  0
 19 18  1  1  0  0  0
M  END
>  <CHROM.1>
61.23703184,-3.97525804,-8.35994446,-7.45284564,10.21844284,-2.97880498,0.84626028
-3.11275089

>  <Name>
ligand

>  <RI>
0

>  <Rbt.Current_Directory>
/home/itssahil/PROJECTS/Mol_Feturizer/New_Systems/rnas/3SKI

>  <Rbt.Executable>
rbdock ($Id: //depot/dev/client3/rdock/2013.1/src/exe/rbdock.cxx#4 $)

>  <Rbt.Library>
libRbt.so (2013.1, Build901 2013/11/27)

>  <Rbt.Parameter_File>
/export/apps/rDock/src/rDock_2013.1_src/data/scripts/dock_solv.prm

>  <Rbt.Receptor>
prm/pocket_docking_4.prm

>  <SCORE>
-13.3459

>  <SCORE.INTER>
-10.3305

>  <SCORE.INTER.CONST>
1

>  <SCORE.INTER.POLAR>
0

>  <SCORE.INTER.ROT>
2

>  <SCORE.INTER.SOLV>
11.015

>  <SCORE.INTER.VDW>
-15.492

>  <SCORE.INTER.norm>
-0.543709

>  <SCORE.INTRA>
-3.01623

>  <SCORE.INTRA.DIHEDRAL>
-5.05551

>  <SCORE.INTRA.DIHEDRAL.0>
6.26853

>  <SCORE.INTRA.POLAR>
0

>  <SCORE.INTRA.POLAR.0>
0

>  <SCORE.INTRA.REPUL>
0

>  <SCORE.INTRA.REPUL.0>
0

>  <SCORE.INTRA.SOLV>
0.565445

>  <SCORE.INTRA.SOLV.lig_0>
-38.4926

>  <SCORE.INTRA.VDW>
-0.771199

>  <SCORE.INTRA.VDW.0>
-0.59057

>  <SCORE.INTRA.norm>
-0.158749

>  <SCORE.RESTR>
0.000817517

>  <SCORE.RESTR.CAVITY>
0.000817517

>  <SCORE.RESTR.norm>
4.30272e-05

>  <SCORE.SYSTEM>
0

>  <SCORE.SYSTEM.CONST>
0

>  <SCORE.SYSTEM.DIHEDRAL>
0

>  <SCORE.SYSTEM.SOLV>
0

>  <SCORE.SYSTEM.norm>
0

>  <SCORE.heavy>
19

>  <SCORE.norm>
-0.702415

>  <RMSD>
5.931

$$$$
ligand
 OpenBabel11021811483D
libRbt.so/2013.1/901 2013/11/27
 19 21  0  0  0  0  0  0  0  0999 V2000
   -7.8891   -9.6212   11.4008 C   0  0  0  0  0  0  0  0  0  0  0  0
   -7.6543  -10.5862   10.3645 O   0  0  0  0  0  0  0  0  0  0  0  0
   -6.7017   -8.6627   11.5156 C   0  0  1  0  0  0  0  0  0  0  0  0
   -6.4853   -7.9684   10.2722 O   0  0  0  0  0  0  0  0  0  0  0  0
   -6.9519   -7.6083   12.5794 C   0  0  1  0  0  0  0  0  0  0  0  0
   -6.2078   -7.8894   13.7713 O   0  0  0  0  0  0  0  0  0  0  0  0
   -6.5040   -6.2966   11.9720 C   0  0  0  0  0  0  0  0  0  0  0  0
   -6.3726   -6.5525   10.4778 C   0  0  2  0  0  0  0  0  0  0  0  0
  -10.4571   -7.1241    7.2246 N   0  0  0  0  0  0  0  0  0  0  0  0
   -9.6252   -8.0629    7.7506 C   0  0  1  0  0  0  0  0  0  0  0  0
   -9.8164   -9.3650    7.4314 N   0  0  0  0  0  0  0  0  0  0  0  0
   -8.6047   -7.7242    8.5849 N   0  0  0  0  0  0  0  0  0  0  0  0
   -8.3676   -6.4311    8.9356 C   0  0  2  0  0  0  0  0  0  0  0  0
   -9.1812   -5.4331    8.4304 C   0  0  1  0  0  0  0  0  0  0  0  0
  -10.2924   -5.8163    7.5227 C   0  0  0  0  0  0  0  0  0  0  0  0
  -11.0590   -4.9503    7.0447 O   0  0  0  0  0  0  0  0  0  0  0  0
   -8.7481   -4.2607    8.9257 N   0  0  0  0  0  0  0  0  0  0  0  0
   -7.6825   -4.5233    9.7179 C   0  0  0  0  0  0  0  0  0  0  0  0
   -7.4507   -5.8486    9.7224 N   0  0  1  0  0  0  0  0  0  0  0  0
  1  2  1  0  0  0  0
  3  1  1  6  0  0  0
  3  4  1  0  0  0  0
  3  5  1  0  0  0  0
  5  6  1  1  0  0  0
  5  7  1  0  0  0  0
  7  8  1  0  0  0  0
  8  4  1  1  0  0  0
  8 19  1  0  0  0  0
  9 15  1  0  0  0  0
  9 10  1  0  0  0  0
 10 11  1  6  0  0  0
 10 12  1  0  0  0  0
 13 12  1  6  0  0  0
 13 14  1  0  0  0  0
 13 19  1  0  0  0  0
 14 15  1  1  0  0  0
 14 17  1  0  0  0  0
 15 16  2  0  0  0  0
 17 18  1  0  0  0  0
 19 18  1  1  0  0  0
M  END
>  <CHROM.1>
59.35177240,-1.84583290,-8.18828924,-7.14781019,9.71162122,0.41098394,0.91199214
3.08028831

>  <Name>
ligand

>  <RI>
0

>  <Rbt.Current_Directory>
/home/itssahil/PROJECTS/Mol_Feturizer/New_Systems/rnas/3SKI

>  <Rbt.Executable>
rbdock ($Id: //depot/dev/client3/rdock/2013.1/src/exe/rbdock.cxx#4 $)

>  <Rbt.Library>
libRbt.so (2013.1, Build901 2013/11/27)

>  <Rbt.Parameter_File>
/export/apps/rDock/src/rDock_2013.1_src/data/scripts/dock_solv.prm

>  <Rbt.Receptor>
prm/pocket_docking_4.prm

>  <SCORE>
-13.1929

>  <SCORE.INTER>
-10.2306

>  <SCORE.INTER.CONST>
1

>  <SCORE.INTER.POLAR>
0

>  <SCORE.INTER.ROT>
2

>  <SCORE.INTER.SOLV>
14.042

>  <SCORE.INTER.VDW>
-16.4344

>  <SCORE.INTER.norm>
-0.538453

>  <SCORE.INTRA>
-2.96336

>  <SCORE.INTRA.DIHEDRAL>
-5.06224

>  <SCORE.INTRA.DIHEDRAL.0>
6.26853

>  <SCORE.INTRA.POLAR>
0

>  <SCORE.INTRA.POLAR.0>
0

>  <SCORE.INTRA.REPUL>
0

>  <SCORE.INTRA.REPUL.0>
0

>  <SCORE.INTRA.SOLV>
0.782984

>  <SCORE.INTRA.SOLV.lig_0>
-38.4926

>  <SCORE.INTRA.VDW>
-0.823734

>  <SCORE.INTRA.VDW.0>
-0.59057

>  <SCORE.INTRA.norm>
-0.155966

>  <SCORE.RESTR>
0.00108376

>  <SCORE.RESTR.CAVITY>
0.00108376

>  <SCORE.RESTR.norm>
5.704e-05

>  <SCORE.SYSTEM>
0

>  <SCORE.SYSTEM.CONST>
0

>  <SCORE.SYSTEM.DIHEDRAL>
0

>  <SCORE.SYSTEM.SOLV>
0

>  <SCORE.SYSTEM.norm>
0

>  <SCORE.heavy>
19

>  <SCORE.norm>
-0.694362

>  <RMSD>
5.937

$$$$
ligand
 OpenBabel11021811483D
libRbt.so/2013.1/901 2013/11/27
 19 21  0  0  0  0  0  0  0  0999 V2000
  -10.5456   -5.5095    9.4224 C   0  0  0  0  0  0  0  0  0  0  0  0
   -9.7821   -4.2983    9.3207 O   0  0  0  0  0  0  0  0  0  0  0  0
  -10.1401   -6.4896    8.3192 C   0  0  1  0  0  0  0  0  0  0  0  0
   -8.7634   -6.8856    8.4703 O   0  0  0  0  0  0  0  0  0  0  0  0
  -10.9786   -7.7543    8.3771 C   0  0  1  0  0  0  0  0  0  0  0  0
  -11.9697   -7.7656    7.3421 O   0  0  0  0  0  0  0  0  0  0  0  0
  -10.0077   -8.9005    8.1937 C   0  0  0  0  0  0  0  0  0  0  0  0
   -8.6220   -8.3128    8.4172 C   0  0  2  0  0  0  0  0  0  0  0  0
   -6.4140   -6.9356   12.9802 N   0  0  0  0  0  0  0  0  0  0  0  0
   -6.8577   -6.1561   11.9576 C   0  0  1  0  0  0  0  0  0  0  0  0
   -6.7453   -4.8103   12.0590 N   0  0  0  0  0  0  0  0  0  0  0  0
   -7.4067   -6.6964   10.8356 N   0  0  0  0  0  0  0  0  0  0  0  0
   -7.5408   -8.0418   10.6823 C   0  0  2  0  0  0  0  0  0  0  0  0
   -7.1063   -8.8841   11.6897 C   0  0  1  0  0  0  0  0  0  0  0  0
   -6.5108   -8.2816   12.9096 C   0  0  0  0  0  0  0  0  0  0  0  0
   -6.1084   -9.0016   13.8507 O   0  0  0  0  0  0  0  0  0  0  0  0
   -7.3530  -10.1477   11.3029 N   0  0  0  0  0  0  0  0  0  0  0  0
   -7.9236  -10.0931   10.0767 C   0  0  0  0  0  0  0  0  0  0  0  0
   -8.0369   -8.8068    9.6986 N   0  0  1  0  0  0  0  0  0  0  0  0
  1  2  1  0  0  0  0
  3  1  1  1  0  0  0
  3  4  1  0  0  0  0
  3  5  1  0  0  0  0
  5  6  1  6  0  0  0
  5  7  1  0  0  0  0
  7  8  1  0  0  0  0
  8  4  1  1  0  0  0
  8 19  1  0  0  0  0
  9 15  1  0  0  0  0
  9 10  1  0  0  0  0
 10 11  1  6  0  0  0
 10 12  1  0  0  0  0
 13 12  1  6  0  0  0
 13 14  1  0  0  0  0
 13 19  1  0  0  0  0
 14 15  1  1  0  0  0
 14 17  1  0  0  0  0
 15 16  2  0  0  0  0
 17 18  1  0  0  0  0
 19 18  1  1  0  0  0
M  END
>  <CHROM.1>
63.42656234,-8.64943916,-8.41027443,-7.52204839,10.27133447,-3.09670401,0.84159390
-2.99190552

>  <Name>
ligand

>  <RI>
0

>  <Rbt.Current_Directory>
/home/itssahil/PROJECTS/Mol_Feturizer/New_Systems/rnas/3SKI

>  <Rbt.Executable>
rbdock ($Id: //depot/dev/client3/rdock/2013.1/src/exe/rbdock.cxx#4 $)

>  <Rbt.Library>
libRbt.so (2013.1, Build901 2013/11/27)

>  <Rbt.Parameter_File>
/export/apps/rDock/src/rDock_2013.1_src/data/scripts/dock_solv.prm

>  <Rbt.Receptor>
prm/pocket_docking_4.prm

>  <SCORE>
-13.4169

>  <SCORE.INTER>
-10.3592

>  <SCORE.INTER.CONST>
1

>  <SCORE.INTER.POLAR>
0

>  <SCORE.INTER.ROT>
2

>  <SCORE.INTER.SOLV>
11.5862

>  <SCORE.INTER.VDW>
-15.7015

>  <SCORE.INTER.norm>
-0.545222

>  <SCORE.INTRA>
-3.11553

>  <SCORE.INTRA.DIHEDRAL>
-5.01365

>  <SCORE.INTRA.DIHEDRAL.0>
6.26853

>  <SCORE.INTRA.POLAR>
0

>  <SCORE.INTRA.POLAR.0>
0

>  <SCORE.INTRA.REPUL>
0

>  <SCORE.INTRA.REPUL.0>
0

>  <SCORE.INTRA.SOLV>
0.113733

>  <SCORE.INTRA.SOLV.lig_0>
-38.4926

>  <SCORE.INTRA.VDW>
-0.665577

>  <SCORE.INTRA.VDW.0>
-0.59057

>  <SCORE.INTRA.norm>
-0.163976

>  <SCORE.RESTR>
0.057883

>  <SCORE.RESTR.CAVITY>
0.057883

>  <SCORE.RESTR.norm>
0.00304647

>  <SCORE.SYSTEM>
0

>  <SCORE.SYSTEM.CONST>
0

>  <SCORE.SYSTEM.DIHEDRAL>
0

>  <SCORE.SYSTEM.SOLV>
0

>  <SCORE.SYSTEM.norm>
0

>  <SCORE.heavy>
19

>  <SCORE.norm>
-0.706151

>  <RMSD>
5.960

$$$$
ligand
 OpenBabel11021811483D
libRbt.so/2013.1/901 2013/11/27
 19 21  0  0  0  0  0  0  0  0999 V2000
   -7.9617   -9.8574   10.2279 C   0  0  0  0  0  0  0  0  0  0  0  0
   -8.2329  -10.9061   11.1695 O   0  0  0  0  0  0  0  0  0  0  0  0
   -6.9561   -8.8628   10.8124 C   0  0  1  0  0  0  0  0  0  0  0  0
   -6.6603   -7.8203    9.8634 O   0  0  0  0  0  0  0  0  0  0  0  0
   -7.5118   -8.1916   12.0560 C   0  0  1  0  0  0  0  0  0  0  0  0
   -6.9203   -8.7327   13.2438 O   0  0  0  0  0  0  0  0  0  0  0  0
   -7.1735   -6.7232   11.9171 C   0  0  0  0  0  0  0  0  0  0  0  0
   -6.7857   -6.5209   10.4596 C   0  0  2  0  0  0  0  0  0  0  0  0
  -10.8952   -6.7639    7.1968 N   0  0  0  0  0  0  0  0  0  0  0  0
  -10.1080   -7.7620    7.6811 C   0  0  1  0  0  0  0  0  0  0  0  0
  -10.3607   -9.0392    7.3086 N   0  0  0  0  0  0  0  0  0  0  0  0
   -9.0720   -7.5066    8.5258 N   0  0  0  0  0  0  0  0  0  0  0  0
   -8.7740   -6.2418    8.9293 C   0  0  2  0  0  0  0  0  0  0  0  0
   -9.5401   -5.1864    8.4682 C   0  0  1  0  0  0  0  0  0  0  0  0
  -10.6688   -5.4789    7.5484 C   0  0  0  0  0  0  0  0  0  0  0  0
  -11.3942   -4.5587    7.1089 O   0  0  0  0  0  0  0  0  0  0  0  0
   -9.0519   -4.0573    9.0105 N   0  0  0  0  0  0  0  0  0  0  0  0
   -7.9992   -4.4025    9.7882 C   0  0  0  0  0  0  0  0  0  0  0  0
   -7.8301   -5.7363    9.7371 N   0  0  1  0  0  0  0  0  0  0  0  0
  1  2  1  0  0  0  0
  3  1  1  6  0  0  0
  3  4  1  0  0  0  0
  3  5  1  0  0  0  0
  5  6  1  1  0  0  0
  5  7  1  0  0  0  0
  7  8  1  0  0  0  0
  8  4  1  6  0  0  0
  8 19  1  0  0  0  0
  9 15  1  0  0  0  0
  9 10  1  0  0  0  0
 10 11  1  6  0  0  0
 10 12  1  0  0  0  0
 13 12  1  6  0  0  0
 13 14  1  0  0  0  0
 13 19  1  0  0  0  0
 14 15  1  1  0  0  0
 14 17  1  0  0  0  0
 15 16  2  0  0  0  0
 17 18  1  0  0  0  0
 19 18  1  1  0  0  0
M  END
>  <CHROM.1>
178.94951364,17.83081994,-8.60329315,-7.13873976,9.57630372,0.66011975,0.86045208
3.04664235

>  <Name>
ligand

>  <RI>
0

>  <Rbt.Current_Directory>
/home/itssahil/PROJECTS/Mol_Feturizer/New_Systems/rnas/3SKI

>  <Rbt.Executable>
rbdock ($Id: //depot/dev/client3/rdock/2013.1/src/exe/rbdock.cxx#4 $)

>  <Rbt.Library>
libRbt.so (2013.1, Build901 2013/11/27)

>  <Rbt.Parameter_File>
/export/apps/rDock/src/rDock_2013.1_src/data/scripts/dock_solv.prm

>  <Rbt.Receptor>
prm/pocket_docking_7.prm

>  <SCORE>
-13.3058

>  <SCORE.INTER>
-10.3455

>  <SCORE.INTER.CONST>
1

>  <SCORE.INTER.POLAR>
0

>  <SCORE.INTER.ROT>
2

>  <SCORE.INTER.SOLV>
12.9755

>  <SCORE.INTER.VDW>
-16.1555

>  <SCORE.INTER.norm>
-0.544502

>  <SCORE.INTRA>
-2.96029

>  <SCORE.INTRA.DIHEDRAL>
-5.07682

>  <SCORE.INTRA.DIHEDRAL.0>
6.26853

>  <SCORE.INTRA.POLAR>
0

>  <SCORE.INTRA.POLAR.0>
0

>  <SCORE.INTRA.REPUL>
0

>  <SCORE.INTRA.REPUL.0>
0

>  <SCORE.INTRA.SOLV>
1.05179

>  <SCORE.INTRA.SOLV.lig_0>
-38.4926

>  <SCORE.INTRA.VDW>
-0.947781

>  <SCORE.INTRA.VDW.0>
-0.59057

>  <SCORE.INTRA.norm>
-0.155805

>  <SCORE.RESTR>
0

>  <SCORE.RESTR.CAVITY>
0

>  <SCORE.RESTR.norm>
0

>  <SCORE.SYSTEM>
0

>  <SCORE.SYSTEM.CONST>
0

>  <SCORE.SYSTEM.DIHEDRAL>
0

>  <SCORE.SYSTEM.SOLV>
0

>  <SCORE.SYSTEM.norm>
0

>  <SCORE.heavy>
19

>  <SCORE.norm>
-0.700307

>  <RMSD>
5.963

$$$$
ligand
 OpenBabel11021811483D
libRbt.so/2013.1/901 2013/11/27
 19 21  0  0  0  0  0  0  0  0999 V2000
  -10.2978   -5.3150    9.3241 C   0  0  0  0  0  0  0  0  0  0  0  0
   -9.4271   -4.1884    9.1426 O   0  0  0  0  0  0  0  0  0  0  0  0
  -10.0202   -6.3801    8.2609 C   0  0  1  0  0  0  0  0  0  0  0  0
   -8.6858   -6.9042    8.4011 O   0  0  0  0  0  0  0  0  0  0  0  0
  -10.9776   -7.5509    8.3978 C   0  0  1  0  0  0  0  0  0  0  0  0
  -11.9918   -7.5105    7.3862 O   0  0  0  0  0  0  0  0  0  0  0  0
  -10.1297   -8.7954    8.2488 C   0  0  0  0  0  0  0  0  0  0  0  0
   -8.6874   -8.3393    8.4138 C   0  0  2  0  0  0  0  0  0  0  0  0
   -6.4004   -6.9603   12.9371 N   0  0  0  0  0  0  0  0  0  0  0  0
   -6.8121   -6.1850   11.8981 C   0  0  1  0  0  0  0  0  0  0  0  0
   -6.6378   -4.8438   11.9680 N   0  0  0  0  0  0  0  0  0  0  0  0
   -7.3897   -6.7252   10.7906 N   0  0  0  0  0  0  0  0  0  0  0  0
   -7.5859   -8.0662   10.6688 C   0  0  2  0  0  0  0  0  0  0  0  0
   -7.1863   -8.9042   11.6941 C   0  0  1  0  0  0  0  0  0  0  0  0
   -6.5591   -8.3017   12.8980 C   0  0  0  0  0  0  0  0  0  0  0  0
   -6.1862   -9.0176   13.8543 O   0  0  0  0  0  0  0  0  0  0  0  0
   -7.4921  -10.1637   11.3374 N   0  0  0  0  0  0  0  0  0  0  0  0
   -8.0645  -10.1111   10.1119 C   0  0  0  0  0  0  0  0  0  0  0  0
   -8.1204   -8.8300    9.7045 N   0  0  1  0  0  0  0  0  0  0  0  0
  1  2  1  0  0  0  0
  3  1  1  1  0  0  0
  3  4  1  0  0  0  0
  3  5  1  0  0  0  0
  5  6  1  6  0  0  0
  5  7  1  0  0  0  0
  7  8  1  0  0  0  0
  8  4  1  1  0  0  0
  8 19  1  0  0  0  0
  9 15  1  0  0  0  0
  9 10  1  0  0  0  0
 10 11  1  6  0  0  0
 10 12  1  0  0  0  0
 13 12  1  6  0  0  0
 13 14  1  0  0  0  0
 13 19  1  0  0  0  0
 14 15  1  1  0  0  0
 14 17  1  0  0  0  0
 15 16  2  0  0  0  0
 17 18  1  0  0  0  0
 19 18  1  1  0  0  0
M  END
>  <CHROM.1>
63.78065091,-5.08190407,-8.39728175,-7.48334816,10.24524060,-2.97813823,0.85128069
-3.10108765

>  <Name>
ligand

>  <RI>
0

>  <Rbt.Current_Directory>
/home/itssahil/PROJECTS/Mol_Feturizer/New_Systems/rnas/3SKI

>  <Rbt.Executable>
rbdock ($Id: //depot/dev/client3/rdock/2013.1/src/exe/rbdock.cxx#4 $)

>  <Rbt.Library>
libRbt.so (2013.1, Build901 2013/11/27)

>  <Rbt.Parameter_File>
/export/apps/rDock/src/rDock_2013.1_src/data/scripts/dock_solv.prm

>  <Rbt.Receptor>
prm/pocket_docking_4.prm

>  <SCORE>
-13.3765

>  <SCORE.INTER>
-10.3261

>  <SCORE.INTER.CONST>
1

>  <SCORE.INTER.POLAR>
0

>  <SCORE.INTER.ROT>
2

>  <SCORE.INTER.SOLV>
11.1979

>  <SCORE.INTER.VDW>
-15.5501

>  <SCORE.INTER.norm>
-0.543481

>  <SCORE.INTRA>
-3.06413

>  <SCORE.INTRA.DIHEDRAL>
-5.00759

>  <SCORE.INTRA.DIHEDRAL.0>
6.26853

>  <SCORE.INTRA.POLAR>
0

>  <SCORE.INTRA.POLAR.0>
0

>  <SCORE.INTRA.REPUL>
0

>  <SCORE.INTRA.REPUL.0>
0

>  <SCORE.INTRA.SOLV>
0.396057

>  <SCORE.INTRA.SOLV.lig_0>
-38.4926

>  <SCORE.INTRA.VDW>
-0.758365

>  <SCORE.INTRA.VDW.0>
-0.59057

>  <SCORE.INTRA.norm>
-0.16127

>  <SCORE.RESTR>
0.013771

>  <SCORE.RESTR.CAVITY>
0.013771

>  <SCORE.RESTR.norm>
0.000724791

>  <SCORE.SYSTEM>
0

>  <SCORE.SYSTEM.CONST>
0

>  <SCORE.SYSTEM.DIHEDRAL>
0

>  <SCORE.SYSTEM.SOLV>
0

>  <SCORE.SYSTEM.norm>
0

>  <SCORE.heavy>
19

>  <SCORE.norm>
-0.704027

>  <RMSD>
5.977

$$$$
ligand
 OpenBabel11021811483D
libRbt.so/2013.1/901 2013/11/27
 19 21  0  0  0  0  0  0  0  0999 V2000
   -5.4752   -7.6645   13.9920 C   0  0  0  0  0  0  0  0  0  0  0  0
   -5.7085   -6.3612   13.4377 O   0  0  0  0  0  0  0  0  0  0  0  0
   -6.1694   -8.7352   13.1472 C   0  0  1  0  0  0  0  0  0  0  0  0
   -7.5734   -8.4441   13.0091 O   0  0  0  0  0  0  0  0  0  0  0  0
   -5.5838   -8.7907   11.7473 C   0  0  1  0  0  0  0  0  0  0  0  0
   -4.7239   -9.9264   11.5911 O   0  0  0  0  0  0  0  0  0  0  0  0
   -6.7676   -8.8895   10.8097 C   0  0  0  0  0  0  0  0  0  0  0  0
   -7.9868   -8.5076   11.6363 C   0  0  2  0  0  0  0  0  0  0  0  0
  -11.2751   -6.0024    8.3952 N   0  0  0  0  0  0  0  0  0  0  0  0
  -11.0162   -7.3324    8.5153 C   0  0  1  0  0  0  0  0  0  0  0  0
  -11.6663   -8.2050    7.7092 N   0  0  0  0  0  0  0  0  0  0  0  0
  -10.1176   -7.8047    9.4217 N   0  0  0  0  0  0  0  0  0  0  0  0
   -9.4361   -6.9710   10.2535 C   0  0  2  0  0  0  0  0  0  0  0  0
   -9.6581   -5.6080   10.1759 C   0  0  1  0  0  0  0  0  0  0  0  0
  -10.6425   -5.1057    9.1839 C   0  0  0  0  0  0  0  0  0  0  0  0
  -10.8821   -3.8819    9.0797 O   0  0  0  0  0  0  0  0  0  0  0  0
   -8.8778   -5.0123   11.0944 N   0  0  0  0  0  0  0  0  0  0  0  0
   -8.1796   -5.9845   11.7263 C   0  0  0  0  0  0  0  0  0  0  0  0
   -8.5207   -7.1799   11.2114 N   0  0  1  0  0  0  0  0  0  0  0  0
  1  2  1  0  0  0  0
  3  1  1  1  0  0  0
  3  4  1  0  0  0  0
  3  5  1  0  0  0  0
  5  6  1  1  0  0  0
  5  7  1  0  0  0  0
  7  8  1  0  0  0  0
  8  4  1  1  0  0  0
  8 19  1  0  0  0  0
  9 15  1  0  0  0  0
  9 10  1  0  0  0  0
 10 11  1  6  0  0  0
 10 12  1  0  0  0  0
 13 12  1  6  0  0  0
 13 14  1  0  0  0  0
 13 19  1  0  0  0  0
 14 15  1  1  0  0  0
 14 17  1  0  0  0  0
 15 16  2  0  0  0  0
 17 18  1  0  0  0  0
 19 18  1  1  0  0  0
M  END
>  <CHROM.1>
-55.06170246,-152.33605497,-8.36680695,-7.19909477,10.89643782,-0.10291637
-0.72166326,0.39895921

>  <Name>
ligand

>  <RI>
0

>  <Rbt.Current_Directory>
/home/itssahil/PROJECTS/Mol_Feturizer/New_Systems/rnas/3SKI

>  <Rbt.Executable>
rbdock ($Id: //depot/dev/client3/rdock/2013.1/src/exe/rbdock.cxx#4 $)

>  <Rbt.Library>
libRbt.so (2013.1, Build901 2013/11/27)

>  <Rbt.Parameter_File>
/export/apps/rDock/src/rDock_2013.1_src/data/scripts/dock_solv.prm

>  <Rbt.Receptor>
prm/pocket_docking_6.prm

>  <SCORE>
-14.8172

>  <SCORE.INTER>
-11.7579

>  <SCORE.INTER.CONST>
1

>  <SCORE.INTER.POLAR>
0

>  <SCORE.INTER.ROT>
2

>  <SCORE.INTER.SOLV>
10.361

>  <SCORE.INTER.VDW>
-16.2256

>  <SCORE.INTER.norm>
-0.618838

>  <SCORE.INTRA>
-3.05923

>  <SCORE.INTRA.DIHEDRAL>
-4.95773

>  <SCORE.INTRA.DIHEDRAL.0>
6.26853

>  <SCORE.INTRA.POLAR>
0

>  <SCORE.INTRA.POLAR.0>
0

>  <SCORE.INTRA.REPUL>
0

>  <SCORE.INTRA.REPUL.0>
0

>  <SCORE.INTRA.SOLV>
0.290043

>  <SCORE.INTRA.SOLV.lig_0>
-38.4926

>  <SCORE.INTRA.VDW>
-0.72538

>  <SCORE.INTRA.VDW.0>
-0.59057

>  <SCORE.INTRA.norm>
-0.161012

>  <SCORE.RESTR>
0

>  <SCORE.RESTR.CAVITY>
0

>  <SCORE.RESTR.norm>
0

>  <SCORE.SYSTEM>
0

>  <SCORE.SYSTEM.CONST>
0

>  <SCORE.SYSTEM.DIHEDRAL>
0

>  <SCORE.SYSTEM.SOLV>
0

>  <SCORE.SYSTEM.norm>
0

>  <SCORE.heavy>
19

>  <SCORE.norm>
-0.77985

>  <RMSD>
5.995

$$$$
ligand
 OpenBabel11021811483D
libRbt.so/2013.1/901 2013/11/27
 19 21  0  0  0  0  0  0  0  0999 V2000
   -5.1662   -7.4997   13.7509 C   0  0  0  0  0  0  0  0  0  0  0  0
   -3.7759   -7.8545   13.7874 O   0  0  0  0  0  0  0  0  0  0  0  0
   -5.9817   -8.6074   13.0804 C   0  0  1  0  0  0  0  0  0  0  0  0
   -7.3824   -8.2712   13.0658 O   0  0  0  0  0  0  0  0  0  0  0  0
   -5.5534   -8.8034   11.6368 C   0  0  1  0  0  0  0  0  0  0  0  0
   -4.7523   -9.9826   11.4906 O   0  0  0  0  0  0  0  0  0  0  0  0
   -6.8343   -8.9309   10.8412 C   0  0  0  0  0  0  0  0  0  0  0  0
   -7.9439   -8.4316   11.7549 C   0  0  2  0  0  0  0  0  0  0  0  0
  -11.2270   -6.0648    8.4064 N   0  0  0  0  0  0  0  0  0  0  0  0
  -10.9675   -7.3885    8.5818 C   0  0  1  0  0  0  0  0  0  0  0  0
  -11.6154   -8.2942    7.8112 N   0  0  0  0  0  0  0  0  0  0  0  0
  -10.0706   -7.8224    9.5088 N   0  0  0  0  0  0  0  0  0  0  0  0
   -9.3912   -6.9545   10.3068 C   0  0  2  0  0  0  0  0  0  0  0  0
   -9.6139   -5.5960   10.1725 C   0  0  1  0  0  0  0  0  0  0  0  0
  -10.5966   -5.1359    9.1585 C   0  0  0  0  0  0  0  0  0  0  0  0
  -10.8367   -3.9175    9.0034 O   0  0  0  0  0  0  0  0  0  0  0  0
   -8.8359   -4.9623   11.0672 N   0  0  0  0  0  0  0  0  0  0  0  0
   -8.1384   -5.9071   11.7402 C   0  0  0  0  0  0  0  0  0  0  0  0
   -8.4777   -7.1229   11.2744 N   0  0  1  0  0  0  0  0  0  0  0  0
  1  2  1  0  0  0  0
  3  1  1  6  0  0  0
  3  4  1  0  0  0  0
  3  5  1  0  0  0  0
  5  6  1  1  0  0  0
  5  7  1  0  0  0  0
  7  8  1  0  0  0  0
  8  4  1  1  0  0  0
  8 19  1  0  0  0  0
  9 15  1  0  0  0  0
  9 10  1  0  0  0  0
 10 11  1  6  0  0  0
 10 12  1  0  0  0  0
 13 12  1  6  0  0  0
 13 14  1  0  0  0  0
 13 19  1  0  0  0  0
 14 15  1  1  0  0  0
 14 17  1  0  0  0  0
 15 16  2  0  0  0  0
 17 18  1  0  0  0  0
 19 18  1  1  0  0  0
M  END
>  <CHROM.1>
178.76585219,-159.41430970,-8.18694178,-7.27189275,10.91381039,-0.12905471
-0.67996973,0.35780138

>  <Name>
ligand

>  <RI>
0

>  <Rbt.Current_Directory>
/home/itssahil/PROJECTS/Mol_Feturizer/New_Systems/rnas/3SKI

>  <Rbt.Executable>
rbdock ($Id: //depot/dev/client3/rdock/2013.1/src/exe/rbdock.cxx#4 $)

>  <Rbt.Library>
libRbt.so (2013.1, Build901 2013/11/27)

>  <Rbt.Parameter_File>
/export/apps/rDock/src/rDock_2013.1_src/data/scripts/dock_solv.prm

>  <Rbt.Receptor>
prm/pocket_docking_7.prm

>  <SCORE>
-14.7156

>  <SCORE.INTER>
-11.7559

>  <SCORE.INTER.CONST>
1

>  <SCORE.INTER.POLAR>
0

>  <SCORE.INTER.ROT>
2

>  <SCORE.INTER.SOLV>
10.2386

>  <SCORE.INTER.VDW>
-16.1835

>  <SCORE.INTER.norm>
-0.618733

>  <SCORE.INTRA>
-2.95967

>  <SCORE.INTRA.DIHEDRAL>
-5.04426

>  <SCORE.INTRA.DIHEDRAL.0>
6.26853

>  <SCORE.INTRA.POLAR>
0

>  <SCORE.INTRA.POLAR.0>
0

>  <SCORE.INTRA.REPUL>
0

>  <SCORE.INTRA.REPUL.0>
0

>  <SCORE.INTRA.SOLV>
-0.0160416

>  <SCORE.INTRA.SOLV.lig_0>
-38.4926

>  <SCORE.INTRA.VDW>
-0.429516

>  <SCORE.INTRA.VDW.0>
-0.59057

>  <SCORE.INTRA.norm>
-0.155772

>  <SCORE.RESTR>
0

>  <SCORE.RESTR.CAVITY>
0

>  <SCORE.RESTR.norm>
0

>  <SCORE.SYSTEM>
0

>  <SCORE.SYSTEM.CONST>
0

>  <SCORE.SYSTEM.DIHEDRAL>
0

>  <SCORE.SYSTEM.SOLV>
0

>  <SCORE.SYSTEM.norm>
0

>  <SCORE.heavy>
19

>  <SCORE.norm>
-0.774505

>  <RMSD>
6.006

$$$$
ligand
 OpenBabel11021811483D
libRbt.so/2013.1/901 2013/11/27
 19 21  0  0  0  0  0  0  0  0999 V2000
   -5.4639   -7.6232   13.9505 C   0  0  0  0  0  0  0  0  0  0  0  0
   -5.6408   -6.3356   13.3415 O   0  0  0  0  0  0  0  0  0  0  0  0
   -6.1615   -8.7049   13.1228 C   0  0  1  0  0  0  0  0  0  0  0  0
   -7.5670   -8.4184   12.9909 O   0  0  0  0  0  0  0  0  0  0  0  0
   -5.5854   -8.7752   11.7195 C   0  0  1  0  0  0  0  0  0  0  0  0
   -4.7241   -9.9108   11.5703 O   0  0  0  0  0  0  0  0  0  0  0  0
   -6.7754   -8.8871   10.7913 C   0  0  0  0  0  0  0  0  0  0  0  0
   -7.9897   -8.4983   11.6218 C   0  0  2  0  0  0  0  0  0  0  0  0
  -11.3024   -6.0367    8.3722 N   0  0  0  0  0  0  0  0  0  0  0  0
  -11.0394   -7.3646    8.5053 C   0  0  1  0  0  0  0  0  0  0  0  0
  -11.6917   -8.2476    7.7123 N   0  0  0  0  0  0  0  0  0  0  0  0
  -10.1346   -7.8249    9.4117 N   0  0  0  0  0  0  0  0  0  0  0  0
   -9.4506   -6.9805   10.2306 C   0  0  2  0  0  0  0  0  0  0  0  0
   -9.6765   -5.6189   10.1394 C   0  0  1  0  0  0  0  0  0  0  0  0
  -10.6677   -5.1299    9.1475 C   0  0  0  0  0  0  0  0  0  0  0  0
  -10.9110   -3.9079    9.0315 O   0  0  0  0  0  0  0  0  0  0  0  0
   -8.8927   -5.0113   11.0471 N   0  0  0  0  0  0  0  0  0  0  0  0
   -8.1885   -5.9749   11.6856 C   0  0  0  0  0  0  0  0  0  0  0  0
   -8.5294   -7.1766   11.1856 N   0  0  1  0  0  0  0  0  0  0  0  0
  1  2  1  0  0  0  0
  3  1  1  1  0  0  0
  3  4  1  0  0  0  0
  3  5  1  0  0  0  0
  5  6  1  1  0  0  0
  5  7  1  0  0  0  0
  7  8  1  0  0  0  0
  8  4  1  1  0  0  0
  8 19  1  0  0  0  0
  9 15  1  0  0  0  0
  9 10  1  0  0  0  0
 10 11  1  6  0  0  0
 10 12  1  0  0  0  0
 13 12  1  6  0  0  0
 13 14  1  0  0  0  0
 13 19  1  0  0  0  0
 14 15  1  1  0  0  0
 14 17  1  0  0  0  0
 15 16  2  0  0  0  0
 17 18  1  0  0  0  0
 19 18  1  1  0  0  0
M  END
>  <CHROM.1>
-58.29444339,-152.41933085,-8.37284178,-7.19956926,10.86639041,-0.10750185
-0.71291632,0.38136179

>  <Name>
ligand

>  <RI>
0

>  <Rbt.Current_Directory>
/home/itssahil/PROJECTS/Mol_Feturizer/New_Systems/rnas/3SKI

>  <Rbt.Executable>
rbdock ($Id: //depot/dev/client3/rdock/2013.1/src/exe/rbdock.cxx#4 $)

>  <Rbt.Library>
libRbt.so (2013.1, Build901 2013/11/27)

>  <Rbt.Parameter_File>
/export/apps/rDock/src/rDock_2013.1_src/data/scripts/dock_solv.prm

>  <Rbt.Receptor>
prm/pocket_docking_6.prm

>  <SCORE>
-14.8321

>  <SCORE.INTER>
-11.75

>  <SCORE.INTER.CONST>
1

>  <SCORE.INTER.POLAR>
0

>  <SCORE.INTER.ROT>
2

>  <SCORE.INTER.SOLV>
10.3062

>  <SCORE.INTER.VDW>
-16.202

>  <SCORE.INTER.norm>
-0.618419

>  <SCORE.INTRA>
-3.08218

>  <SCORE.INTRA.DIHEDRAL>
-5.03604

>  <SCORE.INTRA.DIHEDRAL.0>
6.26853

>  <SCORE.INTRA.POLAR>
0

>  <SCORE.INTRA.POLAR.0>
0

>  <SCORE.INTRA.REPUL>
0

>  <SCORE.INTRA.REPUL.0>
0

>  <SCORE.INTRA.SOLV>
0.293642

>  <SCORE.INTRA.SOLV.lig_0>
-38.4926

>  <SCORE.INTRA.VDW>
-0.710987

>  <SCORE.INTRA.VDW.0>
-0.59057

>  <SCORE.INTRA.norm>
-0.16222

>  <SCORE.RESTR>
0

>  <SCORE.RESTR.CAVITY>
0

>  <SCORE.RESTR.norm>
0

>  <SCORE.SYSTEM>
0

>  <SCORE.SYSTEM.CONST>
0

>  <SCORE.SYSTEM.DIHEDRAL>
0

>  <SCORE.SYSTEM.SOLV>
0

>  <SCORE.SYSTEM.norm>
0

>  <SCORE.heavy>
19

>  <SCORE.norm>
-0.780639

>  <RMSD>
6.008

$$$$
ligand
 OpenBabel11021811483D
libRbt.so/2013.1/901 2013/11/27
 19 21  0  0  0  0  0  0  0  0999 V2000
   -7.9435   -9.4496   11.4269 C   0  0  0  0  0  0  0  0  0  0  0  0
   -7.7429  -10.4976   10.4669 O   0  0  0  0  0  0  0  0  0  0  0  0
   -6.7643   -8.4745   11.4060 C   0  0  1  0  0  0  0  0  0  0  0  0
   -6.6721   -7.8138   10.1292 O   0  0  0  0  0  0  0  0  0  0  0  0
   -6.9313   -7.3929   12.4587 C   0  0  1  0  0  0  0  0  0  0  0  0
   -6.0775   -7.6310   13.5847 O   0  0  0  0  0  0  0  0  0  0  0  0
   -6.5593   -6.0941   11.7769 C   0  0  0  0  0  0  0  0  0  0  0  0
   -6.5611   -6.3914   10.2846 C   0  0  2  0  0  0  0  0  0  0  0  0
  -10.7425   -7.0636    7.1769 N   0  0  0  0  0  0  0  0  0  0  0  0
   -9.8311   -7.9717    7.6184 C   0  0  1  0  0  0  0  0  0  0  0  0
   -9.9548   -9.2660    7.2397 N   0  0  0  0  0  0  0  0  0  0  0  0
   -8.7977   -7.6096    8.4265 N   0  0  0  0  0  0  0  0  0  0  0  0
   -8.6263   -6.3228    8.8342 C   0  0  2  0  0  0  0  0  0  0  0  0
   -9.5222   -5.3556    8.4158 C   0  0  1  0  0  0  0  0  0  0  0  0
  -10.6466   -5.7643    7.5358 C   0  0  0  0  0  0  0  0  0  0  0  0
  -11.4862   -4.9271    7.1358 O   0  0  0  0  0  0  0  0  0  0  0  0
   -9.1416   -4.1836    8.9534 N   0  0  0  0  0  0  0  0  0  0  0  0
   -8.0275   -4.4158    9.6863 C   0  0  0  0  0  0  0  0  0  0  0  0
   -7.7135   -5.7220    9.6120 N   0  0  1  0  0  0  0  0  0  0  0  0
  1  2  1  0  0  0  0
  3  1  1  6  0  0  0
  3  4  1  0  0  0  0
  3  5  1  0  0  0  0
  5  6  1  1  0  0  0
  5  7  1  0  0  0  0
  7  8  1  0  0  0  0
  8  4  1  1  0  0  0
  8 19  1  0  0  0  0
  9 15  1  0  0  0  0
  9 10  1  0  0  0  0
 10 11  1  6  0  0  0
 10 12  1  0  0  0  0
 13 12  1  6  0  0  0
 13 14  1  0  0  0  0
 13 19  1  0  0  0  0
 14 15  1  1  0  0  0
 14 17  1  0  0  0  0
 15 16  2  0  0  0  0
 17 18  1  0  0  0  0
 19 18  1  1  0  0  0
M  END
>  <CHROM.1>
63.58685989,-7.91099209,-8.37820201,-7.02173876,9.63509689,0.32581285,0.87574426
-3.13806736

>  <Name>
ligand

>  <RI>
0

>  <Rbt.Current_Directory>
/home/itssahil/PROJECTS/Mol_Feturizer/New_Systems/rnas/3SKI

>  <Rbt.Executable>
rbdock ($Id: //depot/dev/client3/rdock/2013.1/src/exe/rbdock.cxx#4 $)

>  <Rbt.Library>
libRbt.so (2013.1, Build901 2013/11/27)

>  <Rbt.Parameter_File>
/export/apps/rDock/src/rDock_2013.1_src/data/scripts/dock_solv.prm

>  <Rbt.Receptor>
prm/pocket_docking_5.prm

>  <SCORE>
-13.475

>  <SCORE.INTER>
-10.3749

>  <SCORE.INTER.CONST>
1

>  <SCORE.INTER.POLAR>
0

>  <SCORE.INTER.ROT>
2

>  <SCORE.INTER.SOLV>
13.1929

>  <SCORE.INTER.VDW>
-16.2475

>  <SCORE.INTER.norm>
-0.546045

>  <SCORE.INTRA>
-3.10019

>  <SCORE.INTRA.DIHEDRAL>
-5.0102

>  <SCORE.INTRA.DIHEDRAL.0>
6.26853

>  <SCORE.INTRA.POLAR>
0

>  <SCORE.INTRA.POLAR.0>
0

>  <SCORE.INTRA.REPUL>
0

>  <SCORE.INTRA.REPUL.0>
0

>  <SCORE.INTRA.SOLV>
0.17147

>  <SCORE.INTRA.SOLV.lig_0>
-38.4926

>  <SCORE.INTRA.VDW>
-0.680829

>  <SCORE.INTRA.VDW.0>
-0.59057

>  <SCORE.INTRA.norm>
-0.163168

>  <SCORE.RESTR>
0

>  <SCORE.RESTR.CAVITY>
0

>  <SCORE.RESTR.norm>
0

>  <SCORE.SYSTEM>
0

>  <SCORE.SYSTEM.CONST>
0

>  <SCORE.SYSTEM.DIHEDRAL>
0

>  <SCORE.SYSTEM.SOLV>
0

>  <SCORE.SYSTEM.norm>
0

>  <SCORE.heavy>
19

>  <SCORE.norm>
-0.709213

>  <RMSD>
6.009

$$$$
ligand
 OpenBabel11021811483D
libRbt.so/2013.1/901 2013/11/27
 19 21  0  0  0  0  0  0  0  0999 V2000
   -5.2108   -7.8602   13.9521 C   0  0  0  0  0  0  0  0  0  0  0  0
   -5.4503   -6.5469   13.4248 O   0  0  0  0  0  0  0  0  0  0  0  0
   -5.8566   -8.9201   13.0568 C   0  0  1  0  0  0  0  0  0  0  0  0
   -7.2776   -8.7058   12.9574 O   0  0  0  0  0  0  0  0  0  0  0  0
   -5.2952   -8.8600   11.6472 C   0  0  1  0  0  0  0  0  0  0  0  0
   -4.3731   -9.9315   11.4117 O   0  0  0  0  0  0  0  0  0  0  0  0
   -6.4884   -8.9751   10.7237 C   0  0  0  0  0  0  0  0  0  0  0  0
   -7.7123   -8.7148   11.5897 C   0  0  2  0  0  0  0  0  0  0  0  0
  -11.2110   -6.2300    8.5603 N   0  0  0  0  0  0  0  0  0  0  0  0
  -10.8734   -7.5471    8.5994 C   0  0  1  0  0  0  0  0  0  0  0  0
  -11.4902   -8.4101    7.7576 N   0  0  0  0  0  0  0  0  0  0  0  0
   -9.9291   -8.0158    9.4601 N   0  0  0  0  0  0  0  0  0  0  0  0
   -9.2781   -7.1912   10.3248 C   0  0  2  0  0  0  0  0  0  0  0  0
   -9.5797   -5.8413   10.3292 C   0  0  1  0  0  0  0  0  0  0  0  0
  -10.6135   -5.3431    9.3864 C   0  0  0  0  0  0  0  0  0  0  0  0
  -10.9252   -4.1315    9.3568 O   0  0  0  0  0  0  0  0  0  0  0  0
   -8.8146   -5.2530   11.2650 N   0  0  0  0  0  0  0  0  0  0  0  0
   -8.0477   -6.2163   11.8271 C   0  0  0  0  0  0  0  0  0  0  0  0
   -8.3310   -7.3991   11.2515 N   0  0  1  0  0  0  0  0  0  0  0  0
  1  2  1  0  0  0  0
  3  1  1  1  0  0  0
  3  4  1  0  0  0  0
  3  5  1  0  0  0  0
  5  6  1  6  0  0  0
  5  7  1  0  0  0  0
  7  8  1  0  0  0  0
  8  4  1  1  0  0  0
  8 19  1  0  0  0  0
  9 15  1  0  0  0  0
  9 10  1  0  0  0  0
 10 11  1  6  0  0  0
 10 12  1  0  0  0  0
 13 12  1  6  0  0  0
 13 14  1  0  0  0  0
 13 19  1  0  0  0  0
 14 15  1  1  0  0  0
 14 17  1  0  0  0  0
 15 16  2  0  0  0  0
 17 18  1  0  0  0  0
 19 18  1  1  0  0  0
M  END
>  <CHROM.1>
-59.17438650,-152.09100227,-8.17978418,-7.39170240,10.93283357,-0.05038117
-0.67651262,0.48428516

>  <Name>
ligand

>  <RI>
0

>  <Rbt.Current_Directory>
/home/itssahil/PROJECTS/Mol_Feturizer/New_Systems/rnas/3SKI

>  <Rbt.Executable>
rbdock ($Id: //depot/dev/client3/rdock/2013.1/src/exe/rbdock.cxx#4 $)

>  <Rbt.Library>
libRbt.so (2013.1, Build901 2013/11/27)

>  <Rbt.Parameter_File>
/export/apps/rDock/src/rDock_2013.1_src/data/scripts/dock_solv.prm

>  <Rbt.Receptor>
prm/pocket_docking_5.prm

>  <SCORE>
-14.8252

>  <SCORE.INTER>
-11.7437

>  <SCORE.INTER.CONST>
1

>  <SCORE.INTER.POLAR>
0

>  <SCORE.INTER.ROT>
2

>  <SCORE.INTER.SOLV>
10.4241

>  <SCORE.INTER.VDW>
-16.2372

>  <SCORE.INTER.norm>
-0.618091

>  <SCORE.INTRA>
-3.08142

>  <SCORE.INTRA.DIHEDRAL>
-5.04435

>  <SCORE.INTRA.DIHEDRAL.0>
6.26853

>  <SCORE.INTRA.POLAR>
0

>  <SCORE.INTRA.POLAR.0>
0

>  <SCORE.INTRA.REPUL>
0

>  <SCORE.INTRA.REPUL.0>
0

>  <SCORE.INTRA.SOLV>
0.294602

>  <SCORE.INTRA.SOLV.lig_0>
-38.4926

>  <SCORE.INTRA.VDW>
-0.706541

>  <SCORE.INTRA.VDW.0>
-0.59057

>  <SCORE.INTRA.norm>
-0.16218

>  <SCORE.RESTR>
0

>  <SCORE.RESTR.CAVITY>
0

>  <SCORE.RESTR.norm>
0

>  <SCORE.SYSTEM>
0

>  <SCORE.SYSTEM.CONST>
0

>  <SCORE.SYSTEM.DIHEDRAL>
0

>  <SCORE.SYSTEM.SOLV>
0

>  <SCORE.SYSTEM.norm>
0

>  <SCORE.heavy>
19

>  <SCORE.norm>
-0.780271

>  <RMSD>
6.099

$$$$
ligand
 OpenBabel11021811483D
libRbt.so/2013.1/901 2013/11/27
 19 21  0  0  0  0  0  0  0  0999 V2000
   -3.3297   -1.8755    9.8143 C   0  0  0  0  0  0  0  0  0  0  0  0
   -2.5807   -0.7022   10.1641 O   0  0  0  0  0  0  0  0  0  0  0  0
   -4.6934   -1.4859    9.2395 C   0  0  1  0  0  0  0  0  0  0  0  0
   -5.4211   -2.6551    8.8171 O   0  0  0  0  0  0  0  0  0  0  0  0
   -5.5441   -0.7814   10.2815 C   0  0  1  0  0  0  0  0  0  0  0  0
   -5.5905    0.6308   10.0424 O   0  0  0  0  0  0  0  0  0  0  0  0
   -6.9265   -1.3850   10.1608 C   0  0  0  0  0  0  0  0  0  0  0  0
   -6.7555   -2.6584    9.3455 C   0  0  2  0  0  0  0  0  0  0  0  0
   -9.4435   -7.1289    9.9636 N   0  0  0  0  0  0  0  0  0  0  0  0
   -9.5356   -6.1856    8.9879 C   0  0  1  0  0  0  0  0  0  0  0  0
  -10.4361   -6.3556    7.9908 N   0  0  0  0  0  0  0  0  0  0  0  0
   -8.7487   -5.0753    8.9931 N   0  0  0  0  0  0  0  0  0  0  0  0
   -7.8300   -4.8551    9.9724 C   0  0  2  0  0  0  0  0  0  0  0  0
   -7.6925   -5.7803   10.9914 C   0  0  1  0  0  0  0  0  0  0  0  0
   -8.5560   -6.9885   10.9729 C   0  0  0  0  0  0  0  0  0  0  0  0
   -8.4648   -7.8568   11.8694 O   0  0  0  0  0  0  0  0  0  0  0  0
   -6.7280   -5.3400   11.8180 N   0  0  0  0  0  0  0  0  0  0  0  0
   -6.2791   -4.1613   11.3268 C   0  0  0  0  0  0  0  0  0  0  0  0
   -6.9533   -3.8660   10.2005 N   0  0  1  0  0  0  0  0  0  0  0  0
  1  2  1  0  0  0  0
  3  1  1  1  0  0  0
  3  4  1  0  0  0  0
  3  5  1  0  0  0  0
  5  6  1  6  0  0  0
  5  7  1  0  0  0  0
  7  8  1  0  0  0  0
  8  4  1  1  0  0  0
  8 19  1  0  0  0  0
  9 15  1  0  0  0  0
  9 10  1  0  0  0  0
 10 11  1  1  0  0  0
 10 12  1  0  0  0  0
 13 12  1  1  0  0  0
 13 14  1  0  0  0  0
 13 19  1  0  0  0  0
 14 15  1  6  0  0  0
 14 17  1  0  0  0  0
 15 16  2  0  0  0  0
 17 18  1  0  0  0  0
 19 18  1  6  0  0  0
M  END
>  <CHROM.1>
176.80043264,-117.29682208,-6.85218387,-3.84405415,10.04495211,-0.73816411
0.58406848,2.55427313

>  <Name>
ligand

>  <RI>
0

>  <Rbt.Current_Directory>
/home/itssahil/PROJECTS/Mol_Feturizer/New_Systems/rnas/3SKI

>  <Rbt.Executable>
rbdock ($Id: //depot/dev/client3/rdock/2013.1/src/exe/rbdock.cxx#4 $)

>  <Rbt.Library>
libRbt.so (2013.1, Build901 2013/11/27)

>  <Rbt.Parameter_File>
/export/apps/rDock/src/rDock_2013.1_src/data/scripts/dock_solv.prm

>  <Rbt.Receptor>
prm/pocket_docking_3.prm

>  <SCORE>
-12.5409

>  <SCORE.INTER>
-9.5982

>  <SCORE.INTER.CONST>
1

>  <SCORE.INTER.POLAR>
0

>  <SCORE.INTER.ROT>
2

>  <SCORE.INTER.SOLV>
13.2346

>  <SCORE.INTER.VDW>
-15.7437

>  <SCORE.INTER.norm>
-0.505169

>  <SCORE.INTRA>
-2.94269

>  <SCORE.INTRA.DIHEDRAL>
-5.03218

>  <SCORE.INTRA.DIHEDRAL.0>
6.26853

>  <SCORE.INTRA.POLAR>
0

>  <SCORE.INTRA.POLAR.0>
0

>  <SCORE.INTRA.REPUL>
0

>  <SCORE.INTRA.REPUL.0>
0

>  <SCORE.INTRA.SOLV>
-0.0226996

>  <SCORE.INTRA.SOLV.lig_0>
-38.4926

>  <SCORE.INTRA.VDW>
-0.41525

>  <SCORE.INTRA.VDW.0>
-0.59057

>  <SCORE.INTRA.norm>
-0.154878

>  <SCORE.RESTR>
0

>  <SCORE.RESTR.CAVITY>
0

>  <SCORE.RESTR.norm>
0

>  <SCORE.SYSTEM>
0

>  <SCORE.SYSTEM.CONST>
0

>  <SCORE.SYSTEM.DIHEDRAL>
0

>  <SCORE.SYSTEM.SOLV>
0

>  <SCORE.SYSTEM.norm>
0

>  <SCORE.heavy>
19

>  <SCORE.norm>
-0.660047

>  <RMSD>
6.116

$$$$
ligand
 OpenBabel11021811483D
libRbt.so/2013.1/901 2013/11/27
 19 21  0  0  0  0  0  0  0  0999 V2000
  -10.6708   -6.1000    7.8439 C   0  0  0  0  0  0  0  0  0  0  0  0
  -10.5995   -6.3076    9.2624 O   0  0  0  0  0  0  0  0  0  0  0  0
  -10.1811   -7.3432    7.0979 C   0  0  1  0  0  0  0  0  0  0  0  0
   -8.8334   -7.6722    7.4858 O   0  0  0  0  0  0  0  0  0  0  0  0
  -11.0464   -8.5490    7.4191 C   0  0  1  0  0  0  0  0  0  0  0  0
  -11.9336   -8.8522    6.3353 O   0  0  0  0  0  0  0  0  0  0  0  0
  -10.0855   -9.6943    7.6536 C   0  0  0  0  0  0  0  0  0  0  0  0
   -8.7161   -9.0577    7.8412 C   0  0  2  0  0  0  0  0  0  0  0  0
   -6.6646   -6.5151   11.9545 N   0  0  0  0  0  0  0  0  0  0  0  0
   -6.9601   -6.0582   10.7078 C   0  0  1  0  0  0  0  0  0  0  0  0
   -6.7144   -4.7609   10.4067 N   0  0  0  0  0  0  0  0  0  0  0  0
   -7.4916   -6.8740    9.7569 N   0  0  0  0  0  0  0  0  0  0  0  0
   -7.7556   -8.1852   10.0067 C   0  0  2  0  0  0  0  0  0  0  0  0
   -7.4748   -8.7056   11.2571 C   0  0  1  0  0  0  0  0  0  0  0  0
   -6.8968   -7.8043   12.2862 C   0  0  0  0  0  0  0  0  0  0  0  0
   -6.6310   -8.2269   13.4338 O   0  0  0  0  0  0  0  0  0  0  0  0
   -7.8275  -10.0029   11.2502 N   0  0  0  0  0  0  0  0  0  0  0  0
   -8.3118  -10.2856   10.0183 C   0  0  0  0  0  0  0  0  0  0  0  0
   -8.2666   -9.1752    9.2598 N   0  0  1  0  0  0  0  0  0  0  0  0
  1  2  1  0  0  0  0
  3  1  1  1  0  0  0
  3  4  1  0  0  0  0
  3  5  1  0  0  0  0
  5  6  1  6  0  0  0
  5  7  1  0  0  0  0
  7  8  1  0  0  0  0
  8  4  1  1  0  0  0
  8 19  1  0  0  0  0
  9 15  1  0  0  0  0
  9 10  1  0  0  0  0
 10 11  1  6  0  0  0
 10 12  1  0  0  0  0
 13 12  1  6  0  0  0
 13 14  1  0  0  0  0
 13 19  1  0  0  0  0
 14 15  1  1  0  0  0
 14 17  1  0  0  0  0
 15 16  2  0  0  0  0
 17 18  1  0  0  0  0
 19 18  1  1  0  0  0
M  END
>  <CHROM.1>
-57.67611505,-14.11032202,-8.63668207,-7.88315517,9.50154523,3.10709564,0.88734489
3.02706941

>  <Name>
ligand

>  <RI>
0

>  <Rbt.Current_Directory>
/home/itssahil/PROJECTS/Mol_Feturizer/New_Systems/rnas/3SKI

>  <Rbt.Executable>
rbdock ($Id: //depot/dev/client3/rdock/2013.1/src/exe/rbdock.cxx#4 $)

>  <Rbt.Library>
libRbt.so (2013.1, Build901 2013/11/27)

>  <Rbt.Parameter_File>
/export/apps/rDock/src/rDock_2013.1_src/data/scripts/dock_solv.prm

>  <Rbt.Receptor>
prm/pocket_docking_8.prm

>  <SCORE>
-17.7674

>  <SCORE.INTER>
-14.6235

>  <SCORE.INTER.CONST>
1

>  <SCORE.INTER.POLAR>
0

>  <SCORE.INTER.ROT>
2

>  <SCORE.INTER.SOLV>
9.12643

>  <SCORE.INTER.VDW>
-17.7245

>  <SCORE.INTER.norm>
-0.769658

>  <SCORE.INTRA>
-3.14387

>  <SCORE.INTRA.DIHEDRAL>
-5.03252

>  <SCORE.INTRA.DIHEDRAL.0>
6.26853

>  <SCORE.INTRA.POLAR>
0

>  <SCORE.INTRA.POLAR.0>
0

>  <SCORE.INTRA.REPUL>
0

>  <SCORE.INTRA.REPUL.0>
0

>  <SCORE.INTRA.SOLV>
0.388993

>  <SCORE.INTRA.SOLV.lig_0>
-38.4926

>  <SCORE.INTRA.VDW>
-0.822111

>  <SCORE.INTRA.VDW.0>
-0.59057

>  <SCORE.INTRA.norm>
-0.165467

>  <SCORE.RESTR>
0

>  <SCORE.RESTR.CAVITY>
0

>  <SCORE.RESTR.norm>
0

>  <SCORE.SYSTEM>
0

>  <SCORE.SYSTEM.CONST>
0

>  <SCORE.SYSTEM.DIHEDRAL>
0

>  <SCORE.SYSTEM.SOLV>
0

>  <SCORE.SYSTEM.norm>
0

>  <SCORE.heavy>
19

>  <SCORE.norm>
-0.935125

>  <RMSD>
6.123

$$$$
ligand
 OpenBabel11021811483D
libRbt.so/2013.1/901 2013/11/27
 19 21  0  0  0  0  0  0  0  0999 V2000
  -10.4911   -5.9262    8.0543 C   0  0  0  0  0  0  0  0  0  0  0  0
  -10.4650   -6.2077    9.4616 O   0  0  0  0  0  0  0  0  0  0  0  0
  -10.0363   -7.1508    7.2571 C   0  0  1  0  0  0  0  0  0  0  0  0
   -8.7082   -7.5487    7.6481 O   0  0  0  0  0  0  0  0  0  0  0  0
  -10.9511   -8.3365    7.5084 C   0  0  1  0  0  0  0  0  0  0  0  0
  -11.8316   -8.5546    6.3990 O   0  0  0  0  0  0  0  0  0  0  0  0
  -10.0375   -9.5273    7.7019 C   0  0  0  0  0  0  0  0  0  0  0  0
   -8.6486   -8.9528    7.9389 C   0  0  2  0  0  0  0  0  0  0  0  0
   -6.6411   -6.6667   12.2211 N   0  0  0  0  0  0  0  0  0  0  0  0
   -6.9081   -6.1384   10.9964 C   0  0  1  0  0  0  0  0  0  0  0  0
   -6.6410   -4.8300   10.7714 N   0  0  0  0  0  0  0  0  0  0  0  0
   -7.4323   -6.8937    9.9930 N   0  0  0  0  0  0  0  0  0  0  0  0
   -7.7170   -8.2130   10.1656 C   0  0  2  0  0  0  0  0  0  0  0  0
   -7.4655   -8.8048   11.3903 C   0  0  1  0  0  0  0  0  0  0  0  0
   -6.8953   -7.9689   12.4774 C   0  0  0  0  0  0  0  0  0  0  0  0
   -6.6557   -8.4571   13.6045 O   0  0  0  0  0  0  0  0  0  0  0  0
   -7.8340  -10.0949   11.3060 N   0  0  0  0  0  0  0  0  0  0  0  0
   -8.2993  -10.3033   10.0521 C   0  0  0  0  0  0  0  0  0  0  0  0
   -8.2265   -9.1538    9.3566 N   0  0  1  0  0  0  0  0  0  0  0  0
  1  2  1  0  0  0  0
  3  1  1  1  0  0  0
  3  4  1  0  0  0  0
  3  5  1  0  0  0  0
  5  6  1  6  0  0  0
  5  7  1  0  0  0  0
  7  8  1  0  0  0  0
  8  4  1  1  0  0  0
  8 19  1  0  0  0  0
  9 15  1  0  0  0  0
  9 10  1  0  0  0  0
 10 11  1  6  0  0  0
 10 12  1  0  0  0  0
 13 12  1  6  0  0  0
 13 14  1  0  0  0  0
 13 19  1  0  0  0  0
 14 15  1  1  0  0  0
 14 17  1  0  0  0  0
 15 16  2  0  0  0  0
 17 18  1  0  0  0  0
 19 18  1  1  0  0  0
M  END
>  <CHROM.1>
-58.33686680,-12.61088855,-8.57306849,-7.85621400,9.66095204,-3.13775855
0.90748083,3.05624824

>  <Name>
ligand

>  <RI>
0

>  <Rbt.Current_Directory>
/home/itssahil/PROJECTS/Mol_Feturizer/New_Systems/rnas/3SKI

>  <Rbt.Executable>
rbdock ($Id: //depot/dev/client3/rdock/2013.1/src/exe/rbdock.cxx#4 $)

>  <Rbt.Library>
libRbt.so (2013.1, Build901 2013/11/27)

>  <Rbt.Parameter_File>
/export/apps/rDock/src/rDock_2013.1_src/data/scripts/dock_solv.prm

>  <Rbt.Receptor>
prm/pocket_docking_5.prm

>  <SCORE>
-17.292

>  <SCORE.INTER>
-14.1488

>  <SCORE.INTER.CONST>
1

>  <SCORE.INTER.POLAR>
0

>  <SCORE.INTER.ROT>
2

>  <SCORE.INTER.SOLV>
9.48785

>  <SCORE.INTER.VDW>
-17.5285

>  <SCORE.INTER.norm>
-0.744674

>  <SCORE.INTRA>
-3.14316

>  <SCORE.INTRA.DIHEDRAL>
-5.04336

>  <SCORE.INTRA.DIHEDRAL.0>
6.26853

>  <SCORE.INTRA.POLAR>
0

>  <SCORE.INTRA.POLAR.0>
0

>  <SCORE.INTRA.REPUL>
0

>  <SCORE.INTRA.REPUL.0>
0

>  <SCORE.INTRA.SOLV>
0.460893

>  <SCORE.INTRA.SOLV.lig_0>
-38.4926

>  <SCORE.INTRA.VDW>
-0.851923

>  <SCORE.INTRA.VDW.0>
-0.59057

>  <SCORE.INTRA.norm>
-0.165429

>  <SCORE.RESTR>
0

>  <SCORE.RESTR.CAVITY>
0

>  <SCORE.RESTR.norm>
0

>  <SCORE.SYSTEM>
0

>  <SCORE.SYSTEM.CONST>
0

>  <SCORE.SYSTEM.DIHEDRAL>
0

>  <SCORE.SYSTEM.SOLV>
0

>  <SCORE.SYSTEM.norm>
0

>  <SCORE.heavy>
19

>  <SCORE.norm>
-0.910104

>  <RMSD>
6.124

$$$$
ligand
 OpenBabel11021811483D
libRbt.so/2013.1/901 2013/11/27
 19 21  0  0  0  0  0  0  0  0999 V2000
   -7.3972   -9.7046   10.7162 C   0  0  0  0  0  0  0  0  0  0  0  0
   -8.6781   -9.0577   10.6882 O   0  0  0  0  0  0  0  0  0  0  0  0
   -6.2755   -8.6723   10.5819 C   0  0  1  0  0  0  0  0  0  0  0  0
   -6.4242   -7.9135    9.3665 O   0  0  0  0  0  0  0  0  0  0  0  0
   -6.3031   -7.6830   11.7335 C   0  0  1  0  0  0  0  0  0  0  0  0
   -5.2637   -7.9618   12.6799 O   0  0  0  0  0  0  0  0  0  0  0  0
   -6.0998   -6.3194   11.1096 C   0  0  0  0  0  0  0  0  0  0  0  0
   -6.3417   -6.5031    9.6185 C   0  0  2  0  0  0  0  0  0  0  0  0
  -10.9909   -7.1695    7.2662 N   0  0  0  0  0  0  0  0  0  0  0  0
   -9.9891   -8.0636    7.4832 C   0  0  1  0  0  0  0  0  0  0  0  0
  -10.1409   -9.3392    7.0545 N   0  0  0  0  0  0  0  0  0  0  0  0
   -8.8386   -7.7055    8.1158 N   0  0  0  0  0  0  0  0  0  0  0  0
   -8.6345   -6.4371    8.5641 C   0  0  2  0  0  0  0  0  0  0  0  0
   -9.6187   -5.4847    8.3706 C   0  0  1  0  0  0  0  0  0  0  0  0
  -10.8702   -5.8889    7.6806 C   0  0  0  0  0  0  0  0  0  0  0  0
  -11.7919   -5.0649    7.4873 O   0  0  0  0  0  0  0  0  0  0  0  0
   -9.1822   -4.3297    8.9024 N   0  0  0  0  0  0  0  0  0  0  0  0
   -7.9485   -4.5573    9.4108 C   0  0  0  0  0  0  0  0  0  0  0  0
   -7.6150   -5.8441    9.2028 N   0  0  1  0  0  0  0  0  0  0  0  0
  1  2  1  0  0  0  0
  3  1  1  1  0  0  0
  3  4  1  0  0  0  0
  3  5  1  0  0  0  0
  5  6  1  1  0  0  0
  5  7  1  0  0  0  0
  7  8  1  0  0  0  0
  8  4  1  1  0  0  0
  8 19  1  0  0  0  0
  9 15  1  0  0  0  0
  9 10  1  0  0  0  0
 10 11  1  6  0  0  0
 10 12  1  0  0  0  0
 13 12  1  6  0  0  0
 13 14  1  0  0  0  0
 13 19  1  0  0  0  0
 14 15  1  1  0  0  0
 14 17  1  0  0  0  0
 15 16  2  0  0  0  0
 17 18  1  0  0  0  0
 19 18  1  1  0  0  0
M  END
>  <CHROM.1>
-57.64309521,-6.40456667,-8.30967930,-7.08080558,9.31039407,0.29438540,0.68829019
3.12595084

>  <Name>
ligand

>  <RI>
0

>  <Rbt.Current_Directory>
/home/itssahil/PROJECTS/Mol_Feturizer/New_Systems/rnas/3SKI

>  <Rbt.Executable>
rbdock ($Id: //depot/dev/client3/rdock/2013.1/src/exe/rbdock.cxx#4 $)

>  <Rbt.Library>
libRbt.so (2013.1, Build901 2013/11/27)

>  <Rbt.Parameter_File>
/export/apps/rDock/src/rDock_2013.1_src/data/scripts/dock_solv.prm

>  <Rbt.Receptor>
prm/pocket_docking_8.prm

>  <SCORE>
-12.3877

>  <SCORE.INTER>
-9.36056

>  <SCORE.INTER.CONST>
1

>  <SCORE.INTER.POLAR>
0

>  <SCORE.INTER.ROT>
2

>  <SCORE.INTER.SOLV>
12.6726

>  <SCORE.INTER.VDW>
-15.3979

>  <SCORE.INTER.norm>
-0.492661

>  <SCORE.INTRA>
-3.02711

>  <SCORE.INTRA.DIHEDRAL>
-5.03831

>  <SCORE.INTRA.DIHEDRAL.0>
6.26853

>  <SCORE.INTRA.POLAR>
0

>  <SCORE.INTRA.POLAR.0>
0

>  <SCORE.INTRA.REPUL>
0

>  <SCORE.INTRA.REPUL.0>
0

>  <SCORE.INTRA.SOLV>
1.05685

>  <SCORE.INTRA.SOLV.lig_0>
-38.4926

>  <SCORE.INTRA.VDW>
-1.03638

>  <SCORE.INTRA.VDW.0>
-0.59057

>  <SCORE.INTRA.norm>
-0.159321

>  <SCORE.RESTR>
0

>  <SCORE.RESTR.CAVITY>
0

>  <SCORE.RESTR.norm>
0

>  <SCORE.SYSTEM>
0

>  <SCORE.SYSTEM.CONST>
0

>  <SCORE.SYSTEM.DIHEDRAL>
0

>  <SCORE.SYSTEM.SOLV>
0

>  <SCORE.SYSTEM.norm>
0

>  <SCORE.heavy>
19

>  <SCORE.norm>
-0.651983

>  <RMSD>
6.124

$$$$
ligand
 OpenBabel11021811483D
libRbt.so/2013.1/901 2013/11/27
 19 21  0  0  0  0  0  0  0  0999 V2000
  -10.4655   -5.9101    8.0113 C   0  0  0  0  0  0  0  0  0  0  0  0
  -10.4447   -6.1746    9.4219 O   0  0  0  0  0  0  0  0  0  0  0  0
  -10.0365   -7.1536    7.2293 C   0  0  1  0  0  0  0  0  0  0  0  0
   -8.7138   -7.5696    7.6194 O   0  0  0  0  0  0  0  0  0  0  0  0
  -10.9709   -8.3192    7.5015 C   0  0  1  0  0  0  0  0  0  0  0  0
  -11.8607   -8.5370    6.3995 O   0  0  0  0  0  0  0  0  0  0  0  0
  -10.0777   -9.5233    7.7074 C   0  0  0  0  0  0  0  0  0  0  0  0
   -8.6776   -8.9703    7.9297 C   0  0  2  0  0  0  0  0  0  0  0  0
   -6.6387   -6.6526   12.1799 N   0  0  0  0  0  0  0  0  0  0  0  0
   -6.9061   -6.1357   10.9504 C   0  0  1  0  0  0  0  0  0  0  0  0
   -6.6301   -4.8318   10.7103 N   0  0  0  0  0  0  0  0  0  0  0  0
   -7.4392   -6.8980    9.9571 N   0  0  0  0  0  0  0  0  0  0  0  0
   -7.7329   -8.2132   10.1450 C   0  0  2  0  0  0  0  0  0  0  0  0
   -7.4815   -8.7935   11.3752 C   0  0  1  0  0  0  0  0  0  0  0  0
   -6.9014   -7.9501   12.4512 C   0  0  0  0  0  0  0  0  0  0  0  0
   -6.6615   -8.4277   13.5828 O   0  0  0  0  0  0  0  0  0  0  0  0
   -7.8597  -10.0817   11.3063 N   0  0  0  0  0  0  0  0  0  0  0  0
   -8.3308  -10.3003   10.0563 C   0  0  0  0  0  0  0  0  0  0  0  0
   -8.2521   -9.1590    9.3481 N   0  0  1  0  0  0  0  0  0  0  0  0
  1  2  1  0  0  0  0
  3  1  1  1  0  0  0
  3  4  1  0  0  0  0
  3  5  1  0  0  0  0
  5  6  1  6  0  0  0
  5  7  1  0  0  0  0
  7  8  1  0  0  0  0
  8  4  1  1  0  0  0
  8 19  1  0  0  0  0
  9 15  1  0  0  0  0
  9 10  1  0  0  0  0
 10 11  1  6  0  0  0
 10 12  1  0  0  0  0
 13 12  1  6  0  0  0
 13 14  1  0  0  0  0
 13 19  1  0  0  0  0
 14 15  1  1  0  0  0
 14 17  1  0  0  0  0
 15 16  2  0  0  0  0
 17 18  1  0  0  0  0
 19 18  1  1  0  0  0
M  END
>  <CHROM.1>
-58.66377780,-11.97927242,-8.58303375,-7.84913974,9.63863611,-3.12008953
0.90484769,3.03328273

>  <Name>
ligand

>  <RI>
0

>  <Rbt.Current_Directory>
/home/itssahil/PROJECTS/Mol_Feturizer/New_Systems/rnas/3SKI

>  <Rbt.Executable>
rbdock ($Id: //depot/dev/client3/rdock/2013.1/src/exe/rbdock.cxx#4 $)

>  <Rbt.Library>
libRbt.so (2013.1, Build901 2013/11/27)

>  <Rbt.Parameter_File>
/export/apps/rDock/src/rDock_2013.1_src/data/scripts/dock_solv.prm

>  <Rbt.Receptor>
prm/pocket_docking_5.prm

>  <SCORE>
-17.2976

>  <SCORE.INTER>
-14.1588

>  <SCORE.INTER.CONST>
1

>  <SCORE.INTER.POLAR>
0

>  <SCORE.INTER.ROT>
2

>  <SCORE.INTER.SOLV>
9.36913

>  <SCORE.INTER.VDW>
-17.4956

>  <SCORE.INTER.norm>
-0.745202

>  <SCORE.INTRA>
-3.13872

>  <SCORE.INTRA.DIHEDRAL>
-5.04751

>  <SCORE.INTRA.DIHEDRAL.0>
6.26853

>  <SCORE.INTRA.POLAR>
0

>  <SCORE.INTRA.POLAR.0>
0

>  <SCORE.INTRA.REPUL>
0

>  <SCORE.INTRA.REPUL.0>
0

>  <SCORE.INTRA.SOLV>
0.497386

>  <SCORE.INTRA.SOLV.lig_0>
-38.4926

>  <SCORE.INTRA.VDW>
-0.863661

>  <SCORE.INTRA.VDW.0>
-0.59057

>  <SCORE.INTRA.norm>
-0.165196

>  <SCORE.RESTR>
0

>  <SCORE.RESTR.CAVITY>
0

>  <SCORE.RESTR.norm>
0

>  <SCORE.SYSTEM>
0

>  <SCORE.SYSTEM.CONST>
0

>  <SCORE.SYSTEM.DIHEDRAL>
0

>  <SCORE.SYSTEM.SOLV>
0

>  <SCORE.SYSTEM.norm>
0

>  <SCORE.heavy>
19

>  <SCORE.norm>
-0.910398

>  <RMSD>
6.126

$$$$
ligand
 OpenBabel11021811483D
libRbt.so/2013.1/901 2013/11/27
 19 21  0  0  0  0  0  0  0  0999 V2000
   -5.2220   -7.7858   13.9762 C   0  0  0  0  0  0  0  0  0  0  0  0
   -5.5054   -6.4834   13.4434 O   0  0  0  0  0  0  0  0  0  0  0  0
   -5.8514   -8.8696   13.0980 C   0  0  1  0  0  0  0  0  0  0  0  0
   -7.2751   -8.6772   12.9932 O   0  0  0  0  0  0  0  0  0  0  0  0
   -5.2887   -8.8252   11.6883 C   0  0  1  0  0  0  0  0  0  0  0  0
   -4.3512   -9.8872   11.4720 O   0  0  0  0  0  0  0  0  0  0  0  0
   -6.4788   -8.9726   10.7653 C   0  0  0  0  0  0  0  0  0  0  0  0
   -7.7075   -8.7153   11.6252 C   0  0  2  0  0  0  0  0  0  0  0  0
  -11.1744   -6.3176    8.4908 N   0  0  0  0  0  0  0  0  0  0  0  0
  -10.8104   -7.6270    8.5453 C   0  0  1  0  0  0  0  0  0  0  0  0
  -11.3860   -8.5064    7.6912 N   0  0  0  0  0  0  0  0  0  0  0  0
   -9.8801   -8.0721    9.4333 N   0  0  0  0  0  0  0  0  0  0  0  0
   -9.2701   -7.2303   10.3113 C   0  0  2  0  0  0  0  0  0  0  0  0
   -9.6000   -5.8871   10.3012 C   0  0  1  0  0  0  0  0  0  0  0  0
  -10.6181   -5.4148    9.3285 C   0  0  0  0  0  0  0  0  0  0  0  0
  -10.9543   -4.2102    9.2847 O   0  0  0  0  0  0  0  0  0  0  0  0
   -8.8730   -5.2788   11.2545 N   0  0  0  0  0  0  0  0  0  0  0  0
   -8.1015   -6.2235   11.8415 C   0  0  0  0  0  0  0  0  0  0  0  0
   -8.3443   -7.4143   11.2642 N   0  0  1  0  0  0  0  0  0  0  0  0
  1  2  1  0  0  0  0
  3  1  1  1  0  0  0
  3  4  1  0  0  0  0
  3  5  1  0  0  0  0
  5  6  1  1  0  0  0
  5  7  1  0  0  0  0
  7  8  1  0  0  0  0
  8  4  1  1  0  0  0
  8 19  1  0  0  0  0
  9 15  1  0  0  0  0
  9 10  1  0  0  0  0
 10 11  1  6  0  0  0
 10 12  1  0  0  0  0
 13 12  1  6  0  0  0
 13 14  1  0  0  0  0
 13 19  1  0  0  0  0
 14 15  1  1  0  0  0
 14 17  1  0  0  0  0
 15 16  2  0  0  0  0
 17 18  1  0  0  0  0
 19 18  1  1  0  0  0
M  END
>  <CHROM.1>
-57.85461293,-153.76391441,-8.17673040,-7.40608594,10.92982852,-0.01604640
-0.68324761,0.50289809

>  <Name>
ligand

>  <RI>
0

>  <Rbt.Current_Directory>
/home/itssahil/PROJECTS/Mol_Feturizer/New_Systems/rnas/3SKI

>  <Rbt.Executable>
rbdock ($Id: //depot/dev/client3/rdock/2013.1/src/exe/rbdock.cxx#4 $)

>  <Rbt.Library>
libRbt.so (2013.1, Build901 2013/11/27)

>  <Rbt.Parameter_File>
/export/apps/rDock/src/rDock_2013.1_src/data/scripts/dock_solv.prm

>  <Rbt.Receptor>
prm/pocket_docking_5.prm

>  <SCORE>
-14.8473

>  <SCORE.INTER>
-11.7699

>  <SCORE.INTER.CONST>
1

>  <SCORE.INTER.POLAR>
0

>  <SCORE.INTER.ROT>
2

>  <SCORE.INTER.SOLV>
10.412

>  <SCORE.INTER.VDW>
-16.2506

>  <SCORE.INTER.norm>
-0.619466

>  <SCORE.INTRA>
-3.07742

>  <SCORE.INTRA.DIHEDRAL>
-5.03

>  <SCORE.INTRA.DIHEDRAL.0>
6.26853

>  <SCORE.INTRA.POLAR>
0

>  <SCORE.INTRA.POLAR.0>
0

>  <SCORE.INTRA.REPUL>
0

>  <SCORE.INTRA.REPUL.0>
0

>  <SCORE.INTRA.SOLV>
0.292322

>  <SCORE.INTRA.SOLV.lig_0>
-38.4926

>  <SCORE.INTRA.VDW>
-0.708579

>  <SCORE.INTRA.VDW.0>
-0.59057

>  <SCORE.INTRA.norm>
-0.161969

>  <SCORE.RESTR>
0

>  <SCORE.RESTR.CAVITY>
0

>  <SCORE.RESTR.norm>
0

>  <SCORE.SYSTEM>
0

>  <SCORE.SYSTEM.CONST>
0

>  <SCORE.SYSTEM.DIHEDRAL>
0

>  <SCORE.SYSTEM.SOLV>
0

>  <SCORE.SYSTEM.norm>
0

>  <SCORE.heavy>
19

>  <SCORE.norm>
-0.781435

>  <RMSD>
6.129

$$$$
ligand
 OpenBabel11021811483D
libRbt.so/2013.1/901 2013/11/27
 19 21  0  0  0  0  0  0  0  0999 V2000
  -10.4773   -5.9228    8.0312 C   0  0  0  0  0  0  0  0  0  0  0  0
  -10.4846   -6.2118    9.4371 O   0  0  0  0  0  0  0  0  0  0  0  0
  -10.0357   -7.1535    7.2361 C   0  0  1  0  0  0  0  0  0  0  0  0
   -8.7086   -7.5599    7.6218 O   0  0  0  0  0  0  0  0  0  0  0  0
  -10.9580   -8.3315    7.4962 C   0  0  1  0  0  0  0  0  0  0  0  0
  -11.8457   -8.5469    6.3920 O   0  0  0  0  0  0  0  0  0  0  0  0
  -10.0523   -9.5284    7.6893 C   0  0  0  0  0  0  0  0  0  0  0  0
   -8.6579   -8.9634    7.9173 C   0  0  2  0  0  0  0  0  0  0  0  0
   -6.6214   -6.6747   12.1844 N   0  0  0  0  0  0  0  0  0  0  0  0
   -6.8919   -6.1484   10.9596 C   0  0  1  0  0  0  0  0  0  0  0  0
   -6.6203   -4.8417   10.7301 N   0  0  0  0  0  0  0  0  0  0  0  0
   -7.4237   -6.9041    9.9605 N   0  0  0  0  0  0  0  0  0  0  0  0
   -7.7131   -8.2218   10.1378 C   0  0  2  0  0  0  0  0  0  0  0  0
   -7.4585   -8.8115   11.3628 C   0  0  1  0  0  0  0  0  0  0  0  0
   -6.8798   -7.9753   12.4452 C   0  0  0  0  0  0  0  0  0  0  0  0
   -6.6371   -8.4616   13.5724 O   0  0  0  0  0  0  0  0  0  0  0  0
   -7.8327  -10.1003   11.2836 N   0  0  0  0  0  0  0  0  0  0  0  0
   -8.3046  -10.3099   10.0323 C   0  0  0  0  0  0  0  0  0  0  0  0
   -8.2302   -9.1625    9.3336 N   0  0  1  0  0  0  0  0  0  0  0  0
  1  2  1  0  0  0  0
  3  1  1  1  0  0  0
  3  4  1  0  0  0  0
  3  5  1  0  0  0  0
  5  6  1  6  0  0  0
  5  7  1  0  0  0  0
  7  8  1  0  0  0  0
  8  4  1  1  0  0  0
  8 19  1  0  0  0  0
  9 15  1  0  0  0  0
  9 10  1  0  0  0  0
 10 11  1  6  0  0  0
 10 12  1  0  0  0  0
 13 12  1  6  0  0  0
 13 14  1  0  0  0  0
 13 19  1  0  0  0  0
 14 15  1  1  0  0  0
 14 17  1  0  0  0  0
 15 16  2  0  0  0  0
 17 18  1  0  0  0  0
 19 18  1  1  0  0  0
M  END
>  <CHROM.1>
-60.05858937,-12.41242246,-8.57063719,-7.86137446,9.63581910,-3.13060263
0.90230152,3.04957079

>  <Name>
ligand

>  <RI>
0

>  <Rbt.Current_Directory>
/home/itssahil/PROJECTS/Mol_Feturizer/New_Systems/rnas/3SKI

>  <Rbt.Executable>
rbdock ($Id: //depot/dev/client3/rdock/2013.1/src/exe/rbdock.cxx#4 $)

>  <Rbt.Library>
libRbt.so (2013.1, Build901 2013/11/27)

>  <Rbt.Parameter_File>
/export/apps/rDock/src/rDock_2013.1_src/data/scripts/dock_solv.prm

>  <Rbt.Receptor>
prm/pocket_docking_5.prm

>  <SCORE>
-17.2813

>  <SCORE.INTER>
-14.1324

>  <SCORE.INTER.CONST>
1

>  <SCORE.INTER.POLAR>
0

>  <SCORE.INTER.ROT>
2

>  <SCORE.INTER.SOLV>
9.48163

>  <SCORE.INTER.VDW>
-17.5155

>  <SCORE.INTER.norm>
-0.74381

>  <SCORE.INTRA>
-3.14899

>  <SCORE.INTRA.DIHEDRAL>
-5.05411

>  <SCORE.INTRA.DIHEDRAL.0>
6.26853

>  <SCORE.INTRA.POLAR>
0

>  <SCORE.INTRA.POLAR.0>
0

>  <SCORE.INTRA.REPUL>
0

>  <SCORE.INTRA.REPUL.0>
0

>  <SCORE.INTRA.SOLV>
0.422667

>  <SCORE.INTRA.SOLV.lig_0>
-38.4926

>  <SCORE.INTRA.VDW>
-0.833272

>  <SCORE.INTRA.VDW.0>
-0.59057

>  <SCORE.INTRA.norm>
-0.165736

>  <SCORE.RESTR>
5.22378e-05

>  <SCORE.RESTR.CAVITY>
5.22378e-05

>  <SCORE.RESTR.norm>
2.74936e-06

>  <SCORE.SYSTEM>
0

>  <SCORE.SYSTEM.CONST>
0

>  <SCORE.SYSTEM.DIHEDRAL>
0

>  <SCORE.SYSTEM.SOLV>
0

>  <SCORE.SYSTEM.norm>
0

>  <SCORE.heavy>
19

>  <SCORE.norm>
-0.909544

>  <RMSD>
6.129

$$$$
ligand
 OpenBabel11021811483D
libRbt.so/2013.1/901 2013/11/27
 19 21  0  0  0  0  0  0  0  0999 V2000
   -4.7039   -7.9482   13.4796 C   0  0  0  0  0  0  0  0  0  0  0  0
   -5.0002   -7.8250   14.8786 O   0  0  0  0  0  0  0  0  0  0  0  0
   -5.5727   -9.0362   12.8444 C   0  0  1  0  0  0  0  0  0  0  0  0
   -6.9707   -8.7195   12.9866 O   0  0  0  0  0  0  0  0  0  0  0  0
   -5.2910   -9.1612   11.3575 C   0  0  1  0  0  0  0  0  0  0  0  0
   -4.4977  -10.3212   11.0771 O   0  0  0  0  0  0  0  0  0  0  0  0
   -6.6446   -9.2709   10.6900 C   0  0  0  0  0  0  0  0  0  0  0  0
   -7.6607   -8.8288   11.7329 C   0  0  2  0  0  0  0  0  0  0  0  0
  -11.0500   -6.3213    8.5996 N   0  0  0  0  0  0  0  0  0  0  0  0
  -10.7316   -7.6425    8.6571 C   0  0  1  0  0  0  0  0  0  0  0  0
  -11.3394   -8.5038    7.8070 N   0  0  0  0  0  0  0  0  0  0  0  0
   -9.8151   -8.1169    9.5443 N   0  0  0  0  0  0  0  0  0  0  0  0
   -9.1741   -7.2944   10.4183 C   0  0  2  0  0  0  0  0  0  0  0  0
   -9.4573   -5.9405   10.4050 C   0  0  1  0  0  0  0  0  0  0  0  0
  -10.4608   -5.4360    9.4334 C   0  0  0  0  0  0  0  0  0  0  0  0
  -10.7551   -4.2206    9.3868 O   0  0  0  0  0  0  0  0  0  0  0  0
   -8.7073   -5.3551   11.3548 N   0  0  0  0  0  0  0  0  0  0  0  0
   -7.9675   -6.3242   11.9428 C   0  0  0  0  0  0  0  0  0  0  0  0
   -8.2529   -7.5076   11.3696 N   0  0  1  0  0  0  0  0  0  0  0  0
  1  2  1  0  0  0  0
  3  1  1  6  0  0  0
  3  4  1  0  0  0  0
  3  5  1  0  0  0  0
  5  6  1  1  0  0  0
  5  7  1  0  0  0  0
  7  8  1  0  0  0  0
  8  4  1  1  0  0  0
  8 19  1  0  0  0  0
  9 15  1  0  0  0  0
  9 10  1  0  0  0  0
 10 11  1  6  0  0  0
 10 12  1  0  0  0  0
 13 12  1  6  0  0  0
 13 14  1  0  0  0  0
 13 19  1  0  0  0  0
 14 15  1  1  0  0  0
 14 17  1  0  0  0  0
 15 16  2  0  0  0  0
 17 18  1  0  0  0  0
 19 18  1  1  0  0  0
M  END
>  <CHROM.1>
59.97884649,-166.04619718,-8.03443818,-7.59679803,10.99827673,0.01299448
-0.69924247,0.60369509

>  <Name>
ligand

>  <RI>
0

>  <Rbt.Current_Directory>
/home/itssahil/PROJECTS/Mol_Feturizer/New_Systems/rnas/3SKI

>  <Rbt.Executable>
rbdock ($Id: //depot/dev/client3/rdock/2013.1/src/exe/rbdock.cxx#4 $)

>  <Rbt.Library>
libRbt.so (2013.1, Build901 2013/11/27)

>  <Rbt.Parameter_File>
/export/apps/rDock/src/rDock_2013.1_src/data/scripts/dock_solv.prm

>  <Rbt.Receptor>
prm/pocket_docking_6.prm

>  <SCORE>
-14.5567

>  <SCORE.INTER>
-11.4512

>  <SCORE.INTER.CONST>
1

>  <SCORE.INTER.POLAR>
0

>  <SCORE.INTER.ROT>
2

>  <SCORE.INTER.SOLV>
10.558

>  <SCORE.INTER.VDW>
-16.0868

>  <SCORE.INTER.norm>
-0.602697

>  <SCORE.INTRA>
-3.1055

>  <SCORE.INTRA.DIHEDRAL>
-5.05339

>  <SCORE.INTRA.DIHEDRAL.0>
6.26853

>  <SCORE.INTRA.POLAR>
0

>  <SCORE.INTRA.POLAR.0>
0

>  <SCORE.INTRA.REPUL>
0

>  <SCORE.INTRA.REPUL.0>
0

>  <SCORE.INTRA.SOLV>
-0.237215

>  <SCORE.INTRA.SOLV.lig_0>
-38.4926

>  <SCORE.INTRA.VDW>
-0.4602

>  <SCORE.INTRA.VDW.0>
-0.59057

>  <SCORE.INTRA.norm>
-0.163448

>  <SCORE.RESTR>
0

>  <SCORE.RESTR.CAVITY>
0

>  <SCORE.RESTR.norm>
0

>  <SCORE.SYSTEM>
0

>  <SCORE.SYSTEM.CONST>
0

>  <SCORE.SYSTEM.DIHEDRAL>
0

>  <SCORE.SYSTEM.SOLV>
0

>  <SCORE.SYSTEM.norm>
0

>  <SCORE.heavy>
19

>  <SCORE.norm>
-0.766144

>  <RMSD>
6.134

$$$$
ligand
 OpenBabel11021811483D
libRbt.so/2013.1/901 2013/11/27
 19 21  0  0  0  0  0  0  0  0999 V2000
  -10.7066   -6.1122    7.8110 C   0  0  0  0  0  0  0  0  0  0  0  0
  -10.6178   -6.3096    9.2299 O   0  0  0  0  0  0  0  0  0  0  0  0
  -10.2053   -7.3524    7.0677 C   0  0  1  0  0  0  0  0  0  0  0  0
   -8.8576   -7.6729    7.4626 O   0  0  0  0  0  0  0  0  0  0  0  0
  -11.0647   -8.5635    7.3845 C   0  0  1  0  0  0  0  0  0  0  0  0
  -11.9444   -8.8724    6.2963 O   0  0  0  0  0  0  0  0  0  0  0  0
  -10.0979   -9.7028    7.6242 C   0  0  0  0  0  0  0  0  0  0  0  0
   -8.7335   -9.0576    7.8188 C   0  0  2  0  0  0  0  0  0  0  0  0
   -6.6871   -6.5100   11.9316 N   0  0  0  0  0  0  0  0  0  0  0  0
   -6.9750   -6.0563   10.6820 C   0  0  1  0  0  0  0  0  0  0  0  0
   -6.7216   -4.7613   10.3773 N   0  0  0  0  0  0  0  0  0  0  0  0
   -7.5065   -6.8729    9.7319 N   0  0  0  0  0  0  0  0  0  0  0  0
   -7.7780   -8.1819    9.9852 C   0  0  2  0  0  0  0  0  0  0  0  0
   -7.5051   -8.6991   11.2387 C   0  0  1  0  0  0  0  0  0  0  0  0
   -6.9271   -7.7969   12.2671 C   0  0  0  0  0  0  0  0  0  0  0  0
   -6.6683   -8.2165   13.4173 O   0  0  0  0  0  0  0  0  0  0  0  0
   -7.8641   -9.9946   11.2351 N   0  0  0  0  0  0  0  0  0  0  0  0
   -8.3446  -10.2795   10.0022 C   0  0  0  0  0  0  0  0  0  0  0  0
   -8.2907   -9.1721    9.2398 N   0  0  1  0  0  0  0  0  0  0  0  0
  1  2  1  0  0  0  0
  3  1  1  1  0  0  0
  3  4  1  0  0  0  0
  3  5  1  0  0  0  0
  5  6  1  6  0  0  0
  5  7  1  0  0  0  0
  7  8  1  0  0  0  0
  8  4  1  1  0  0  0
  8 19  1  0  0  0  0
  9 15  1  0  0  0  0
  9 10  1  0  0  0  0
 10 11  1  6  0  0  0
 10 12  1  0  0  0  0
 13 12  1  6  0  0  0
 13 14  1  0  0  0  0
 13 19  1  0  0  0  0
 14 15  1  1  0  0  0
 14 17  1  0  0  0  0
 15 16  2  0  0  0  0
 17 18  1  0  0  0  0
 19 18  1  1  0  0  0
M  END
>  <CHROM.1>
-56.59020975,-14.78370424,-8.65944401,-7.88411689,9.47638711,3.10942598,0.88977348
3.01930135

>  <Name>
ligand

>  <RI>
0

>  <Rbt.Current_Directory>
/home/itssahil/PROJECTS/Mol_Feturizer/New_Systems/rnas/3SKI

>  <Rbt.Executable>
rbdock ($Id: //depot/dev/client3/rdock/2013.1/src/exe/rbdock.cxx#4 $)

>  <Rbt.Library>
libRbt.so (2013.1, Build901 2013/11/27)

>  <Rbt.Parameter_File>
/export/apps/rDock/src/rDock_2013.1_src/data/scripts/dock_solv.prm

>  <Rbt.Receptor>
prm/blind_docking_40.prm

>  <SCORE>
-17.757

>  <SCORE.INTER>
-14.6276

>  <SCORE.INTER.CONST>
1

>  <SCORE.INTER.POLAR>
0

>  <SCORE.INTER.ROT>
2

>  <SCORE.INTER.SOLV>
9.12673

>  <SCORE.INTER.VDW>
-17.7273

>  <SCORE.INTER.norm>
-0.769872

>  <SCORE.INTRA>
-3.12941

>  <SCORE.INTRA.DIHEDRAL>
-5.00924

>  <SCORE.INTRA.DIHEDRAL.0>
6.26853

>  <SCORE.INTRA.POLAR>
0

>  <SCORE.INTRA.POLAR.0>
0

>  <SCORE.INTRA.REPUL>
0

>  <SCORE.INTRA.REPUL.0>
0

>  <SCORE.INTRA.SOLV>
0.386188

>  <SCORE.INTRA.SOLV.lig_0>
-38.4926

>  <SCORE.INTRA.VDW>
-0.817884

>  <SCORE.INTRA.VDW.0>
-0.59057

>  <SCORE.INTRA.norm>
-0.164706

>  <SCORE.RESTR>
0

>  <SCORE.RESTR.CAVITY>
0

>  <SCORE.RESTR.norm>
0

>  <SCORE.SYSTEM>
0

>  <SCORE.SYSTEM.CONST>
0

>  <SCORE.SYSTEM.DIHEDRAL>
0

>  <SCORE.SYSTEM.SOLV>
0

>  <SCORE.SYSTEM.norm>
0

>  <SCORE.heavy>
19

>  <SCORE.norm>
-0.934578

>  <RMSD>
6.135

$$$$
ligand
 OpenBabel11021811483D
libRbt.so/2013.1/901 2013/11/27
 19 21  0  0  0  0  0  0  0  0999 V2000
  -10.4033   -5.9843    8.0322 C   0  0  0  0  0  0  0  0  0  0  0  0
  -10.4183   -6.2539    9.4419 O   0  0  0  0  0  0  0  0  0  0  0  0
   -9.9814   -7.2332    7.2550 C   0  0  1  0  0  0  0  0  0  0  0  0
   -8.6560   -7.6478    7.6376 O   0  0  0  0  0  0  0  0  0  0  0  0
  -10.9146   -8.3963    7.5421 C   0  0  1  0  0  0  0  0  0  0  0  0
  -11.8131   -8.6205    6.4484 O   0  0  0  0  0  0  0  0  0  0  0  0
  -10.0207   -9.5997    7.7489 C   0  0  0  0  0  0  0  0  0  0  0  0
   -8.6185   -9.0465    7.9567 C   0  0  2  0  0  0  0  0  0  0  0  0
   -6.5913   -6.6907   12.1915 N   0  0  0  0  0  0  0  0  0  0  0  0
   -6.8736   -6.1800   10.9628 C   0  0  1  0  0  0  0  0  0  0  0  0
   -6.6190   -4.8724   10.7191 N   0  0  0  0  0  0  0  0  0  0  0  0
   -7.4005   -6.9521    9.9737 N   0  0  0  0  0  0  0  0  0  0  0  0
   -7.6730   -8.2714   10.1654 C   0  0  2  0  0  0  0  0  0  0  0  0
   -7.4058   -8.8456   11.3951 C   0  0  1  0  0  0  0  0  0  0  0  0
   -6.8326   -7.9916   12.4664 C   0  0  0  0  0  0  0  0  0  0  0  0
   -6.5790   -8.4637   13.5973 O   0  0  0  0  0  0  0  0  0  0  0  0
   -7.7645  -10.1396   11.3303 N   0  0  0  0  0  0  0  0  0  0  0  0
   -8.2393  -10.3675   10.0834 C   0  0  0  0  0  0  0  0  0  0  0  0
   -8.1821   -9.2262    9.3729 N   0  0  1  0  0  0  0  0  0  0  0  0
  1  2  1  0  0  0  0
  3  1  1  1  0  0  0
  3  4  1  0  0  0  0
  3  5  1  0  0  0  0
  5  6  1  6  0  0  0
  5  7  1  0  0  0  0
  7  8  1  0  0  0  0
  8  4  1  1  0  0  0
  8 19  1  0  0  0  0
  9 15  1  0  0  0  0
  9 10  1  0  0  0  0
 10 11  1  6  0  0  0
 10 12  1  0  0  0  0
 13 12  1  6  0  0  0
 13 14  1  0  0  0  0
 13 19  1  0  0  0  0
 14 15  1  1  0  0  0
 14 17  1  0  0  0  0
 15 16  2  0  0  0  0
 17 18  1  0  0  0  0
 19 18  1  1  0  0  0
M  END
>  <CHROM.1>
-60.73632443,-11.00611262,-8.52584385,-7.91176595,9.66183541,-3.13667869
0.90239489,3.04844953

>  <Name>
ligand

>  <RI>
0

>  <Rbt.Current_Directory>
/home/itssahil/PROJECTS/Mol_Feturizer/New_Systems/rnas/3SKI

>  <Rbt.Executable>
rbdock ($Id: //depot/dev/client3/rdock/2013.1/src/exe/rbdock.cxx#4 $)

>  <Rbt.Library>
libRbt.so (2013.1, Build901 2013/11/27)

>  <Rbt.Parameter_File>
/export/apps/rDock/src/rDock_2013.1_src/data/scripts/dock_solv.prm

>  <Rbt.Receptor>
prm/pocket_docking_5.prm

>  <SCORE>
-17.3325

>  <SCORE.INTER>
-14.1992

>  <SCORE.INTER.CONST>
1

>  <SCORE.INTER.POLAR>
0

>  <SCORE.INTER.ROT>
2

>  <SCORE.INTER.SOLV>
9.52788

>  <SCORE.INTER.VDW>
-17.5754

>  <SCORE.INTER.norm>
-0.747328

>  <SCORE.INTRA>
-3.13323

>  <SCORE.INTRA.DIHEDRAL>
-5.05351

>  <SCORE.INTRA.DIHEDRAL.0>
6.26853

>  <SCORE.INTRA.POLAR>
0

>  <SCORE.INTRA.POLAR.0>
0

>  <SCORE.INTRA.REPUL>
0

>  <SCORE.INTRA.REPUL.0>
0

>  <SCORE.INTRA.SOLV>
0.505277

>  <SCORE.INTRA.SOLV.lig_0>
-38.4926

>  <SCORE.INTRA.VDW>
-0.859112

>  <SCORE.INTRA.VDW.0>
-0.59057

>  <SCORE.INTRA.norm>
-0.164907

>  <SCORE.RESTR>
0

>  <SCORE.RESTR.CAVITY>
0

>  <SCORE.RESTR.norm>
0

>  <SCORE.SYSTEM>
0

>  <SCORE.SYSTEM.CONST>
0

>  <SCORE.SYSTEM.DIHEDRAL>
0

>  <SCORE.SYSTEM.SOLV>
0

>  <SCORE.SYSTEM.norm>
0

>  <SCORE.heavy>
19

>  <SCORE.norm>
-0.912235

>  <RMSD>
6.135

$$$$
ligand
 OpenBabel11021811483D
libRbt.so/2013.1/901 2013/11/27
 19 21  0  0  0  0  0  0  0  0999 V2000
  -10.4895   -5.9221    8.0435 C   0  0  0  0  0  0  0  0  0  0  0  0
  -10.5123   -6.2185    9.4477 O   0  0  0  0  0  0  0  0  0  0  0  0
  -10.0418   -7.1494    7.2466 C   0  0  1  0  0  0  0  0  0  0  0  0
   -8.7155   -7.5541    7.6367 O   0  0  0  0  0  0  0  0  0  0  0  0
  -10.9626   -8.3302    7.4992 C   0  0  1  0  0  0  0  0  0  0  0  0
  -11.8451   -8.5442    6.3906 O   0  0  0  0  0  0  0  0  0  0  0  0
  -10.0551   -9.5257    7.6927 C   0  0  0  0  0  0  0  0  0  0  0  0
   -8.6630   -8.9583    7.9283 C   0  0  2  0  0  0  0  0  0  0  0  0
   -6.6525   -6.6773   12.2117 N   0  0  0  0  0  0  0  0  0  0  0  0
   -6.9192   -6.1479   10.9875 C   0  0  1  0  0  0  0  0  0  0  0  0
   -6.6507   -4.8395   10.7634 N   0  0  0  0  0  0  0  0  0  0  0  0
   -7.4442   -6.9019    9.9837 N   0  0  0  0  0  0  0  0  0  0  0  0
   -7.7302   -8.2211   10.1554 C   0  0  2  0  0  0  0  0  0  0  0  0
   -7.4792   -8.8140   11.3796 C   0  0  1  0  0  0  0  0  0  0  0  0
   -6.9079   -7.9795   12.4672 C   0  0  0  0  0  0  0  0  0  0  0  0
   -6.6686   -8.4687   13.5939 O   0  0  0  0  0  0  0  0  0  0  0  0
   -7.8490  -10.1037   11.2944 N   0  0  0  0  0  0  0  0  0  0  0  0
   -8.3147  -10.3107   10.0404 C   0  0  0  0  0  0  0  0  0  0  0  0
   -8.2409   -9.1607    9.3458 N   0  0  1  0  0  0  0  0  0  0  0  0
  1  2  1  0  0  0  0
  3  1  1  1  0  0  0
  3  4  1  0  0  0  0
  3  5  1  0  0  0  0
  5  6  1  6  0  0  0
  5  7  1  0  0  0  0
  7  8  1  0  0  0  0
  8  4  1  1  0  0  0
  8 19  1  0  0  0  0
  9 15  1  0  0  0  0
  9 10  1  0  0  0  0
 10 11  1  6  0  0  0
 10 12  1  0  0  0  0
 13 12  1  6  0  0  0
 13 14  1  0  0  0  0
 13 19  1  0  0  0  0
 14 15  1  1  0  0  0
 14 17  1  0  0  0  0
 15 16  2  0  0  0  0
 17 18  1  0  0  0  0
 19 18  1  1  0  0  0
M  END
>  <CHROM.1>
-60.51297285,-12.35571654,-8.58682016,-7.86128143,9.65064428,-3.13468097
0.90690969,3.05645954

>  <Name>
ligand

>  <RI>
0

>  <Rbt.Current_Directory>
/home/itssahil/PROJECTS/Mol_Feturizer/New_Systems/rnas/3SKI

>  <Rbt.Executable>
rbdock ($Id: //depot/dev/client3/rdock/2013.1/src/exe/rbdock.cxx#4 $)

>  <Rbt.Library>
libRbt.so (2013.1, Build901 2013/11/27)

>  <Rbt.Parameter_File>
/export/apps/rDock/src/rDock_2013.1_src/data/scripts/dock_solv.prm

>  <Rbt.Receptor>
prm/pocket_docking_5.prm

>  <SCORE>
-17.3028

>  <SCORE.INTER>
-14.1546

>  <SCORE.INTER.CONST>
1

>  <SCORE.INTER.POLAR>
0

>  <SCORE.INTER.ROT>
2

>  <SCORE.INTER.SOLV>
9.50079

>  <SCORE.INTER.VDW>
-17.5367

>  <SCORE.INTER.norm>
-0.744978

>  <SCORE.INTRA>
-3.14826

>  <SCORE.INTRA.DIHEDRAL>
-5.05338

>  <SCORE.INTRA.DIHEDRAL.0>
6.26853

>  <SCORE.INTRA.POLAR>
0

>  <SCORE.INTRA.POLAR.0>
0

>  <SCORE.INTRA.REPUL>
0

>  <SCORE.INTRA.REPUL.0>
0

>  <SCORE.INTRA.SOLV>
0.412768

>  <SCORE.INTRA.SOLV.lig_0>
-38.4926

>  <SCORE.INTRA.VDW>
-0.827956

>  <SCORE.INTRA.VDW.0>
-0.59057

>  <SCORE.INTRA.norm>
-0.165698

>  <SCORE.RESTR>
0

>  <SCORE.RESTR.CAVITY>
0

>  <SCORE.RESTR.norm>
0

>  <SCORE.SYSTEM>
0

>  <SCORE.SYSTEM.CONST>
0

>  <SCORE.SYSTEM.DIHEDRAL>
0

>  <SCORE.SYSTEM.SOLV>
0

>  <SCORE.SYSTEM.norm>
0

>  <SCORE.heavy>
19

>  <SCORE.norm>
-0.910676

>  <RMSD>
6.136

$$$$
ligand
 OpenBabel11021811483D
libRbt.so/2013.1/901 2013/11/27
 19 21  0  0  0  0  0  0  0  0999 V2000
   -5.1835   -7.8014   13.9793 C   0  0  0  0  0  0  0  0  0  0  0  0
   -3.7717   -8.0306   14.0993 O   0  0  0  0  0  0  0  0  0  0  0  0
   -5.8253   -8.8765   13.0995 C   0  0  1  0  0  0  0  0  0  0  0  0
   -7.2482   -8.6734   13.0032 O   0  0  0  0  0  0  0  0  0  0  0  0
   -5.2699   -8.8294   11.6870 C   0  0  1  0  0  0  0  0  0  0  0  0
   -4.3412   -9.8971   11.4606 O   0  0  0  0  0  0  0  0  0  0  0  0
   -6.4659   -8.9639   10.7697 C   0  0  0  0  0  0  0  0  0  0  0  0
   -7.6881   -8.7019   11.6374 C   0  0  2  0  0  0  0  0  0  0  0  0
  -11.1666   -6.2672    8.5445 N   0  0  0  0  0  0  0  0  0  0  0  0
  -10.8133   -7.5799    8.5923 C   0  0  1  0  0  0  0  0  0  0  0  0
  -11.4053   -8.4523    7.7423 N   0  0  0  0  0  0  0  0  0  0  0  0
   -9.8777   -8.0349    9.4696 N   0  0  0  0  0  0  0  0  0  0  0  0
   -9.2515   -7.2005   10.3431 C   0  0  2  0  0  0  0  0  0  0  0  0
   -9.5699   -5.8545   10.3394 C   0  0  1  0  0  0  0  0  0  0  0  0
  -10.5939   -5.3712    9.3785 C   0  0  0  0  0  0  0  0  0  0  0  0
  -10.9202   -4.1637    9.3409 O   0  0  0  0  0  0  0  0  0  0  0  0
   -8.8279   -5.2547   11.2865 N   0  0  0  0  0  0  0  0  0  0  0  0
   -8.0585   -6.2073   11.8634 C   0  0  0  0  0  0  0  0  0  0  0  0
   -8.3174   -7.3946   11.2859 N   0  0  1  0  0  0  0  0  0  0  0  0
  1  2  1  0  0  0  0
  3  1  1  1  0  0  0
  3  4  1  0  0  0  0
  3  5  1  0  0  0  0
  5  6  1  1  0  0  0
  5  7  1  0  0  0  0
  7  8  1  0  0  0  0
  8  4  1  1  0  0  0
  8 19  1  0  0  0  0
  9 15  1  0  0  0  0
  9 10  1  0  0  0  0
 10 11  1  6  0  0  0
 10 12  1  0  0  0  0
 13 12  1  6  0  0  0
 13 14  1  0  0  0  0
 13 19  1  0  0  0  0
 14 15  1  1  0  0  0
 14 17  1  0  0  0  0
 15 16  2  0  0  0  0
 17 18  1  0  0  0  0
 19 18  1  1  0  0  0
M  END
>  <CHROM.1>
178.48197976,-153.43356087,-8.05165721,-7.48091660,10.99351712,-0.02652172
-0.67373948,0.51008061

>  <Name>
ligand

>  <RI>
0

>  <Rbt.Current_Directory>
/home/itssahil/PROJECTS/Mol_Feturizer/New_Systems/rnas/3SKI

>  <Rbt.Executable>
rbdock ($Id: //depot/dev/client3/rdock/2013.1/src/exe/rbdock.cxx#4 $)

>  <Rbt.Library>
libRbt.so (2013.1, Build901 2013/11/27)

>  <Rbt.Parameter_File>
/export/apps/rDock/src/rDock_2013.1_src/data/scripts/dock_solv.prm

>  <Rbt.Receptor>
prm/pocket_docking_5.prm

>  <SCORE>
-14.7518

>  <SCORE.INTER>
-11.7594

>  <SCORE.INTER.CONST>
1

>  <SCORE.INTER.POLAR>
0

>  <SCORE.INTER.ROT>
2

>  <SCORE.INTER.SOLV>
10.0714

>  <SCORE.INTER.VDW>
-16.1301

>  <SCORE.INTER.norm>
-0.618917

>  <SCORE.INTRA>
-2.99243

>  <SCORE.INTRA.DIHEDRAL>
-5.03954

>  <SCORE.INTRA.DIHEDRAL.0>
6.26853

>  <SCORE.INTRA.POLAR>
0

>  <SCORE.INTRA.POLAR.0>
0

>  <SCORE.INTRA.REPUL>
0

>  <SCORE.INTRA.REPUL.0>
0

>  <SCORE.INTRA.SOLV>
-0.0161862

>  <SCORE.INTRA.SOLV.lig_0>
-38.4926

>  <SCORE.INTRA.VDW>
-0.46457

>  <SCORE.INTRA.VDW.0>
-0.59057

>  <SCORE.INTRA.norm>
-0.157496

>  <SCORE.RESTR>
0

>  <SCORE.RESTR.CAVITY>
0

>  <SCORE.RESTR.norm>
0

>  <SCORE.SYSTEM>
0

>  <SCORE.SYSTEM.CONST>
0

>  <SCORE.SYSTEM.DIHEDRAL>
0

>  <SCORE.SYSTEM.SOLV>
0

>  <SCORE.SYSTEM.norm>
0

>  <SCORE.heavy>
19

>  <SCORE.norm>
-0.776413

>  <RMSD>
6.137

$$$$
ligand
 OpenBabel11021811483D
libRbt.so/2013.1/901 2013/11/27
 19 21  0  0  0  0  0  0  0  0999 V2000
   -5.2351   -7.7921   13.9942 C   0  0  0  0  0  0  0  0  0  0  0  0
   -3.8237   -8.0176   14.1263 O   0  0  0  0  0  0  0  0  0  0  0  0
   -5.8645   -8.8620   13.0993 C   0  0  1  0  0  0  0  0  0  0  0  0
   -7.2872   -8.6636   12.9915 O   0  0  0  0  0  0  0  0  0  0  0  0
   -5.2962   -8.8006   11.6924 C   0  0  1  0  0  0  0  0  0  0  0  0
   -4.3613   -9.8627   11.4656 O   0  0  0  0  0  0  0  0  0  0  0  0
   -6.4831   -8.9319   10.7630 C   0  0  0  0  0  0  0  0  0  0  0  0
   -7.7144   -8.6820   11.6216 C   0  0  2  0  0  0  0  0  0  0  0  0
  -11.2174   -6.2444    8.5589 N   0  0  0  0  0  0  0  0  0  0  0  0
  -10.8649   -7.5574    8.6037 C   0  0  1  0  0  0  0  0  0  0  0  0
  -11.4650   -8.4293    7.7588 N   0  0  0  0  0  0  0  0  0  0  0  0
   -9.9222   -8.0133    9.4728 N   0  0  0  0  0  0  0  0  0  0  0  0
   -9.2876   -7.1793   10.3408 C   0  0  2  0  0  0  0  0  0  0  0  0
   -9.6049   -5.8330   10.3398 C   0  0  1  0  0  0  0  0  0  0  0  0
  -10.6368   -5.3489    9.3878 C   0  0  0  0  0  0  0  0  0  0  0  0
  -10.9623   -4.1411    9.3530 O   0  0  0  0  0  0  0  0  0  0  0  0
   -8.8541   -5.2339   11.2804 N   0  0  0  0  0  0  0  0  0  0  0  0
   -8.0805   -6.1871   11.8506 C   0  0  0  0  0  0  0  0  0  0  0  0
   -8.3456   -7.3742   11.2755 N   0  0  1  0  0  0  0  0  0  0  0  0
  1  2  1  0  0  0  0
  3  1  1  1  0  0  0
  3  4  1  0  0  0  0
  3  5  1  0  0  0  0
  5  6  1  1  0  0  0
  5  7  1  0  0  0  0
  7  8  1  0  0  0  0
  8  4  1  1  0  0  0
  8 19  1  0  0  0  0
  9 15  1  0  0  0  0
  9 10  1  0  0  0  0
 10 11  1  6  0  0  0
 10 12  1  0  0  0  0
 13 12  1  6  0  0  0
 13 14  1  0  0  0  0
 13 19  1  0  0  0  0
 14 15  1  1  0  0  0
 14 17  1  0  0  0  0
 15 16  2  0  0  0  0
 17 18  1  0  0  0  0
 19 18  1  1  0  0  0
M  END
>  <CHROM.1>
178.42785597,-152.25963856,-8.08916470,-7.45988092,10.99663519,-0.02812920
-0.67266115,0.50808813

>  <Name>
ligand

>  <RI>
0

>  <Rbt.Current_Directory>
/home/itssahil/PROJECTS/Mol_Feturizer/New_Systems/rnas/3SKI

>  <Rbt.Executable>
rbdock ($Id: //depot/dev/client3/rdock/2013.1/src/exe/rbdock.cxx#4 $)

>  <Rbt.Library>
libRbt.so (2013.1, Build901 2013/11/27)

>  <Rbt.Parameter_File>
/export/apps/rDock/src/rDock_2013.1_src/data/scripts/dock_solv.prm

>  <Rbt.Receptor>
prm/pocket_docking_6.prm

>  <SCORE>
-14.726

>  <SCORE.INTER>
-11.7282

>  <SCORE.INTER.CONST>
1

>  <SCORE.INTER.POLAR>
0

>  <SCORE.INTER.ROT>
2

>  <SCORE.INTER.SOLV>
10.0732

>  <SCORE.INTER.VDW>
-16.1099

>  <SCORE.INTER.norm>
-0.617276

>  <SCORE.INTRA>
-2.99779

>  <SCORE.INTRA.DIHEDRAL>
-5.03876

>  <SCORE.INTRA.DIHEDRAL.0>
6.26853

>  <SCORE.INTRA.POLAR>
0

>  <SCORE.INTRA.POLAR.0>
0

>  <SCORE.INTRA.REPUL>
0

>  <SCORE.INTRA.REPUL.0>
0

>  <SCORE.INTRA.SOLV>
-0.0162385

>  <SCORE.INTRA.SOLV.lig_0>
-38.4926

>  <SCORE.INTRA.VDW>
-0.470285

>  <SCORE.INTRA.VDW.0>
-0.59057

>  <SCORE.INTRA.norm>
-0.157778

>  <SCORE.RESTR>
0

>  <SCORE.RESTR.CAVITY>
0

>  <SCORE.RESTR.norm>
0

>  <SCORE.SYSTEM>
0

>  <SCORE.SYSTEM.CONST>
0

>  <SCORE.SYSTEM.DIHEDRAL>
0

>  <SCORE.SYSTEM.SOLV>
0

>  <SCORE.SYSTEM.norm>
0

>  <SCORE.heavy>
19

>  <SCORE.norm>
-0.775054

>  <RMSD>
6.138

$$$$
ligand
 OpenBabel11021811483D
libRbt.so/2013.1/901 2013/11/27
 19 21  0  0  0  0  0  0  0  0999 V2000
  -10.4165   -5.9954    8.0790 C   0  0  0  0  0  0  0  0  0  0  0  0
  -10.3922   -6.2676    9.4880 O   0  0  0  0  0  0  0  0  0  0  0  0
   -9.9856   -7.2333    7.2892 C   0  0  1  0  0  0  0  0  0  0  0  0
   -8.6611   -7.6480    7.6747 O   0  0  0  0  0  0  0  0  0  0  0  0
  -10.9165   -8.4029    7.5565 C   0  0  1  0  0  0  0  0  0  0  0  0
  -11.8076   -8.6169    6.4549 O   0  0  0  0  0  0  0  0  0  0  0  0
  -10.0197   -9.6057    7.7541 C   0  0  0  0  0  0  0  0  0  0  0  0
   -8.6206   -9.0503    7.9770 C   0  0  2  0  0  0  0  0  0  0  0  0
   -6.6582   -6.7319   12.2627 N   0  0  0  0  0  0  0  0  0  0  0  0
   -6.9387   -6.2063   11.0399 C   0  0  1  0  0  0  0  0  0  0  0  0
   -6.7011   -4.8917   10.8182 N   0  0  0  0  0  0  0  0  0  0  0  0
   -7.4474   -6.9704   10.0351 N   0  0  0  0  0  0  0  0  0  0  0  0
   -7.7024   -8.2962   10.2045 C   0  0  2  0  0  0  0  0  0  0  0  0
   -7.4360   -8.8855   11.4271 C   0  0  1  0  0  0  0  0  0  0  0  0
   -6.8829   -8.0402   12.5157 C   0  0  0  0  0  0  0  0  0  0  0  0
   -6.6309   -8.5261   13.6411 O   0  0  0  0  0  0  0  0  0  0  0  0
   -7.7758  -10.1833   11.3397 N   0  0  0  0  0  0  0  0  0  0  0  0
   -8.2382  -10.3985   10.0859 C   0  0  0  0  0  0  0  0  0  0  0  0
   -8.1921   -9.2458    9.3936 N   0  0  1  0  0  0  0  0  0  0  0  0
  1  2  1  0  0  0  0
  3  1  1  1  0  0  0
  3  4  1  0  0  0  0
  3  5  1  0  0  0  0
  5  6  1  6  0  0  0
  5  7  1  0  0  0  0
  7  8  1  0  0  0  0
  8  4  1  1  0  0  0
  8 19  1  0  0  0  0
  9 15  1  0  0  0  0
  9 10  1  0  0  0  0
 10 11  1  6  0  0  0
 10 12  1  0  0  0  0
 13 12  1  6  0  0  0
 13 14  1  0  0  0  0
 13 19  1  0  0  0  0
 14 15  1  1  0  0  0
 14 17  1  0  0  0  0
 15 16  2  0  0  0  0
 17 18  1  0  0  0  0
 19 18  1  1  0  0  0
M  END
>  <CHROM.1>
-58.65195353,-10.35586654,-8.54811130,-7.93311581,9.69947471,3.13254954,0.91361205
3.07528115

>  <Name>
ligand

>  <RI>
0

>  <Rbt.Current_Directory>
/home/itssahil/PROJECTS/Mol_Feturizer/New_Systems/rnas/3SKI

>  <Rbt.Executable>
rbdock ($Id: //depot/dev/client3/rdock/2013.1/src/exe/rbdock.cxx#4 $)

>  <Rbt.Library>
libRbt.so (2013.1, Build901 2013/11/27)

>  <Rbt.Parameter_File>
/export/apps/rDock/src/rDock_2013.1_src/data/scripts/dock_solv.prm

>  <Rbt.Receptor>
prm/pocket_docking_5.prm

>  <SCORE>
-17.2527

>  <SCORE.INTER>
-14.1325

>  <SCORE.INTER.CONST>
1

>  <SCORE.INTER.POLAR>
0

>  <SCORE.INTER.ROT>
2

>  <SCORE.INTER.SOLV>
9.56324

>  <SCORE.INTER.VDW>
-17.5427

>  <SCORE.INTER.norm>
-0.743814

>  <SCORE.INTRA>
-3.1202

>  <SCORE.INTRA.DIHEDRAL>
-5.0487

>  <SCORE.INTRA.DIHEDRAL.0>
6.26853

>  <SCORE.INTRA.POLAR>
0

>  <SCORE.INTRA.POLAR.0>
0

>  <SCORE.INTRA.REPUL>
0

>  <SCORE.INTRA.REPUL.0>
0

>  <SCORE.INTRA.SOLV>
0.616618

>  <SCORE.INTRA.SOLV.lig_0>
-38.4926

>  <SCORE.INTRA.VDW>
-0.904163

>  <SCORE.INTRA.VDW.0>
-0.59057

>  <SCORE.INTRA.norm>
-0.164221

>  <SCORE.RESTR>
0

>  <SCORE.RESTR.CAVITY>
0

>  <SCORE.RESTR.norm>
0

>  <SCORE.SYSTEM>
0

>  <SCORE.SYSTEM.CONST>
0

>  <SCORE.SYSTEM.DIHEDRAL>
0

>  <SCORE.SYSTEM.SOLV>
0

>  <SCORE.SYSTEM.norm>
0

>  <SCORE.heavy>
19

>  <SCORE.norm>
-0.908035

>  <RMSD>
6.161

$$$$
ligand
 OpenBabel11021811483D
libRbt.so/2013.1/901 2013/11/27
 19 21  0  0  0  0  0  0  0  0999 V2000
  -10.6430   -6.1385    7.8803 C   0  0  0  0  0  0  0  0  0  0  0  0
  -10.6016   -6.3730    9.2958 O   0  0  0  0  0  0  0  0  0  0  0  0
  -10.1282   -7.3638    7.1216 C   0  0  1  0  0  0  0  0  0  0  0  0
   -8.7849   -7.6876    7.5284 O   0  0  0  0  0  0  0  0  0  0  0  0
  -10.9880   -8.5828    7.4055 C   0  0  1  0  0  0  0  0  0  0  0  0
  -11.8525   -8.8747    6.3004 O   0  0  0  0  0  0  0  0  0  0  0  0
  -10.0210   -9.7235    7.6375 C   0  0  0  0  0  0  0  0  0  0  0  0
   -8.6613   -9.0781    7.8615 C   0  0  2  0  0  0  0  0  0  0  0  0
   -6.6636   -6.6022   12.0414 N   0  0  0  0  0  0  0  0  0  0  0  0
   -6.9348   -6.1274   10.7959 C   0  0  1  0  0  0  0  0  0  0  0  0
   -6.6757   -4.8280   10.5159 N   0  0  0  0  0  0  0  0  0  0  0  0
   -7.4554   -6.9273    9.8258 N   0  0  0  0  0  0  0  0  0  0  0  0
   -7.7321   -8.2399   10.0540 C   0  0  2  0  0  0  0  0  0  0  0  0
   -7.4760   -8.7781   11.3022 C   0  0  1  0  0  0  0  0  0  0  0  0
   -6.9097   -7.8940   12.3525 C   0  0  0  0  0  0  0  0  0  0  0  0
   -6.6662   -8.3330   13.4988 O   0  0  0  0  0  0  0  0  0  0  0  0
   -7.8368  -10.0728   11.2726 N   0  0  0  0  0  0  0  0  0  0  0  0
   -8.3020  -10.3364   10.0291 C   0  0  0  0  0  0  0  0  0  0  0  0
   -8.2368   -9.2168    9.2859 N   0  0  1  0  0  0  0  0  0  0  0  0
  1  2  1  0  0  0  0
  3  1  1  1  0  0  0
  3  4  1  0  0  0  0
  3  5  1  0  0  0  0
  5  6  1  6  0  0  0
  5  7  1  0  0  0  0
  7  8  1  0  0  0  0
  8  4  1  1  0  0  0
  8 19  1  0  0  0  0
  9 15  1  0  0  0  0
  9 10  1  0  0  0  0
 10 11  1  6  0  0  0
 10 12  1  0  0  0  0
 13 12  1  6  0  0  0
 13 14  1  0  0  0  0
 13 19  1  0  0  0  0
 14 15  1  1  0  0  0
 14 17  1  0  0  0  0
 15 16  2  0  0  0  0
 17 18  1  0  0  0  0
 19 18  1  1  0  0  0
M  END
>  <CHROM.1>
-57.94417036,-15.05577007,-8.61057831,-7.93592116,9.53930426,3.11099378,0.90090581
3.03451083

>  <Name>
ligand

>  <RI>
0

>  <Rbt.Current_Directory>
/home/itssahil/PROJECTS/Mol_Feturizer/New_Systems/rnas/3SKI

>  <Rbt.Executable>
rbdock ($Id: //depot/dev/client3/rdock/2013.1/src/exe/rbdock.cxx#4 $)

>  <Rbt.Library>
libRbt.so (2013.1, Build901 2013/11/27)

>  <Rbt.Parameter_File>
/export/apps/rDock/src/rDock_2013.1_src/data/scripts/dock_solv.prm

>  <Rbt.Receptor>
prm/pocket_docking_8.prm

>  <SCORE>
-17.8136

>  <SCORE.INTER>
-14.6922

>  <SCORE.INTER.CONST>
1

>  <SCORE.INTER.POLAR>
0

>  <SCORE.INTER.ROT>
2

>  <SCORE.INTER.SOLV>
9.41802

>  <SCORE.INTER.VDW>
-17.8675

>  <SCORE.INTER.norm>
-0.773275

>  <SCORE.INTRA>
-3.12138

>  <SCORE.INTRA.DIHEDRAL>
-5.03619

>  <SCORE.INTRA.DIHEDRAL.0>
6.26853

>  <SCORE.INTRA.POLAR>
0

>  <SCORE.INTRA.POLAR.0>
0

>  <SCORE.INTRA.REPUL>
0

>  <SCORE.INTRA.REPUL.0>
0

>  <SCORE.INTRA.SOLV>
0.38251

>  <SCORE.INTRA.SOLV.lig_0>
-38.4926

>  <SCORE.INTRA.VDW>
-0.79454

>  <SCORE.INTRA.VDW.0>
-0.59057

>  <SCORE.INTRA.norm>
-0.164283

>  <SCORE.RESTR>
0

>  <SCORE.RESTR.CAVITY>
0

>  <SCORE.RESTR.norm>
0

>  <SCORE.SYSTEM>
0

>  <SCORE.SYSTEM.CONST>
0

>  <SCORE.SYSTEM.DIHEDRAL>
0

>  <SCORE.SYSTEM.SOLV>
0

>  <SCORE.SYSTEM.norm>
0

>  <SCORE.heavy>
19

>  <SCORE.norm>
-0.937558

>  <RMSD>
6.161

$$$$
ligand
 OpenBabel11021811483D
libRbt.so/2013.1/901 2013/11/27
 19 21  0  0  0  0  0  0  0  0999 V2000
  -10.6186   -6.1184    7.8423 C   0  0  0  0  0  0  0  0  0  0  0  0
  -10.5818   -6.3367    9.2605 O   0  0  0  0  0  0  0  0  0  0  0  0
  -10.1163   -7.3580    7.0988 C   0  0  1  0  0  0  0  0  0  0  0  0
   -8.7789   -7.6946    7.5149 O   0  0  0  0  0  0  0  0  0  0  0  0
  -10.9928   -8.5630    7.3916 C   0  0  1  0  0  0  0  0  0  0  0  0
  -11.8562   -8.8554    6.2858 O   0  0  0  0  0  0  0  0  0  0  0  0
  -10.0414   -9.7133    7.6397 C   0  0  0  0  0  0  0  0  0  0  0  0
   -8.6746   -9.0830    7.8630 C   0  0  2  0  0  0  0  0  0  0  0  0
   -6.6710   -6.5868   12.0280 N   0  0  0  0  0  0  0  0  0  0  0  0
   -6.9318   -6.1214   10.7768 C   0  0  1  0  0  0  0  0  0  0  0  0
   -6.6582   -4.8275   10.4854 N   0  0  0  0  0  0  0  0  0  0  0  0
   -7.4560   -6.9255    9.8120 N   0  0  0  0  0  0  0  0  0  0  0  0
   -7.7469   -8.2329   10.0516 C   0  0  2  0  0  0  0  0  0  0  0  0
   -7.5019   -8.7615   11.3061 C   0  0  1  0  0  0  0  0  0  0  0  0
   -6.9316   -7.8730   12.3505 C   0  0  0  0  0  0  0  0  0  0  0  0
   -6.6977   -8.3032   13.5021 O   0  0  0  0  0  0  0  0  0  0  0  0
   -7.8757  -10.0528   11.2874 N   0  0  0  0  0  0  0  0  0  0  0  0
   -8.3379  -10.3238   10.0443 C   0  0  0  0  0  0  0  0  0  0  0  0
   -8.2579   -9.2121    9.2906 N   0  0  1  0  0  0  0  0  0  0  0  0
  1  2  1  0  0  0  0
  3  1  1  1  0  0  0
  3  4  1  0  0  0  0
  3  5  1  0  0  0  0
  5  6  1  6  0  0  0
  5  7  1  0  0  0  0
  7  8  1  0  0  0  0
  8  4  1  1  0  0  0
  8 19  1  0  0  0  0
  9 15  1  0  0  0  0
  9 10  1  0  0  0  0
 10 11  1  6  0  0  0
 10 12  1  0  0  0  0
 13 12  1  6  0  0  0
 13 14  1  0  0  0  0
 13 19  1  0  0  0  0
 14 15  1  1  0  0  0
 14 17  1  0  0  0  0
 15 16  2  0  0  0  0
 17 18  1  0  0  0  0
 19 18  1  1  0  0  0
M  END
>  <CHROM.1>
-57.73722448,-14.89458766,-8.61834461,-7.92328765,9.52970397,3.12973118,0.90477666
3.01044923

>  <Name>
ligand

>  <RI>
0

>  <Rbt.Current_Directory>
/home/itssahil/PROJECTS/Mol_Feturizer/New_Systems/rnas/3SKI

>  <Rbt.Executable>
rbdock ($Id: //depot/dev/client3/rdock/2013.1/src/exe/rbdock.cxx#4 $)

>  <Rbt.Library>
libRbt.so (2013.1, Build901 2013/11/27)

>  <Rbt.Parameter_File>
/export/apps/rDock/src/rDock_2013.1_src/data/scripts/dock_solv.prm

>  <Rbt.Receptor>
prm/blind_docking_20.prm

>  <SCORE>
-17.8243

>  <SCORE.INTER>
-14.6985

>  <SCORE.INTER.CONST>
1

>  <SCORE.INTER.POLAR>
0

>  <SCORE.INTER.ROT>
2

>  <SCORE.INTER.SOLV>
9.4087

>  <SCORE.INTER.VDW>
-17.8685

>  <SCORE.INTER.norm>
-0.773604

>  <SCORE.INTRA>
-3.12586

>  <SCORE.INTRA.DIHEDRAL>
-5.033

>  <SCORE.INTRA.DIHEDRAL.0>
6.26853

>  <SCORE.INTRA.POLAR>
0

>  <SCORE.INTRA.POLAR.0>
0

>  <SCORE.INTRA.REPUL>
0

>  <SCORE.INTRA.REPUL.0>
0

>  <SCORE.INTRA.SOLV>
0.383864

>  <SCORE.INTRA.SOLV.lig_0>
-38.4926

>  <SCORE.INTRA.VDW>
-0.80129

>  <SCORE.INTRA.VDW.0>
-0.59057

>  <SCORE.INTRA.norm>
-0.164519

>  <SCORE.RESTR>
0

>  <SCORE.RESTR.CAVITY>
0

>  <SCORE.RESTR.norm>
0

>  <SCORE.SYSTEM>
0

>  <SCORE.SYSTEM.CONST>
0

>  <SCORE.SYSTEM.DIHEDRAL>
0

>  <SCORE.SYSTEM.SOLV>
0

>  <SCORE.SYSTEM.norm>
0

>  <SCORE.heavy>
19

>  <SCORE.norm>
-0.938123

>  <RMSD>
6.162

$$$$
ligand
 OpenBabel11021811483D
libRbt.so/2013.1/901 2013/11/27
 19 21  0  0  0  0  0  0  0  0999 V2000
   -5.2068   -7.7965   13.9727 C   0  0  0  0  0  0  0  0  0  0  0  0
   -3.7919   -8.0084   14.0882 O   0  0  0  0  0  0  0  0  0  0  0  0
   -5.8377   -8.8771   13.0918 C   0  0  1  0  0  0  0  0  0  0  0  0
   -7.2621   -8.6867   12.9933 O   0  0  0  0  0  0  0  0  0  0  0  0
   -5.2804   -8.8251   11.6802 C   0  0  1  0  0  0  0  0  0  0  0  0
   -4.3420   -9.8845   11.4553 O   0  0  0  0  0  0  0  0  0  0  0  0
   -6.4738   -8.9702   10.7610 C   0  0  0  0  0  0  0  0  0  0  0  0
   -7.6997   -8.7191   11.6269 C   0  0  2  0  0  0  0  0  0  0  0  0
  -11.1756   -6.3108    8.5106 N   0  0  0  0  0  0  0  0  0  0  0  0
  -10.8084   -7.6197    8.5567 C   0  0  1  0  0  0  0  0  0  0  0  0
  -11.3826   -8.4952    7.6978 N   0  0  0  0  0  0  0  0  0  0  0  0
   -9.8761   -8.0678    9.4411 N   0  0  0  0  0  0  0  0  0  0  0  0
   -9.2673   -7.2300   10.3236 C   0  0  2  0  0  0  0  0  0  0  0  0
   -9.6005   -5.8875   10.3220 C   0  0  1  0  0  0  0  0  0  0  0  0
  -10.6207   -5.4118    9.3532 C   0  0  0  0  0  0  0  0  0  0  0  0
  -10.9599   -4.2078    9.3172 O   0  0  0  0  0  0  0  0  0  0  0  0
   -8.8740   -5.2833   11.2783 N   0  0  0  0  0  0  0  0  0  0  0  0
   -8.0996   -6.2296   11.8588 C   0  0  0  0  0  0  0  0  0  0  0  0
   -8.3400   -7.4175   11.2744 N   0  0  1  0  0  0  0  0  0  0  0  0
  1  2  1  0  0  0  0
  3  1  1  1  0  0  0
  3  4  1  0  0  0  0
  3  5  1  0  0  0  0
  5  6  1  1  0  0  0
  5  7  1  0  0  0  0
  7  8  1  0  0  0  0
  8  4  1  1  0  0  0
  8 19  1  0  0  0  0
  9 15  1  0  0  0  0
  9 10  1  0  0  0  0
 10 11  1  6  0  0  0
 10 12  1  0  0  0  0
 13 12  1  6  0  0  0
 13 14  1  0  0  0  0
 13 19  1  0  0  0  0
 14 15  1  1  0  0  0
 14 17  1  0  0  0  0
 15 16  2  0  0  0  0
 17 18  1  0  0  0  0
 19 18  1  1  0  0  0
M  END
>  <CHROM.1>
178.83508114,-153.94723989,-8.06751140,-7.49979831,10.97688896,-0.01078864
-0.67359798,0.52387056

>  <Name>
ligand

>  <RI>
0

>  <Rbt.Current_Directory>
/home/itssahil/PROJECTS/Mol_Feturizer/New_Systems/rnas/3SKI

>  <Rbt.Executable>
rbdock ($Id: //depot/dev/client3/rdock/2013.1/src/exe/rbdock.cxx#4 $)

>  <Rbt.Library>
libRbt.so (2013.1, Build901 2013/11/27)

>  <Rbt.Parameter_File>
/export/apps/rDock/src/rDock_2013.1_src/data/scripts/dock_solv.prm

>  <Rbt.Receptor>
prm/pocket_docking_5.prm

>  <SCORE>
-14.7469

>  <SCORE.INTER>
-11.759

>  <SCORE.INTER.CONST>
1

>  <SCORE.INTER.POLAR>
0

>  <SCORE.INTER.ROT>
2

>  <SCORE.INTER.SOLV>
10.0541

>  <SCORE.INTER.VDW>
-16.1241

>  <SCORE.INTER.norm>
-0.618895

>  <SCORE.INTRA>
-2.98795

>  <SCORE.INTRA.DIHEDRAL>
-5.04294

>  <SCORE.INTRA.DIHEDRAL.0>
6.26853

>  <SCORE.INTRA.POLAR>
0

>  <SCORE.INTRA.POLAR.0>
0

>  <SCORE.INTRA.REPUL>
0

>  <SCORE.INTRA.REPUL.0>
0

>  <SCORE.INTRA.SOLV>
-0.0145368

>  <SCORE.INTRA.SOLV.lig_0>
-38.4926

>  <SCORE.INTRA.VDW>
-0.459212

>  <SCORE.INTRA.VDW.0>
-0.59057

>  <SCORE.INTRA.norm>
-0.15726

>  <SCORE.RESTR>
0

>  <SCORE.RESTR.CAVITY>
0

>  <SCORE.RESTR.norm>
0

>  <SCORE.SYSTEM>
0

>  <SCORE.SYSTEM.CONST>
0

>  <SCORE.SYSTEM.DIHEDRAL>
0

>  <SCORE.SYSTEM.SOLV>
0

>  <SCORE.SYSTEM.norm>
0

>  <SCORE.heavy>
19

>  <SCORE.norm>
-0.776155

>  <RMSD>
6.162

$$$$
ligand
 OpenBabel11021811483D
libRbt.so/2013.1/901 2013/11/27
 19 21  0  0  0  0  0  0  0  0999 V2000
  -10.5881   -6.1052    7.8311 C   0  0  0  0  0  0  0  0  0  0  0  0
  -10.5852   -6.3166    9.2508 O   0  0  0  0  0  0  0  0  0  0  0  0
  -10.1027   -7.3613    7.1040 C   0  0  1  0  0  0  0  0  0  0  0  0
   -8.7712   -7.7123    7.5270 O   0  0  0  0  0  0  0  0  0  0  0  0
  -10.9974   -8.5495    7.4099 C   0  0  1  0  0  0  0  0  0  0  0  0
  -11.8629   -8.8428    6.3061 O   0  0  0  0  0  0  0  0  0  0  0  0
  -10.0636   -9.7105    7.6743 C   0  0  0  0  0  0  0  0  0  0  0  0
   -8.6880   -9.0976    7.8925 C   0  0  2  0  0  0  0  0  0  0  0  0
   -6.7490   -6.5540   12.0594 N   0  0  0  0  0  0  0  0  0  0  0  0
   -7.0120   -6.0970   10.8056 C   0  0  1  0  0  0  0  0  0  0  0  0
   -6.7601   -4.7993   10.5115 N   0  0  0  0  0  0  0  0  0  0  0  0
   -7.5172   -6.9131    9.8407 N   0  0  0  0  0  0  0  0  0  0  0  0
   -7.7861   -8.2247   10.0829 C   0  0  2  0  0  0  0  0  0  0  0  0
   -7.5377   -8.7453   11.3402 C   0  0  1  0  0  0  0  0  0  0  0  0
   -6.9883   -7.8436   12.3846 C   0  0  0  0  0  0  0  0  0  0  0  0
   -6.7524   -8.2663   13.5386 O   0  0  0  0  0  0  0  0  0  0  0  0
   -7.8885  -10.0430   11.3236 N   0  0  0  0  0  0  0  0  0  0  0  0
   -8.3398  -10.3258   10.0792 C   0  0  0  0  0  0  0  0  0  0  0  0
   -8.2760   -9.2151    9.3225 N   0  0  1  0  0  0  0  0  0  0  0  0
  1  2  1  0  0  0  0
  3  1  1  1  0  0  0
  3  4  1  0  0  0  0
  3  5  1  0  0  0  0
  5  6  1  6  0  0  0
  5  7  1  0  0  0  0
  7  8  1  0  0  0  0
  8  4  1  1  0  0  0
  8 19  1  0  0  0  0
  9 15  1  0  0  0  0
  9 10  1  0  0  0  0
 10 11  1  6  0  0  0
 10 12  1  0  0  0  0
 13 12  1  6  0  0  0
 13 14  1  0  0  0  0
 13 19  1  0  0  0  0
 14 15  1  1  0  0  0
 14 17  1  0  0  0  0
 15 16  2  0  0  0  0
 17 18  1  0  0  0  0
 19 18  1  1  0  0  0
M  END
>  <CHROM.1>
-59.01301639,-12.95003638,-8.64601888,-7.91166387,9.55301784,3.12123572,0.91616490
3.02015211

>  <Name>
ligand

>  <RI>
0

>  <Rbt.Current_Directory>
/home/itssahil/PROJECTS/Mol_Feturizer/New_Systems/rnas/3SKI

>  <Rbt.Executable>
rbdock ($Id: //depot/dev/client3/rdock/2013.1/src/exe/rbdock.cxx#4 $)

>  <Rbt.Library>
libRbt.so (2013.1, Build901 2013/11/27)

>  <Rbt.Parameter_File>
/export/apps/rDock/src/rDock_2013.1_src/data/scripts/dock_solv.prm

>  <Rbt.Receptor>
prm/pocket_docking_8.prm

>  <SCORE>
-17.7546

>  <SCORE.INTER>
-14.6029

>  <SCORE.INTER.CONST>
1

>  <SCORE.INTER.POLAR>
0

>  <SCORE.INTER.ROT>
2

>  <SCORE.INTER.SOLV>
9.33867

>  <SCORE.INTER.VDW>
-17.7815

>  <SCORE.INTER.norm>
-0.768576

>  <SCORE.INTRA>
-3.15161

>  <SCORE.INTRA.DIHEDRAL>
-5.04982

>  <SCORE.INTRA.DIHEDRAL.0>
6.26853

>  <SCORE.INTRA.POLAR>
0

>  <SCORE.INTRA.POLAR.0>
0

>  <SCORE.INTRA.REPUL>
0

>  <SCORE.INTRA.REPUL.0>
0

>  <SCORE.INTRA.SOLV>
0.415221

>  <SCORE.INTRA.SOLV.lig_0>
-38.4926

>  <SCORE.INTRA.VDW>
-0.834315

>  <SCORE.INTRA.VDW.0>
-0.59057

>  <SCORE.INTRA.norm>
-0.165874

>  <SCORE.RESTR>
0

>  <SCORE.RESTR.CAVITY>
0

>  <SCORE.RESTR.norm>
0

>  <SCORE.SYSTEM>
0

>  <SCORE.SYSTEM.CONST>
0

>  <SCORE.SYSTEM.DIHEDRAL>
0

>  <SCORE.SYSTEM.SOLV>
0

>  <SCORE.SYSTEM.norm>
0

>  <SCORE.heavy>
19

>  <SCORE.norm>
-0.93445

>  <RMSD>
6.162

$$$$
ligand
 OpenBabel11021811483D
libRbt.so/2013.1/901 2013/11/27
 19 21  0  0  0  0  0  0  0  0999 V2000
  -10.6026   -6.1203    7.8854 C   0  0  0  0  0  0  0  0  0  0  0  0
  -10.5442   -6.3454    9.3017 O   0  0  0  0  0  0  0  0  0  0  0  0
  -10.1019   -7.3524    7.1285 C   0  0  1  0  0  0  0  0  0  0  0  0
   -8.7628   -7.6918    7.5368 O   0  0  0  0  0  0  0  0  0  0  0  0
  -10.9764   -8.5608    7.4130 C   0  0  1  0  0  0  0  0  0  0  0  0
  -11.8433   -8.8435    6.3075 O   0  0  0  0  0  0  0  0  0  0  0  0
  -10.0233   -9.7127    7.6471 C   0  0  0  0  0  0  0  0  0  0  0  0
   -8.6562   -9.0833    7.8715 C   0  0  2  0  0  0  0  0  0  0  0  0
   -6.6483   -6.6225   12.0555 N   0  0  0  0  0  0  0  0  0  0  0  0
   -6.9148   -6.1453   10.8099 C   0  0  1  0  0  0  0  0  0  0  0  0
   -6.6468   -4.8475   10.5309 N   0  0  0  0  0  0  0  0  0  0  0  0
   -7.4391   -6.9414    9.8386 N   0  0  0  0  0  0  0  0  0  0  0  0
   -7.7246   -8.2522   10.0658 C   0  0  2  0  0  0  0  0  0  0  0  0
   -7.4737   -8.7928   11.3140 C   0  0  1  0  0  0  0  0  0  0  0  0
   -6.9032   -7.9128   12.3656 C   0  0  0  0  0  0  0  0  0  0  0  0
   -6.6642   -8.3540   13.5121 O   0  0  0  0  0  0  0  0  0  0  0  0
   -7.8429  -10.0851   11.2833 N   0  0  0  0  0  0  0  0  0  0  0  0
   -8.3081  -10.3451   10.0390 C   0  0  0  0  0  0  0  0  0  0  0  0
   -8.2345   -9.2254    9.2964 N   0  0  1  0  0  0  0  0  0  0  0  0
  1  2  1  0  0  0  0
  3  1  1  1  0  0  0
  3  4  1  0  0  0  0
  3  5  1  0  0  0  0
  5  6  1  6  0  0  0
  5  7  1  0  0  0  0
  7  8  1  0  0  0  0
  8  4  1  1  0  0  0
  8 19  1  0  0  0  0
  9 15  1  0  0  0  0
  9 10  1  0  0  0  0
 10 11  1  6  0  0  0
 10 12  1  0  0  0  0
 13 12  1  6  0  0  0
 13 14  1  0  0  0  0
 13 19  1  0  0  0  0
 14 15  1  1  0  0  0
 14 17  1  0  0  0  0
 15 16  2  0  0  0  0
 17 18  1  0  0  0  0
 19 18  1  1  0  0  0
M  END
>  <CHROM.1>
-56.98309114,-14.72692322,-8.59641079,-7.93824767,9.54960810,3.12536645,0.90284283
3.02416707

>  <Name>
ligand

>  <RI>
0

>  <Rbt.Current_Directory>
/home/itssahil/PROJECTS/Mol_Feturizer/New_Systems/rnas/3SKI

>  <Rbt.Executable>
rbdock ($Id: //depot/dev/client3/rdock/2013.1/src/exe/rbdock.cxx#4 $)

>  <Rbt.Library>
libRbt.so (2013.1, Build901 2013/11/27)

>  <Rbt.Parameter_File>
/export/apps/rDock/src/rDock_2013.1_src/data/scripts/dock_solv.prm

>  <Rbt.Receptor>
prm/pocket_docking_8.prm

>  <SCORE>
-17.8629

>  <SCORE.INTER>
-14.7319

>  <SCORE.INTER.CONST>
1

>  <SCORE.INTER.POLAR>
0

>  <SCORE.INTER.ROT>
2

>  <SCORE.INTER.SOLV>
9.43287

>  <SCORE.INTER.VDW>
-17.8989

>  <SCORE.INTER.norm>
-0.775365

>  <SCORE.INTRA>
-3.13101

>  <SCORE.INTRA.DIHEDRAL>
-5.01851

>  <SCORE.INTRA.DIHEDRAL.0>
6.26853

>  <SCORE.INTRA.POLAR>
0

>  <SCORE.INTRA.POLAR.0>
0

>  <SCORE.INTRA.REPUL>
0

>  <SCORE.INTRA.REPUL.0>
0

>  <SCORE.INTRA.SOLV>
0.386024

>  <SCORE.INTRA.SOLV.lig_0>
-38.4926

>  <SCORE.INTRA.VDW>
-0.81477

>  <SCORE.INTRA.VDW.0>
-0.59057

>  <SCORE.INTRA.norm>
-0.16479

>  <SCORE.RESTR>
0

>  <SCORE.RESTR.CAVITY>
0

>  <SCORE.RESTR.norm>
0

>  <SCORE.SYSTEM>
0

>  <SCORE.SYSTEM.CONST>
0

>  <SCORE.SYSTEM.DIHEDRAL>
0

>  <SCORE.SYSTEM.SOLV>
0

>  <SCORE.SYSTEM.norm>
0

>  <SCORE.heavy>
19

>  <SCORE.norm>
-0.940155

>  <RMSD>
6.164

$$$$
ligand
 OpenBabel11021811483D
libRbt.so/2013.1/901 2013/11/27
 19 21  0  0  0  0  0  0  0  0999 V2000
  -10.6701   -6.1036    7.8672 C   0  0  0  0  0  0  0  0  0  0  0  0
  -10.6149   -6.3299    9.2835 O   0  0  0  0  0  0  0  0  0  0  0  0
  -10.1741   -7.3377    7.1104 C   0  0  1  0  0  0  0  0  0  0  0  0
   -8.8315   -7.6744    7.5092 O   0  0  0  0  0  0  0  0  0  0  0  0
  -11.0451   -8.5460    7.4055 C   0  0  1  0  0  0  0  0  0  0  0  0
  -11.9204   -8.8332    6.3078 O   0  0  0  0  0  0  0  0  0  0  0  0
  -10.0889   -9.6962    7.6358 C   0  0  0  0  0  0  0  0  0  0  0  0
   -8.7207   -9.0647    7.8475 C   0  0  2  0  0  0  0  0  0  0  0  0
   -6.7173   -6.5794   12.0191 N   0  0  0  0  0  0  0  0  0  0  0  0
   -6.9984   -6.1053   10.7756 C   0  0  1  0  0  0  0  0  0  0  0  0
   -6.7493   -4.8040   10.4954 N   0  0  0  0  0  0  0  0  0  0  0  0
   -7.5187   -6.9078    9.8074 N   0  0  0  0  0  0  0  0  0  0  0  0
   -7.7855   -8.2224   10.0359 C   0  0  2  0  0  0  0  0  0  0  0  0
   -7.5192   -8.7600   11.2821 C   0  0  1  0  0  0  0  0  0  0  0  0
   -6.9533   -7.8731   12.3303 C   0  0  0  0  0  0  0  0  0  0  0  0
   -6.7008   -8.3115   13.4749 O   0  0  0  0  0  0  0  0  0  0  0  0
   -7.8716  -10.0571   11.2532 N   0  0  0  0  0  0  0  0  0  0  0  0
   -8.3416  -10.3227   10.0120 C   0  0  0  0  0  0  0  0  0  0  0  0
   -8.2877   -9.2019    9.2695 N   0  0  1  0  0  0  0  0  0  0  0  0
  1  2  1  0  0  0  0
  3  1  1  1  0  0  0
  3  4  1  0  0  0  0
  3  5  1  0  0  0  0
  5  6  1  6  0  0  0
  5  7  1  0  0  0  0
  7  8  1  0  0  0  0
  8  4  1  1  0  0  0
  8 19  1  0  0  0  0
  9 15  1  0  0  0  0
  9 10  1  0  0  0  0
 10 11  1  6  0  0  0
 10 12  1  0  0  0  0
 13 12  1  6  0  0  0
 13 14  1  0  0  0  0
 13 19  1  0  0  0  0
 14 15  1  1  0  0  0
 14 17  1  0  0  0  0
 15 16  2  0  0  0  0
 17 18  1  0  0  0  0
 19 18  1  1  0  0  0
M  END
>  <CHROM.1>
-57.64954117,-14.00076928,-8.65972404,-7.91204053,9.52462475,3.11020310,0.89918953
3.03877646

>  <Name>
ligand

>  <RI>
0

>  <Rbt.Current_Directory>
/home/itssahil/PROJECTS/Mol_Feturizer/New_Systems/rnas/3SKI

>  <Rbt.Executable>
rbdock ($Id: //depot/dev/client3/rdock/2013.1/src/exe/rbdock.cxx#4 $)

>  <Rbt.Library>
libRbt.so (2013.1, Build901 2013/11/27)

>  <Rbt.Parameter_File>
/export/apps/rDock/src/rDock_2013.1_src/data/scripts/dock_solv.prm

>  <Rbt.Receptor>
prm/pocket_docking_8.prm

>  <SCORE>
-17.749

>  <SCORE.INTER>
-14.6026

>  <SCORE.INTER.CONST>
1

>  <SCORE.INTER.POLAR>
0

>  <SCORE.INTER.ROT>
2

>  <SCORE.INTER.SOLV>
9.22707

>  <SCORE.INTER.VDW>
-17.7441

>  <SCORE.INTER.norm>
-0.768559

>  <SCORE.INTRA>
-3.14637

>  <SCORE.INTRA.DIHEDRAL>
-5.03214

>  <SCORE.INTRA.DIHEDRAL.0>
6.26853

>  <SCORE.INTRA.POLAR>
0

>  <SCORE.INTRA.POLAR.0>
0

>  <SCORE.INTRA.REPUL>
0

>  <SCORE.INTRA.REPUL.0>
0

>  <SCORE.INTRA.SOLV>
0.389875

>  <SCORE.INTRA.SOLV.lig_0>
-38.4926

>  <SCORE.INTRA.VDW>
-0.825237

>  <SCORE.INTRA.VDW.0>
-0.59057

>  <SCORE.INTRA.norm>
-0.165598

>  <SCORE.RESTR>
0

>  <SCORE.RESTR.CAVITY>
0

>  <SCORE.RESTR.norm>
0

>  <SCORE.SYSTEM>
0

>  <SCORE.SYSTEM.CONST>
0

>  <SCORE.SYSTEM.DIHEDRAL>
0

>  <SCORE.SYSTEM.SOLV>
0

>  <SCORE.SYSTEM.norm>
0

>  <SCORE.heavy>
19

>  <SCORE.norm>
-0.934157

>  <RMSD>
6.164

$$$$
ligand
 OpenBabel11021811483D
libRbt.so/2013.1/901 2013/11/27
 19 21  0  0  0  0  0  0  0  0999 V2000
  -10.6095   -6.1099    7.8886 C   0  0  0  0  0  0  0  0  0  0  0  0
  -10.5400   -6.3328    9.3048 O   0  0  0  0  0  0  0  0  0  0  0  0
  -10.1209   -7.3457    7.1297 C   0  0  1  0  0  0  0  0  0  0  0  0
   -8.7811   -7.6923    7.5293 O   0  0  0  0  0  0  0  0  0  0  0  0
  -11.0003   -8.5488    7.4214 C   0  0  1  0  0  0  0  0  0  0  0  0
  -11.8763   -8.8278    6.3222 O   0  0  0  0  0  0  0  0  0  0  0  0
  -10.0522   -9.7058    7.6504 C   0  0  0  0  0  0  0  0  0  0  0  0
   -8.6800   -9.0840    7.8648 C   0  0  2  0  0  0  0  0  0  0  0  0
   -6.6443   -6.6261   12.0371 N   0  0  0  0  0  0  0  0  0  0  0  0
   -6.9183   -6.1483   10.7934 C   0  0  1  0  0  0  0  0  0  0  0  0
   -6.6513   -4.8505   10.5132 N   0  0  0  0  0  0  0  0  0  0  0  0
   -7.4493   -6.9436    9.8251 N   0  0  0  0  0  0  0  0  0  0  0  0
   -7.7342   -8.2544   10.0535 C   0  0  2  0  0  0  0  0  0  0  0  0
   -7.4758   -8.7956   11.2999 C   0  0  1  0  0  0  0  0  0  0  0  0
   -6.8981   -7.9164   12.3483 C   0  0  0  0  0  0  0  0  0  0  0  0
   -6.6522   -8.3582   13.4930 O   0  0  0  0  0  0  0  0  0  0  0  0
   -7.8460  -10.0876   11.2710 N   0  0  0  0  0  0  0  0  0  0  0  0
   -8.3191  -10.3468   10.0296 C   0  0  0  0  0  0  0  0  0  0  0  0
   -8.2495   -9.2270    9.2870 N   0  0  1  0  0  0  0  0  0  0  0  0
  1  2  1  0  0  0  0
  3  1  1  1  0  0  0
  3  4  1  0  0  0  0
  3  5  1  0  0  0  0
  5  6  1  6  0  0  0
  5  7  1  0  0  0  0
  7  8  1  0  0  0  0
  8  4  1  1  0  0  0
  8 19  1  0  0  0  0
  9 15  1  0  0  0  0
  9 10  1  0  0  0  0
 10 11  1  6  0  0  0
 10 12  1  0  0  0  0
 13 12  1  6  0  0  0
 13 14  1  0  0  0  0
 13 19  1  0  0  0  0
 14 15  1  1  0  0  0
 14 17  1  0  0  0  0
 15 16  2  0  0  0  0
 17 18  1  0  0  0  0
 19 18  1  1  0  0  0
M  END
>  <CHROM.1>
-56.85632946,-14.42325908,-8.60632137,-7.93628605,9.54253623,3.12829368,0.89734260
3.02302897

>  <Name>
ligand

>  <RI>
0

>  <Rbt.Current_Directory>
/home/itssahil/PROJECTS/Mol_Feturizer/New_Systems/rnas/3SKI

>  <Rbt.Executable>
rbdock ($Id: //depot/dev/client3/rdock/2013.1/src/exe/rbdock.cxx#4 $)

>  <Rbt.Library>
libRbt.so (2013.1, Build901 2013/11/27)

>  <Rbt.Parameter_File>
/export/apps/rDock/src/rDock_2013.1_src/data/scripts/dock_solv.prm

>  <Rbt.Receptor>
prm/pocket_docking_6.prm

>  <SCORE>
-17.8388

>  <SCORE.INTER>
-14.7009

>  <SCORE.INTER.CONST>
1

>  <SCORE.INTER.POLAR>
0

>  <SCORE.INTER.ROT>
2

>  <SCORE.INTER.SOLV>
9.34963

>  <SCORE.INTER.VDW>
-17.8505

>  <SCORE.INTER.norm>
-0.773733

>  <SCORE.INTRA>
-3.13786

>  <SCORE.INTRA.DIHEDRAL>
-5.01586

>  <SCORE.INTRA.DIHEDRAL.0>
6.26853

>  <SCORE.INTRA.POLAR>
0

>  <SCORE.INTRA.POLAR.0>
0

>  <SCORE.INTRA.REPUL>
0

>  <SCORE.INTRA.REPUL.0>
0

>  <SCORE.INTRA.SOLV>
0.388146

>  <SCORE.INTRA.SOLV.lig_0>
-38.4926

>  <SCORE.INTRA.VDW>
-0.823999

>  <SCORE.INTRA.VDW.0>
-0.59057

>  <SCORE.INTRA.norm>
-0.16515

>  <SCORE.RESTR>
0

>  <SCORE.RESTR.CAVITY>
0

>  <SCORE.RESTR.norm>
0

>  <SCORE.SYSTEM>
0

>  <SCORE.SYSTEM.CONST>
0

>  <SCORE.SYSTEM.DIHEDRAL>
0

>  <SCORE.SYSTEM.SOLV>
0

>  <SCORE.SYSTEM.norm>
0

>  <SCORE.heavy>
19

>  <SCORE.norm>
-0.938883

>  <RMSD>
6.166

$$$$
ligand
 OpenBabel11021811483D
libRbt.so/2013.1/901 2013/11/27
 19 21  0  0  0  0  0  0  0  0999 V2000
  -10.6159   -6.1139    7.8897 C   0  0  0  0  0  0  0  0  0  0  0  0
  -10.5567   -6.3444    9.3051 O   0  0  0  0  0  0  0  0  0  0  0  0
  -10.1213   -7.3455    7.1278 C   0  0  1  0  0  0  0  0  0  0  0  0
   -8.7805   -7.6876    7.5280 O   0  0  0  0  0  0  0  0  0  0  0  0
  -10.9960   -8.5531    7.4150 C   0  0  1  0  0  0  0  0  0  0  0  0
  -11.8696   -8.8325    6.3139 O   0  0  0  0  0  0  0  0  0  0  0  0
  -10.0433   -9.7068    7.6417 C   0  0  0  0  0  0  0  0  0  0  0  0
   -8.6740   -9.0798    7.8596 C   0  0  2  0  0  0  0  0  0  0  0  0
   -6.6595   -6.6241   12.0433 N   0  0  0  0  0  0  0  0  0  0  0  0
   -6.9347   -6.1436   10.8010 C   0  0  1  0  0  0  0  0  0  0  0  0
   -6.6754   -4.8432   10.5257 N   0  0  0  0  0  0  0  0  0  0  0  0
   -7.4594   -6.9388    9.8291 N   0  0  0  0  0  0  0  0  0  0  0  0
   -7.7364   -8.2521   10.0525 C   0  0  2  0  0  0  0  0  0  0  0  0
   -7.4763   -8.7961   11.2974 C   0  0  1  0  0  0  0  0  0  0  0  0
   -6.9056   -7.9171   12.3496 C   0  0  0  0  0  0  0  0  0  0  0  0
   -6.6585   -8.3613   13.4931 O   0  0  0  0  0  0  0  0  0  0  0  0
   -7.8384  -10.0903   11.2633 N   0  0  0  0  0  0  0  0  0  0  0  0
   -8.3082  -10.3481   10.0204 C   0  0  0  0  0  0  0  0  0  0  0  0
   -8.2446   -9.2252    9.2818 N   0  0  1  0  0  0  0  0  0  0  0  0
  1  2  1  0  0  0  0
  3  1  1  1  0  0  0
  3  4  1  0  0  0  0
  3  5  1  0  0  0  0
  5  6  1  6  0  0  0
  5  7  1  0  0  0  0
  7  8  1  0  0  0  0
  8  4  1  1  0  0  0
  8 19  1  0  0  0  0
  9 15  1  0  0  0  0
  9 10  1  0  0  0  0
 10 11  1  6  0  0  0
 10 12  1  0  0  0  0
 13 12  1  6  0  0  0
 13 14  1  0  0  0  0
 13 19  1  0  0  0  0
 14 15  1  1  0  0  0
 14 17  1  0  0  0  0
 15 16  2  0  0  0  0
 17 18  1  0  0  0  0
 19 18  1  1  0  0  0
M  END
>  <CHROM.1>
-57.29387016,-14.29872342,-8.60933249,-7.93652135,9.54124994,3.11963018,0.89954485
3.03388707

>  <Name>
ligand

>  <RI>
0

>  <Rbt.Current_Directory>
/home/itssahil/PROJECTS/Mol_Feturizer/New_Systems/rnas/3SKI

>  <Rbt.Executable>
rbdock ($Id: //depot/dev/client3/rdock/2013.1/src/exe/rbdock.cxx#4 $)

>  <Rbt.Library>
libRbt.so (2013.1, Build901 2013/11/27)

>  <Rbt.Parameter_File>
/export/apps/rDock/src/rDock_2013.1_src/data/scripts/dock_solv.prm

>  <Rbt.Receptor>
prm/pocket_docking_7.prm

>  <SCORE>
-17.8335

>  <SCORE.INTER>
-14.693

>  <SCORE.INTER.CONST>
1

>  <SCORE.INTER.POLAR>
0

>  <SCORE.INTER.ROT>
2

>  <SCORE.INTER.SOLV>
9.36579

>  <SCORE.INTER.VDW>
-17.8506

>  <SCORE.INTER.norm>
-0.773315

>  <SCORE.INTRA>
-3.14048

>  <SCORE.INTRA.DIHEDRAL>
-5.02532

>  <SCORE.INTRA.DIHEDRAL.0>
6.26853

>  <SCORE.INTRA.POLAR>
0

>  <SCORE.INTRA.POLAR.0>
0

>  <SCORE.INTRA.REPUL>
0

>  <SCORE.INTRA.REPUL.0>
0

>  <SCORE.INTRA.SOLV>
0.388339

>  <SCORE.INTRA.SOLV.lig_0>
-38.4926

>  <SCORE.INTRA.VDW>
-0.821986

>  <SCORE.INTRA.VDW.0>
-0.59057

>  <SCORE.INTRA.norm>
-0.165288

>  <SCORE.RESTR>
0

>  <SCORE.RESTR.CAVITY>
0

>  <SCORE.RESTR.norm>
0

>  <SCORE.SYSTEM>
0

>  <SCORE.SYSTEM.CONST>
0

>  <SCORE.SYSTEM.DIHEDRAL>
0

>  <SCORE.SYSTEM.SOLV>
0

>  <SCORE.SYSTEM.norm>
0

>  <SCORE.heavy>
19

>  <SCORE.norm>
-0.938603

>  <RMSD>
6.166

$$$$
ligand
 OpenBabel11021811483D
libRbt.so/2013.1/901 2013/11/27
 19 21  0  0  0  0  0  0  0  0999 V2000
   -5.2464   -7.7938   13.9784 C   0  0  0  0  0  0  0  0  0  0  0  0
   -3.8307   -7.9974   14.0987 O   0  0  0  0  0  0  0  0  0  0  0  0
   -5.8669   -8.8743   13.0901 C   0  0  1  0  0  0  0  0  0  0  0  0
   -7.2911   -8.6877   12.9803 O   0  0  0  0  0  0  0  0  0  0  0  0
   -5.2983   -8.8178   11.6832 C   0  0  1  0  0  0  0  0  0  0  0  0
   -4.3550   -9.8741   11.4638 O   0  0  0  0  0  0  0  0  0  0  0  0
   -6.4836   -8.9643   10.7540 C   0  0  0  0  0  0  0  0  0  0  0  0
   -7.7173   -8.7184   11.6102 C   0  0  2  0  0  0  0  0  0  0  0  0
  -11.1862   -6.3162    8.4815 N   0  0  0  0  0  0  0  0  0  0  0  0
  -10.8171   -7.6245    8.5292 C   0  0  1  0  0  0  0  0  0  0  0  0
  -11.3872   -8.5011    7.6687 N   0  0  0  0  0  0  0  0  0  0  0  0
   -9.8872   -8.0710    9.4169 N   0  0  0  0  0  0  0  0  0  0  0  0
   -9.2827   -7.2320   10.3012 C   0  0  2  0  0  0  0  0  0  0  0  0
   -9.6179   -5.8901   10.2981 C   0  0  1  0  0  0  0  0  0  0  0  0
  -10.6355   -5.4161    9.3258 C   0  0  0  0  0  0  0  0  0  0  0  0
  -10.9764   -4.2126    9.2882 O   0  0  0  0  0  0  0  0  0  0  0  0
   -8.8956   -5.2845   11.2567 N   0  0  0  0  0  0  0  0  0  0  0  0
   -8.1217   -6.2294   11.8401 C   0  0  0  0  0  0  0  0  0  0  0  0
   -8.3584   -7.4179   11.2553 N   0  0  1  0  0  0  0  0  0  0  0  0
  1  2  1  0  0  0  0
  3  1  1  1  0  0  0
  3  4  1  0  0  0  0
  3  5  1  0  0  0  0
  5  6  1  1  0  0  0
  5  7  1  0  0  0  0
  7  8  1  0  0  0  0
  8  4  1  1  0  0  0
  8 19  1  0  0  0  0
  9 15  1  0  0  0  0
  9 10  1  0  0  0  0
 10 11  1  6  0  0  0
 10 12  1  0  0  0  0
 13 12  1  6  0  0  0
 13 14  1  0  0  0  0
 13 19  1  0  0  0  0
 14 15  1  1  0  0  0
 14 17  1  0  0  0  0
 15 16  2  0  0  0  0
 17 18  1  0  0  0  0
 19 18  1  1  0  0  0
M  END
>  <CHROM.1>
179.17262733,-153.63100100,-8.08649869,-7.49934321,10.96252277,-0.00591210
-0.67716891,0.52610067

>  <Name>
ligand

>  <RI>
0

>  <Rbt.Current_Directory>
/home/itssahil/PROJECTS/Mol_Feturizer/New_Systems/rnas/3SKI

>  <Rbt.Executable>
rbdock ($Id: //depot/dev/client3/rdock/2013.1/src/exe/rbdock.cxx#4 $)

>  <Rbt.Library>
libRbt.so (2013.1, Build901 2013/11/27)

>  <Rbt.Parameter_File>
/export/apps/rDock/src/rDock_2013.1_src/data/scripts/dock_solv.prm

>  <Rbt.Receptor>
prm/blind_docking_40.prm

>  <SCORE>
-14.77

>  <SCORE.INTER>
-11.7832

>  <SCORE.INTER.CONST>
1

>  <SCORE.INTER.POLAR>
0

>  <SCORE.INTER.ROT>
2

>  <SCORE.INTER.SOLV>
10.0153

>  <SCORE.INTER.VDW>
-16.1272

>  <SCORE.INTER.norm>
-0.620168

>  <SCORE.INTRA>
-2.98685

>  <SCORE.INTRA.DIHEDRAL>
-5.04518

>  <SCORE.INTRA.DIHEDRAL.0>
6.26853

>  <SCORE.INTRA.POLAR>
0

>  <SCORE.INTRA.POLAR.0>
0

>  <SCORE.INTRA.REPUL>
0

>  <SCORE.INTRA.REPUL.0>
0

>  <SCORE.INTRA.SOLV>
-0.0128106

>  <SCORE.INTRA.SOLV.lig_0>
-38.4926

>  <SCORE.INTRA.VDW>
-0.457853

>  <SCORE.INTRA.VDW.0>
-0.59057

>  <SCORE.INTRA.norm>
-0.157203

>  <SCORE.RESTR>
0

>  <SCORE.RESTR.CAVITY>
0

>  <SCORE.RESTR.norm>
0

>  <SCORE.SYSTEM>
0

>  <SCORE.SYSTEM.CONST>
0

>  <SCORE.SYSTEM.DIHEDRAL>
0

>  <SCORE.SYSTEM.SOLV>
0

>  <SCORE.SYSTEM.norm>
0

>  <SCORE.heavy>
19

>  <SCORE.norm>
-0.777371

>  <RMSD>
6.167

$$$$
ligand
 OpenBabel11021811483D
libRbt.so/2013.1/901 2013/11/27
 19 21  0  0  0  0  0  0  0  0999 V2000
  -10.6023   -6.1204    7.8806 C   0  0  0  0  0  0  0  0  0  0  0  0
  -10.5451   -6.3452    9.2971 O   0  0  0  0  0  0  0  0  0  0  0  0
  -10.1033   -7.3537    7.1244 C   0  0  1  0  0  0  0  0  0  0  0  0
   -8.7646   -7.6945    7.5327 O   0  0  0  0  0  0  0  0  0  0  0  0
  -10.9793   -8.5608    7.4099 C   0  0  1  0  0  0  0  0  0  0  0  0
  -11.8468   -8.8431    6.3048 O   0  0  0  0  0  0  0  0  0  0  0  0
  -10.0276   -9.7137    7.6446 C   0  0  0  0  0  0  0  0  0  0  0  0
   -8.6596   -9.0859    7.8683 C   0  0  2  0  0  0  0  0  0  0  0  0
   -6.6508   -6.6240   12.0512 N   0  0  0  0  0  0  0  0  0  0  0  0
   -6.9173   -6.1473   10.8055 C   0  0  1  0  0  0  0  0  0  0  0  0
   -6.6491   -4.8496   10.5260 N   0  0  0  0  0  0  0  0  0  0  0  0
   -7.4419   -6.9435    9.8345 N   0  0  0  0  0  0  0  0  0  0  0  0
   -7.7277   -8.2543   10.0622 C   0  0  2  0  0  0  0  0  0  0  0  0
   -7.4767   -8.7944   11.3106 C   0  0  1  0  0  0  0  0  0  0  0  0
   -6.9060   -7.9142   12.3618 C   0  0  0  0  0  0  0  0  0  0  0  0
   -6.6669   -8.3550   13.5084 O   0  0  0  0  0  0  0  0  0  0  0  0
   -7.8462  -10.0866   11.2803 N   0  0  0  0  0  0  0  0  0  0  0  0
   -8.3116  -10.3470   10.0362 C   0  0  0  0  0  0  0  0  0  0  0  0
   -8.2378   -9.2276    9.2932 N   0  0  1  0  0  0  0  0  0  0  0  0
  1  2  1  0  0  0  0
  3  1  1  1  0  0  0
  3  4  1  0  0  0  0
  3  5  1  0  0  0  0
  5  6  1  6  0  0  0
  5  7  1  0  0  0  0
  7  8  1  0  0  0  0
  8  4  1  1  0  0  0
  8 19  1  0  0  0  0
  9 15  1  0  0  0  0
  9 10  1  0  0  0  0
 10 11  1  6  0  0  0
 10 12  1  0  0  0  0
 13 12  1  6  0  0  0
 13 14  1  0  0  0  0
 13 19  1  0  0  0  0
 14 15  1  1  0  0  0
 14 17  1  0  0  0  0
 15 16  2  0  0  0  0
 17 18  1  0  0  0  0
 19 18  1  1  0  0  0
M  END
>  <CHROM.1>
-57.03929012,-14.66219102,-8.59899589,-7.93960653,9.54590078,3.12628414,0.90284601
3.02330256

>  <Name>
ligand

>  <RI>
0

>  <Rbt.Current_Directory>
/home/itssahil/PROJECTS/Mol_Feturizer/New_Systems/rnas/3SKI

>  <Rbt.Executable>
rbdock ($Id: //depot/dev/client3/rdock/2013.1/src/exe/rbdock.cxx#4 $)

>  <Rbt.Library>
libRbt.so (2013.1, Build901 2013/11/27)

>  <Rbt.Parameter_File>
/export/apps/rDock/src/rDock_2013.1_src/data/scripts/dock_solv.prm

>  <Rbt.Receptor>
prm/blind_docking_40.prm

>  <SCORE>
-17.8667

>  <SCORE.INTER>
-14.7342

>  <SCORE.INTER.CONST>
1

>  <SCORE.INTER.POLAR>
0

>  <SCORE.INTER.ROT>
2

>  <SCORE.INTER.SOLV>
9.42422

>  <SCORE.INTER.VDW>
-17.8975

>  <SCORE.INTER.norm>
-0.775485

>  <SCORE.INTRA>
-3.13246

>  <SCORE.INTRA.DIHEDRAL>
-5.01978

>  <SCORE.INTRA.DIHEDRAL.0>
6.26853

>  <SCORE.INTRA.POLAR>
0

>  <SCORE.INTRA.POLAR.0>
0

>  <SCORE.INTRA.REPUL>
0

>  <SCORE.INTRA.REPUL.0>
0

>  <SCORE.INTRA.SOLV>
0.386363

>  <SCORE.INTRA.SOLV.lig_0>
-38.4926

>  <SCORE.INTRA.VDW>
-0.815757

>  <SCORE.INTRA.VDW.0>
-0.59057

>  <SCORE.INTRA.norm>
-0.164867

>  <SCORE.RESTR>
0

>  <SCORE.RESTR.CAVITY>
0

>  <SCORE.RESTR.norm>
0

>  <SCORE.SYSTEM>
0

>  <SCORE.SYSTEM.CONST>
0

>  <SCORE.SYSTEM.DIHEDRAL>
0

>  <SCORE.SYSTEM.SOLV>
0

>  <SCORE.SYSTEM.norm>
0

>  <SCORE.heavy>
19

>  <SCORE.norm>
-0.940351

>  <RMSD>
6.167

$$$$
ligand
 OpenBabel11021811483D
libRbt.so/2013.1/901 2013/11/27
 19 21  0  0  0  0  0  0  0  0999 V2000
  -10.6017   -6.1073    7.8876 C   0  0  0  0  0  0  0  0  0  0  0  0
  -10.5461   -6.3345    9.3037 O   0  0  0  0  0  0  0  0  0  0  0  0
  -10.1129   -7.3435    7.1296 C   0  0  1  0  0  0  0  0  0  0  0  0
   -8.7742   -7.6915    7.5319 O   0  0  0  0  0  0  0  0  0  0  0  0
  -10.9941   -8.5458    7.4194 C   0  0  1  0  0  0  0  0  0  0  0  0
  -11.8681   -8.8238    6.3184 O   0  0  0  0  0  0  0  0  0  0  0  0
  -10.0476   -9.7037    7.6502 C   0  0  0  0  0  0  0  0  0  0  0  0
   -8.6753   -9.0833    7.8675 C   0  0  2  0  0  0  0  0  0  0  0  0
   -6.6497   -6.6269   12.0455 N   0  0  0  0  0  0  0  0  0  0  0  0
   -6.9211   -6.1485   10.8015 C   0  0  1  0  0  0  0  0  0  0  0  0
   -6.6540   -4.8505   10.5225 N   0  0  0  0  0  0  0  0  0  0  0  0
   -7.4496   -6.9435    9.8316 N   0  0  0  0  0  0  0  0  0  0  0  0
   -7.7345   -8.2545   10.0587 C   0  0  2  0  0  0  0  0  0  0  0  0
   -7.4786   -8.7962   11.3054 C   0  0  1  0  0  0  0  0  0  0  0  0
   -6.9036   -7.9174   12.3555 C   0  0  0  0  0  0  0  0  0  0  0  0
   -6.6600   -8.3597   13.5005 O   0  0  0  0  0  0  0  0  0  0  0  0
   -7.8483  -10.0884   11.2750 N   0  0  0  0  0  0  0  0  0  0  0  0
   -8.3186  -10.3472   10.0324 C   0  0  0  0  0  0  0  0  0  0  0  0
   -8.2478   -9.2269    9.2906 N   0  0  1  0  0  0  0  0  0  0  0  0
  1  2  1  0  0  0  0
  3  1  1  1  0  0  0
  3  4  1  0  0  0  0
  3  5  1  0  0  0  0
  5  6  1  6  0  0  0
  5  7  1  0  0  0  0
  7  8  1  0  0  0  0
  8  4  1  1  0  0  0
  8 19  1  0  0  0  0
  9 15  1  0  0  0  0
  9 10  1  0  0  0  0
 10 11  1  6  0  0  0
 10 12  1  0  0  0  0
 13 12  1  6  0  0  0
 13 14  1  0  0  0  0
 13 19  1  0  0  0  0
 14 15  1  1  0  0  0
 14 17  1  0  0  0  0
 15 16  2  0  0  0  0
 17 18  1  0  0  0  0
 19 18  1  1  0  0  0
M  END
>  <CHROM.1>
-57.34852753,-14.33861116,-8.60562176,-7.93581623,9.54587015,3.12872146,0.89955963
3.02367873

>  <Name>
ligand

>  <RI>
0

>  <Rbt.Current_Directory>
/home/itssahil/PROJECTS/Mol_Feturizer/New_Systems/rnas/3SKI

>  <Rbt.Executable>
rbdock ($Id: //depot/dev/client3/rdock/2013.1/src/exe/rbdock.cxx#4 $)

>  <Rbt.Library>
libRbt.so (2013.1, Build901 2013/11/27)

>  <Rbt.Parameter_File>
/export/apps/rDock/src/rDock_2013.1_src/data/scripts/dock_solv.prm

>  <Rbt.Receptor>
prm/blind_docking_60.prm

>  <SCORE>
-17.8397

>  <SCORE.INTER>
-14.7002

>  <SCORE.INTER.CONST>
1

>  <SCORE.INTER.POLAR>
0

>  <SCORE.INTER.ROT>
2

>  <SCORE.INTER.SOLV>
9.37138

>  <SCORE.INTER.VDW>
-17.8573

>  <SCORE.INTER.norm>
-0.773697

>  <SCORE.INTRA>
-3.13949

>  <SCORE.INTRA.DIHEDRAL>
-5.02637

>  <SCORE.INTRA.DIHEDRAL.0>
6.26853

>  <SCORE.INTRA.POLAR>
0

>  <SCORE.INTRA.POLAR.0>
0

>  <SCORE.INTRA.REPUL>
0

>  <SCORE.INTRA.REPUL.0>
0

>  <SCORE.INTRA.SOLV>
0.388005

>  <SCORE.INTRA.SOLV.lig_0>
-38.4926

>  <SCORE.INTRA.VDW>
-0.820306

>  <SCORE.INTRA.VDW.0>
-0.59057

>  <SCORE.INTRA.norm>
-0.165236

>  <SCORE.RESTR>
0

>  <SCORE.RESTR.CAVITY>
0

>  <SCORE.RESTR.norm>
0

>  <SCORE.SYSTEM>
0

>  <SCORE.SYSTEM.CONST>
0

>  <SCORE.SYSTEM.DIHEDRAL>
0

>  <SCORE.SYSTEM.SOLV>
0

>  <SCORE.SYSTEM.norm>
0

>  <SCORE.heavy>
19

>  <SCORE.norm>
-0.938933

>  <RMSD>
6.167

$$$$
ligand
 OpenBabel11021811483D
libRbt.so/2013.1/901 2013/11/27
 19 21  0  0  0  0  0  0  0  0999 V2000
  -10.6200   -6.1158    7.8894 C   0  0  0  0  0  0  0  0  0  0  0  0
  -10.5903   -6.3576    9.3039 O   0  0  0  0  0  0  0  0  0  0  0  0
  -10.1248   -7.3471    7.1275 C   0  0  1  0  0  0  0  0  0  0  0  0
   -8.7837   -7.6884    7.5275 O   0  0  0  0  0  0  0  0  0  0  0  0
  -10.9988   -8.5551    7.4148 C   0  0  1  0  0  0  0  0  0  0  0  0
  -11.8723   -8.8351    6.3137 O   0  0  0  0  0  0  0  0  0  0  0  0
  -10.0454   -9.7083    7.6413 C   0  0  0  0  0  0  0  0  0  0  0  0
   -8.6764   -9.0806    7.8591 C   0  0  2  0  0  0  0  0  0  0  0  0
   -6.6568   -6.6254   12.0407 N   0  0  0  0  0  0  0  0  0  0  0  0
   -6.9317   -6.1452   10.7981 C   0  0  1  0  0  0  0  0  0  0  0  0
   -6.6705   -4.8454   10.5220 N   0  0  0  0  0  0  0  0  0  0  0  0
   -7.4579   -6.9402    9.8269 N   0  0  0  0  0  0  0  0  0  0  0  0
   -7.7368   -8.2529   10.0512 C   0  0  2  0  0  0  0  0  0  0  0  0
   -7.4773   -8.7965   11.2964 C   0  0  1  0  0  0  0  0  0  0  0  0
   -6.9049   -7.9177   12.3479 C   0  0  0  0  0  0  0  0  0  0  0  0
   -6.6581   -8.3616   13.4916 O   0  0  0  0  0  0  0  0  0  0  0  0
   -7.8414  -10.0902   11.2633 N   0  0  0  0  0  0  0  0  0  0  0  0
   -8.3119  -10.3480   10.0206 C   0  0  0  0  0  0  0  0  0  0  0  0
   -8.2468   -9.2257    9.2814 N   0  0  1  0  0  0  0  0  0  0  0  0
  1  2  1  0  0  0  0
  3  1  1  1  0  0  0
  3  4  1  0  0  0  0
  3  5  1  0  0  0  0
  5  6  1  6  0  0  0
  5  7  1  0  0  0  0
  7  8  1  0  0  0  0
  8  4  1  1  0  0  0
  8 19  1  0  0  0  0
  9 15  1  0  0  0  0
  9 10  1  0  0  0  0
 10 11  1  6  0  0  0
 10 12  1  0  0  0  0
 13 12  1  6  0  0  0
 13 14  1  0  0  0  0
 13 19  1  0  0  0  0
 14 15  1  1  0  0  0
 14 17  1  0  0  0  0
 15 16  2  0  0  0  0
 17 18  1  0  0  0  0
 19 18  1  1  0  0  0
M  END
>  <CHROM.1>
-58.65236700,-14.42623987,-8.61235863,-7.93841635,9.54017280,3.12015956,0.89812729
3.03318323

>  <Name>
ligand

>  <RI>
0

>  <Rbt.Current_Directory>
/home/itssahil/PROJECTS/Mol_Feturizer/New_Systems/rnas/3SKI

>  <Rbt.Executable>
rbdock ($Id: //depot/dev/client3/rdock/2013.1/src/exe/rbdock.cxx#4 $)

>  <Rbt.Library>
libRbt.so (2013.1, Build901 2013/11/27)

>  <Rbt.Parameter_File>
/export/apps/rDock/src/rDock_2013.1_src/data/scripts/dock_solv.prm

>  <Rbt.Receptor>
prm/pocket_docking_7.prm

>  <SCORE>
-17.8316

>  <SCORE.INTER>
-14.7002

>  <SCORE.INTER.CONST>
1

>  <SCORE.INTER.POLAR>
0

>  <SCORE.INTER.ROT>
2

>  <SCORE.INTER.SOLV>
9.38241

>  <SCORE.INTER.VDW>
-17.8609

>  <SCORE.INTER.norm>
-0.773694

>  <SCORE.INTRA>
-3.13145

>  <SCORE.INTRA.DIHEDRAL>
-5.04558

>  <SCORE.INTRA.DIHEDRAL.0>
6.26853

>  <SCORE.INTRA.POLAR>
0

>  <SCORE.INTRA.POLAR.0>
0

>  <SCORE.INTRA.REPUL>
0

>  <SCORE.INTRA.REPUL.0>
0

>  <SCORE.INTRA.SOLV>
0.385454

>  <SCORE.INTRA.SOLV.lig_0>
-38.4926

>  <SCORE.INTRA.VDW>
-0.801385

>  <SCORE.INTRA.VDW.0>
-0.59057

>  <SCORE.INTRA.norm>
-0.164813

>  <SCORE.RESTR>
0

>  <SCORE.RESTR.CAVITY>
0

>  <SCORE.RESTR.norm>
0

>  <SCORE.SYSTEM>
0

>  <SCORE.SYSTEM.CONST>
0

>  <SCORE.SYSTEM.DIHEDRAL>
0

>  <SCORE.SYSTEM.SOLV>
0

>  <SCORE.SYSTEM.norm>
0

>  <SCORE.heavy>
19

>  <SCORE.norm>
-0.938507

>  <RMSD>
6.169

$$$$
ligand
 OpenBabel11021811483D
libRbt.so/2013.1/901 2013/11/27
 19 21  0  0  0  0  0  0  0  0999 V2000
  -10.6060   -6.1091    7.8843 C   0  0  0  0  0  0  0  0  0  0  0  0
  -10.5494   -6.3359    9.3004 O   0  0  0  0  0  0  0  0  0  0  0  0
  -10.1167   -7.3452    7.1264 C   0  0  1  0  0  0  0  0  0  0  0  0
   -8.7784   -7.6934    7.5296 O   0  0  0  0  0  0  0  0  0  0  0  0
  -10.9984   -8.5473    7.4152 C   0  0  1  0  0  0  0  0  0  0  0  0
  -11.8716   -8.8249    6.3134 O   0  0  0  0  0  0  0  0  0  0  0  0
  -10.0522   -9.7055    7.6464 C   0  0  0  0  0  0  0  0  0  0  0  0
   -8.6799   -9.0854    7.8649 C   0  0  2  0  0  0  0  0  0  0  0  0
   -6.6552   -6.6307   12.0444 N   0  0  0  0  0  0  0  0  0  0  0  0
   -6.9254   -6.1521   10.8002 C   0  0  1  0  0  0  0  0  0  0  0  0
   -6.6571   -4.8543   10.5215 N   0  0  0  0  0  0  0  0  0  0  0  0
   -7.4540   -6.9466    9.8299 N   0  0  0  0  0  0  0  0  0  0  0  0
   -7.7400   -8.2574   10.0568 C   0  0  2  0  0  0  0  0  0  0  0  0
   -7.4854   -8.7994   11.3037 C   0  0  1  0  0  0  0  0  0  0  0  0
   -6.9105   -7.9211   12.3542 C   0  0  0  0  0  0  0  0  0  0  0  0
   -6.6680   -8.3636   13.4994 O   0  0  0  0  0  0  0  0  0  0  0  0
   -7.8561  -10.0913   11.2729 N   0  0  0  0  0  0  0  0  0  0  0  0
   -8.3258  -10.3496   10.0300 C   0  0  0  0  0  0  0  0  0  0  0  0
   -8.2536   -9.2293    9.2883 N   0  0  1  0  0  0  0  0  0  0  0  0
  1  2  1  0  0  0  0
  3  1  1  1  0  0  0
  3  4  1  0  0  0  0
  3  5  1  0  0  0  0
  5  6  1  6  0  0  0
  5  7  1  0  0  0  0
  7  8  1  0  0  0  0
  8  4  1  1  0  0  0
  8 19  1  0  0  0  0
  9 15  1  0  0  0  0
  9 10  1  0  0  0  0
 10 11  1  6  0  0  0
 10 12  1  0  0  0  0
 13 12  1  6  0  0  0
 13 14  1  0  0  0  0
 13 19  1  0  0  0  0
 14 15  1  1  0  0  0
 14 17  1  0  0  0  0
 15 16  2  0  0  0  0
 17 18  1  0  0  0  0
 19 18  1  1  0  0  0
M  END
>  <CHROM.1>
-57.25537800,-14.37773867,-8.61073363,-7.93837233,9.54342986,3.12978748,0.90008510
3.02273813

>  <Name>
ligand

>  <RI>
0

>  <Rbt.Current_Directory>
/home/itssahil/PROJECTS/Mol_Feturizer/New_Systems/rnas/3SKI

>  <Rbt.Executable>
rbdock ($Id: //depot/dev/client3/rdock/2013.1/src/exe/rbdock.cxx#4 $)

>  <Rbt.Library>
libRbt.so (2013.1, Build901 2013/11/27)

>  <Rbt.Parameter_File>
/export/apps/rDock/src/rDock_2013.1_src/data/scripts/dock_solv.prm

>  <Rbt.Receptor>
prm/pocket_docking_6.prm

>  <SCORE>
-17.8409

>  <SCORE.INTER>
-14.7022

>  <SCORE.INTER.CONST>
1

>  <SCORE.INTER.POLAR>
0

>  <SCORE.INTER.ROT>
2

>  <SCORE.INTER.SOLV>
9.37093

>  <SCORE.INTER.VDW>
-17.8584

>  <SCORE.INTER.norm>
-0.7738

>  <SCORE.INTRA>
-3.13874

>  <SCORE.INTRA.DIHEDRAL>
-5.02449

>  <SCORE.INTRA.DIHEDRAL.0>
6.26853

>  <SCORE.INTRA.POLAR>
0

>  <SCORE.INTRA.POLAR.0>
0

>  <SCORE.INTRA.REPUL>
0

>  <SCORE.INTRA.REPUL.0>
0

>  <SCORE.INTRA.SOLV>
0.387887

>  <SCORE.INTRA.SOLV.lig_0>
-38.4926

>  <SCORE.INTRA.VDW>
-0.820434

>  <SCORE.INTRA.VDW.0>
-0.59057

>  <SCORE.INTRA.norm>
-0.165197

>  <SCORE.RESTR>
0

>  <SCORE.RESTR.CAVITY>
0

>  <SCORE.RESTR.norm>
0

>  <SCORE.SYSTEM>
0

>  <SCORE.SYSTEM.CONST>
0

>  <SCORE.SYSTEM.DIHEDRAL>
0

>  <SCORE.SYSTEM.SOLV>
0

>  <SCORE.SYSTEM.norm>
0

>  <SCORE.heavy>
19

>  <SCORE.norm>
-0.938997

>  <RMSD>
6.171

$$$$
ligand
 OpenBabel11021811483D
libRbt.so/2013.1/901 2013/11/27
 19 21  0  0  0  0  0  0  0  0999 V2000
  -10.6139   -6.1114    7.8862 C   0  0  0  0  0  0  0  0  0  0  0  0
  -10.5576   -6.3405    9.3021 O   0  0  0  0  0  0  0  0  0  0  0  0
  -10.1227   -7.3457    7.1265 C   0  0  1  0  0  0  0  0  0  0  0  0
   -8.7836   -7.6920    7.5287 O   0  0  0  0  0  0  0  0  0  0  0  0
  -11.0020   -8.5498    7.4142 C   0  0  1  0  0  0  0  0  0  0  0  0
  -11.8753   -8.8275    6.3124 O   0  0  0  0  0  0  0  0  0  0  0  0
  -10.0537   -9.7066    7.6434 C   0  0  0  0  0  0  0  0  0  0  0  0
   -8.6824   -9.0842    7.8621 C   0  0  2  0  0  0  0  0  0  0  0  0
   -6.6609   -6.6313   12.0441 N   0  0  0  0  0  0  0  0  0  0  0  0
   -6.9327   -6.1514   10.8007 C   0  0  1  0  0  0  0  0  0  0  0  0
   -6.6671   -4.8527   10.5237 N   0  0  0  0  0  0  0  0  0  0  0  0
   -7.4600   -6.9457    9.8296 N   0  0  0  0  0  0  0  0  0  0  0  0
   -7.7433   -8.2574   10.0547 C   0  0  2  0  0  0  0  0  0  0  0  0
   -7.4870   -8.8006   11.3007 C   0  0  1  0  0  0  0  0  0  0  0  0
   -6.9134   -7.9226   12.3522 C   0  0  0  0  0  0  0  0  0  0  0  0
   -6.6695   -8.3662   13.4967 O   0  0  0  0  0  0  0  0  0  0  0  0
   -7.8551  -10.0932   11.2683 N   0  0  0  0  0  0  0  0  0  0  0  0
   -8.3248  -10.3507   10.0253 C   0  0  0  0  0  0  0  0  0  0  0  0
   -8.2552   -9.2293    9.2851 N   0  0  1  0  0  0  0  0  0  0  0  0
  1  2  1  0  0  0  0
  3  1  1  1  0  0  0
  3  4  1  0  0  0  0
  3  5  1  0  0  0  0
  5  6  1  6  0  0  0
  5  7  1  0  0  0  0
  7  8  1  0  0  0  0
  8  4  1  1  0  0  0
  8 19  1  0  0  0  0
  9 15  1  0  0  0  0
  9 10  1  0  0  0  0
 10 11  1  6  0  0  0
 10 12  1  0  0  0  0
 13 12  1  6  0  0  0
 13 14  1  0  0  0  0
 13 19  1  0  0  0  0
 14 15  1  1  0  0  0
 14 17  1  0  0  0  0
 15 16  2  0  0  0  0
 17 18  1  0  0  0  0
 19 18  1  1  0  0  0
M  END
>  <CHROM.1>
-57.31561382,-14.36502321,-8.61481347,-7.93929445,9.54214300,3.12654430,0.89990089
3.02673667

>  <Name>
ligand

>  <RI>
0

>  <Rbt.Current_Directory>
/home/itssahil/PROJECTS/Mol_Feturizer/New_Systems/rnas/3SKI

>  <Rbt.Executable>
rbdock ($Id: //depot/dev/client3/rdock/2013.1/src/exe/rbdock.cxx#4 $)

>  <Rbt.Library>
libRbt.so (2013.1, Build901 2013/11/27)

>  <Rbt.Parameter_File>
/export/apps/rDock/src/rDock_2013.1_src/data/scripts/dock_solv.prm

>  <Rbt.Receptor>
prm/pocket_docking_7.prm

>  <SCORE>
-17.841

>  <SCORE.INTER>
-14.7021

>  <SCORE.INTER.CONST>
1

>  <SCORE.INTER.POLAR>
0

>  <SCORE.INTER.ROT>
2

>  <SCORE.INTER.SOLV>
9.36358

>  <SCORE.INTER.VDW>
-17.8559

>  <SCORE.INTER.norm>
-0.773794

>  <SCORE.INTRA>
-3.13894

>  <SCORE.INTRA.DIHEDRAL>
-5.0257

>  <SCORE.INTRA.DIHEDRAL.0>
6.26853

>  <SCORE.INTRA.POLAR>
0

>  <SCORE.INTRA.POLAR.0>
0

>  <SCORE.INTRA.REPUL>
0

>  <SCORE.INTRA.REPUL.0>
0

>  <SCORE.INTRA.SOLV>
0.387883

>  <SCORE.INTRA.SOLV.lig_0>
-38.4926

>  <SCORE.INTRA.VDW>
-0.820031

>  <SCORE.INTRA.VDW.0>
-0.59057

>  <SCORE.INTRA.norm>
-0.165207

>  <SCORE.RESTR>
0

>  <SCORE.RESTR.CAVITY>
0

>  <SCORE.RESTR.norm>
0

>  <SCORE.SYSTEM>
0

>  <SCORE.SYSTEM.CONST>
0

>  <SCORE.SYSTEM.DIHEDRAL>
0

>  <SCORE.SYSTEM.SOLV>
0

>  <SCORE.SYSTEM.norm>
0

>  <SCORE.heavy>
19

>  <SCORE.norm>
-0.939002

>  <RMSD>
6.173

$$$$
ligand
 OpenBabel11021811483D
libRbt.so/2013.1/901 2013/11/27
 19 21  0  0  0  0  0  0  0  0999 V2000
   -5.2238   -7.7998   13.9514 C   0  0  0  0  0  0  0  0  0  0  0  0
   -3.8074   -8.0060   14.0596 O   0  0  0  0  0  0  0  0  0  0  0  0
   -5.8552   -8.8843   13.0757 C   0  0  1  0  0  0  0  0  0  0  0  0
   -7.2788   -8.6907   12.9721 O   0  0  0  0  0  0  0  0  0  0  0  0
   -5.2939   -8.8428   11.6653 C   0  0  1  0  0  0  0  0  0  0  0  0
   -4.3578   -9.9061   11.4497 O   0  0  0  0  0  0  0  0  0  0  0  0
   -6.4852   -8.9905   10.7438 C   0  0  0  0  0  0  0  0  0  0  0  0
   -7.7127   -8.7305   11.6047 C   0  0  2  0  0  0  0  0  0  0  0  0
  -11.1965   -6.3379    8.4851 N   0  0  0  0  0  0  0  0  0  0  0  0
  -10.8359   -7.6482    8.5432 C   0  0  1  0  0  0  0  0  0  0  0  0
  -11.4204   -8.5299    7.6977 N   0  0  0  0  0  0  0  0  0  0  0  0
   -9.9001   -8.0916    9.4262 N   0  0  0  0  0  0  0  0  0  0  0  0
   -9.2811   -7.2474   10.2955 C   0  0  2  0  0  0  0  0  0  0  0  0
   -9.6073   -5.9033   10.2814 C   0  0  1  0  0  0  0  0  0  0  0  0
  -10.6314   -5.4328    9.3143 C   0  0  0  0  0  0  0  0  0  0  0  0
  -10.9645   -4.2274    9.2672 O   0  0  0  0  0  0  0  0  0  0  0  0
   -8.8713   -5.2926   11.2263 N   0  0  0  0  0  0  0  0  0  0  0  0
   -8.0980   -6.2366   11.8120 C   0  0  0  0  0  0  0  0  0  0  0  0
   -8.3486   -7.4295   11.2423 N   0  0  1  0  0  0  0  0  0  0  0  0
  1  2  1  0  0  0  0
  3  1  1  1  0  0  0
  3  4  1  0  0  0  0
  3  5  1  0  0  0  0
  5  6  1  1  0  0  0
  5  7  1  0  0  0  0
  7  8  1  0  0  0  0
  8  4  1  1  0  0  0
  8 19  1  0  0  0  0
  9 15  1  0  0  0  0
  9 10  1  0  0  0  0
 10 11  1  6  0  0  0
 10 12  1  0  0  0  0
 13 12  1  6  0  0  0
 13 14  1  0  0  0  0
 13 19  1  0  0  0  0
 14 15  1  1  0  0  0
 14 17  1  0  0  0  0
 15 16  2  0  0  0  0
 17 18  1  0  0  0  0
 19 18  1  1  0  0  0
M  END
>  <CHROM.1>
179.49318623,-153.33453099,-8.08182195,-7.51535633,10.95131871,-0.01884493
-0.67313146,0.50687694

>  <Name>
ligand

>  <RI>
0

>  <Rbt.Current_Directory>
/home/itssahil/PROJECTS/Mol_Feturizer/New_Systems/rnas/3SKI

>  <Rbt.Executable>
rbdock ($Id: //depot/dev/client3/rdock/2013.1/src/exe/rbdock.cxx#4 $)

>  <Rbt.Library>
libRbt.so (2013.1, Build901 2013/11/27)

>  <Rbt.Parameter_File>
/export/apps/rDock/src/rDock_2013.1_src/data/scripts/dock_solv.prm

>  <Rbt.Receptor>
prm/pocket_docking_6.prm

>  <SCORE>
-14.7596

>  <SCORE.INTER>
-11.7742

>  <SCORE.INTER.CONST>
1

>  <SCORE.INTER.POLAR>
0

>  <SCORE.INTER.ROT>
2

>  <SCORE.INTER.SOLV>
10.0967

>  <SCORE.INTER.VDW>
-16.1484

>  <SCORE.INTER.norm>
-0.619697

>  <SCORE.INTRA>
-2.98532

>  <SCORE.INTRA.DIHEDRAL>
-5.04656

>  <SCORE.INTRA.DIHEDRAL.0>
6.26853

>  <SCORE.INTRA.POLAR>
0

>  <SCORE.INTRA.POLAR.0>
0

>  <SCORE.INTRA.REPUL>
0

>  <SCORE.INTRA.REPUL.0>
0

>  <SCORE.INTRA.SOLV>
-0.0111767

>  <SCORE.INTRA.SOLV.lig_0>
-38.4926

>  <SCORE.INTRA.VDW>
-0.456459

>  <SCORE.INTRA.VDW.0>
-0.59057

>  <SCORE.INTRA.norm>
-0.157122

>  <SCORE.RESTR>
0

>  <SCORE.RESTR.CAVITY>
0

>  <SCORE.RESTR.norm>
0

>  <SCORE.SYSTEM>
0

>  <SCORE.SYSTEM.CONST>
0

>  <SCORE.SYSTEM.DIHEDRAL>
0

>  <SCORE.SYSTEM.SOLV>
0

>  <SCORE.SYSTEM.norm>
0

>  <SCORE.heavy>
19

>  <SCORE.norm>
-0.77682

>  <RMSD>
6.174

$$$$
ligand
 OpenBabel11021811483D
libRbt.so/2013.1/901 2013/11/27
 19 21  0  0  0  0  0  0  0  0999 V2000
   -5.2045   -7.7628   13.9667 C   0  0  0  0  0  0  0  0  0  0  0  0
   -3.7945   -7.9885   14.1119 O   0  0  0  0  0  0  0  0  0  0  0  0
   -5.8321   -8.8534   13.0958 C   0  0  1  0  0  0  0  0  0  0  0  0
   -7.2583   -8.6737   13.0033 O   0  0  0  0  0  0  0  0  0  0  0  0
   -5.2823   -8.8064   11.6810 C   0  0  1  0  0  0  0  0  0  0  0  0
   -4.3375   -9.8606   11.4581 O   0  0  0  0  0  0  0  0  0  0  0  0
   -6.4792   -8.9657   10.7689 C   0  0  0  0  0  0  0  0  0  0  0  0
   -7.7025   -8.7177   11.6393 C   0  0  2  0  0  0  0  0  0  0  0  0
  -11.1656   -6.3424    8.4837 N   0  0  0  0  0  0  0  0  0  0  0  0
  -10.7833   -7.6470    8.5311 C   0  0  1  0  0  0  0  0  0  0  0  0
  -11.3355   -8.5268    7.6623 N   0  0  0  0  0  0  0  0  0  0  0  0
   -9.8574   -8.0864    9.4266 N   0  0  0  0  0  0  0  0  0  0  0  0
   -9.2705   -7.2438   10.3194 C   0  0  2  0  0  0  0  0  0  0  0  0
   -9.6199   -5.9055   10.3170 C   0  0  1  0  0  0  0  0  0  0  0  0
  -10.6328   -5.4393    9.3361 C   0  0  0  0  0  0  0  0  0  0  0  0
  -10.9860   -4.2393    9.2988 O   0  0  0  0  0  0  0  0  0  0  0  0
   -8.9135   -5.2953   11.2845 N   0  0  0  0  0  0  0  0  0  0  0  0
   -8.1354   -6.2339   11.8726 C   0  0  0  0  0  0  0  0  0  0  0  0
   -8.3538   -7.4229   11.2819 N   0  0  1  0  0  0  0  0  0  0  0  0
  1  2  1  0  0  0  0
  3  1  1  1  0  0  0
  3  4  1  0  0  0  0
  3  5  1  0  0  0  0
  5  6  1  1  0  0  0
  5  7  1  0  0  0  0
  7  8  1  0  0  0  0
  8  4  1  1  0  0  0
  8 19  1  0  0  0  0
  9 15  1  0  0  0  0
  9 10  1  0  0  0  0
 10 11  1  6  0  0  0
 10 12  1  0  0  0  0
 13 12  1  6  0  0  0
 13 14  1  0  0  0  0
 13 19  1  0  0  0  0
 14 15  1  1  0  0  0
 14 17  1  0  0  0  0
 15 16  2  0  0  0  0
 17 18  1  0  0  0  0
 19 18  1  1  0  0  0
M  END
>  <CHROM.1>
176.97134100,-155.15291914,-8.06976881,-7.50353192,10.97380942,0.00758754
-0.67408411,0.54060769

>  <Name>
ligand

>  <RI>
0

>  <Rbt.Current_Directory>
/home/itssahil/PROJECTS/Mol_Feturizer/New_Systems/rnas/3SKI

>  <Rbt.Executable>
rbdock ($Id: //depot/dev/client3/rdock/2013.1/src/exe/rbdock.cxx#4 $)

>  <Rbt.Library>
libRbt.so (2013.1, Build901 2013/11/27)

>  <Rbt.Parameter_File>
/export/apps/rDock/src/rDock_2013.1_src/data/scripts/dock_solv.prm

>  <Rbt.Receptor>
prm/pocket_docking_6.prm

>  <SCORE>
-14.7179

>  <SCORE.INTER>
-11.7301

>  <SCORE.INTER.CONST>
1

>  <SCORE.INTER.POLAR>
0

>  <SCORE.INTER.ROT>
2

>  <SCORE.INTER.SOLV>
10.0112

>  <SCORE.INTER.VDW>
-16.0905

>  <SCORE.INTER.norm>
-0.617375

>  <SCORE.INTRA>
-2.98777

>  <SCORE.INTRA.DIHEDRAL>
-5.01571

>  <SCORE.INTRA.DIHEDRAL.0>
6.26853

>  <SCORE.INTRA.POLAR>
0

>  <SCORE.INTRA.POLAR.0>
0

>  <SCORE.INTRA.REPUL>
0

>  <SCORE.INTRA.REPUL.0>
0

>  <SCORE.INTRA.SOLV>
-0.0240468

>  <SCORE.INTRA.SOLV.lig_0>
-38.4926

>  <SCORE.INTRA.VDW>
-0.467895

>  <SCORE.INTRA.VDW.0>
-0.59057

>  <SCORE.INTRA.norm>
-0.157251

>  <SCORE.RESTR>
0

>  <SCORE.RESTR.CAVITY>
0

>  <SCORE.RESTR.norm>
0

>  <SCORE.SYSTEM>
0

>  <SCORE.SYSTEM.CONST>
0

>  <SCORE.SYSTEM.DIHEDRAL>
0

>  <SCORE.SYSTEM.SOLV>
0

>  <SCORE.SYSTEM.norm>
0

>  <SCORE.heavy>
19

>  <SCORE.norm>
-0.774626

>  <RMSD>
6.175

$$$$
ligand
 OpenBabel11021811483D
libRbt.so/2013.1/901 2013/11/27
 19 21  0  0  0  0  0  0  0  0999 V2000
  -10.7561   -6.0696    8.3873 C   0  0  0  0  0  0  0  0  0  0  0  0
   -9.9590   -4.8768    8.3415 O   0  0  0  0  0  0  0  0  0  0  0  0
  -10.1474   -7.1523    7.4934 C   0  0  1  0  0  0  0  0  0  0  0  0
   -8.7886   -7.4299    7.8827 O   0  0  0  0  0  0  0  0  0  0  0  0
  -10.9208   -8.4540    7.6085 C   0  0  1  0  0  0  0  0  0  0  0  0
  -11.7509   -8.6657    6.4596 O   0  0  0  0  0  0  0  0  0  0  0  0
   -9.8773   -9.5446    7.7165 C   0  0  0  0  0  0  0  0  0  0  0  0
   -8.5695   -8.8390    8.0441 C   0  0  2  0  0  0  0  0  0  0  0  0
   -6.6247   -6.7994   12.4770 N   0  0  0  0  0  0  0  0  0  0  0  0
   -6.8953   -6.1978   11.2875 C   0  0  1  0  0  0  0  0  0  0  0  0
   -6.6508   -4.8730   11.1491 N   0  0  0  0  0  0  0  0  0  0  0  0
   -7.4008   -6.8958   10.2342 N   0  0  0  0  0  0  0  0  0  0  0  0
   -7.6623   -8.2284   10.3195 C   0  0  2  0  0  0  0  0  0  0  0  0
   -7.4061   -8.8935   11.5049 C   0  0  1  0  0  0  0  0  0  0  0  0
   -6.8564   -8.1198   12.6472 C   0  0  0  0  0  0  0  0  0  0  0  0
   -6.6135   -8.6756   13.7418 O   0  0  0  0  0  0  0  0  0  0  0  0
   -7.7507  -10.1819   11.3352 N   0  0  0  0  0  0  0  0  0  0  0  0
   -8.2060  -10.3169   10.0677 C   0  0  0  0  0  0  0  0  0  0  0  0
   -8.1508   -9.1237    9.4484 N   0  0  1  0  0  0  0  0  0  0  0  0
  1  2  1  0  0  0  0
  3  1  1  1  0  0  0
  3  4  1  0  0  0  0
  3  5  1  0  0  0  0
  5  6  1  6  0  0  0
  5  7  1  0  0  0  0
  7  8  1  0  0  0  0
  8  4  1  1  0  0  0
  8 19  1  0  0  0  0
  9 15  1  0  0  0  0
  9 10  1  0  0  0  0
 10 11  1  6  0  0  0
 10 12  1  0  0  0  0
 13 12  1  6  0  0  0
 13 14  1  0  0  0  0
 13 19  1  0  0  0  0
 14 15  1  1  0  0  0
 14 17  1  0  0  0  0
 15 16  2  0  0  0  0
 17 18  1  0  0  0  0
 19 18  1  1  0  0  0
M  END
>  <CHROM.1>
56.93668629,-18.59181734,-8.52269111,-7.82413556,9.74716390,-3.09653946,0.91739567
3.08326030

>  <Name>
ligand

>  <RI>
0

>  <Rbt.Current_Directory>
/home/itssahil/PROJECTS/Mol_Feturizer/New_Systems/rnas/3SKI

>  <Rbt.Executable>
rbdock ($Id: //depot/dev/client3/rdock/2013.1/src/exe/rbdock.cxx#4 $)

>  <Rbt.Library>
libRbt.so (2013.1, Build901 2013/11/27)

>  <Rbt.Parameter_File>
/export/apps/rDock/src/rDock_2013.1_src/data/scripts/dock_solv.prm

>  <Rbt.Receptor>
prm/pocket_docking_5.prm

>  <SCORE>
-16.5327

>  <SCORE.INTER>
-13.5203

>  <SCORE.INTER.CONST>
1

>  <SCORE.INTER.POLAR>
0

>  <SCORE.INTER.ROT>
2

>  <SCORE.INTER.SOLV>
10.5749

>  <SCORE.INTER.VDW>
-17.4718

>  <SCORE.INTER.norm>
-0.711594

>  <SCORE.INTRA>
-3.01242

>  <SCORE.INTRA.DIHEDRAL>
-5.01728

>  <SCORE.INTRA.DIHEDRAL.0>
6.26853

>  <SCORE.INTRA.POLAR>
0

>  <SCORE.INTRA.POLAR.0>
0

>  <SCORE.INTRA.REPUL>
0

>  <SCORE.INTRA.REPUL.0>
0

>  <SCORE.INTRA.SOLV>
-0.142703

>  <SCORE.INTRA.SOLV.lig_0>
-38.4926

>  <SCORE.INTRA.VDW>
-0.432432

>  <SCORE.INTRA.VDW.0>
-0.59057

>  <SCORE.INTRA.norm>
-0.158549

>  <SCORE.RESTR>
0

>  <SCORE.RESTR.CAVITY>
0

>  <SCORE.RESTR.norm>
0

>  <SCORE.SYSTEM>
0

>  <SCORE.SYSTEM.CONST>
0

>  <SCORE.SYSTEM.DIHEDRAL>
0

>  <SCORE.SYSTEM.SOLV>
0

>  <SCORE.SYSTEM.norm>
0

>  <SCORE.heavy>
19

>  <SCORE.norm>
-0.870142

>  <RMSD>
6.177

$$$$
ligand
 OpenBabel11021811483D
libRbt.so/2013.1/901 2013/11/27
 19 21  0  0  0  0  0  0  0  0999 V2000
   -5.2181   -7.6705   14.0728 C   0  0  0  0  0  0  0  0  0  0  0  0
   -3.8051   -7.8956   14.1865 O   0  0  0  0  0  0  0  0  0  0  0  0
   -5.8714   -8.7855   13.2531 C   0  0  1  0  0  0  0  0  0  0  0  0
   -7.2940   -8.5806   13.1571 O   0  0  0  0  0  0  0  0  0  0  0  0
   -5.3265   -8.8125   11.8360 C   0  0  1  0  0  0  0  0  0  0  0  0
   -4.4044   -9.8948   11.6571 O   0  0  0  0  0  0  0  0  0  0  0  0
   -6.5300   -8.9875   10.9355 C   0  0  0  0  0  0  0  0  0  0  0  0
   -7.7445   -8.6759   11.7978 C   0  0  2  0  0  0  0  0  0  0  0  0
  -11.1591   -6.3697    8.5398 N   0  0  0  0  0  0  0  0  0  0  0  0
  -10.8019   -7.6782    8.6427 C   0  0  1  0  0  0  0  0  0  0  0  0
  -11.3703   -8.5831    7.8108 N   0  0  0  0  0  0  0  0  0  0  0  0
   -9.8853   -8.0972    9.5572 N   0  0  0  0  0  0  0  0  0  0  0  0
   -9.2830   -7.2292   10.4147 C   0  0  2  0  0  0  0  0  0  0  0  0
   -9.6066   -5.8857   10.3555 C   0  0  1  0  0  0  0  0  0  0  0  0
  -10.6097   -5.4418    9.3543 C   0  0  0  0  0  0  0  0  0  0  0  0
  -10.9398   -4.2380    9.2660 O   0  0  0  0  0  0  0  0  0  0  0  0
   -8.8894   -5.2490   11.2976 N   0  0  0  0  0  0  0  0  0  0  0  0
   -8.1299   -6.1766   11.9259 C   0  0  0  0  0  0  0  0  0  0  0  0
   -8.3706   -7.3851   11.3853 N   0  0  1  0  0  0  0  0  0  0  0  0
  1  2  1  0  0  0  0
  3  1  1  1  0  0  0
  3  4  1  0  0  0  0
  3  5  1  0  0  0  0
  5  6  1  1  0  0  0
  5  7  1  0  0  0  0
  7  8  1  0  0  0  0
  8  4  1  1  0  0  0
  8 19  1  0  0  0  0
  9 15  1  0  0  0  0
  9 10  1  0  0  0  0
 10 11  1  6  0  0  0
 10 12  1  0  0  0  0
 13 12  1  6  0  0  0
 13 14  1  0  0  0  0
 13 19  1  0  0  0  0
 14 15  1  1  0  0  0
 14 17  1  0  0  0  0
 15 16  2  0  0  0  0
 17 18  1  0  0  0  0
 19 18  1  1  0  0  0
M  END
>  <CHROM.1>
178.85219552,-155.46260348,-8.08571300,-7.48306510,11.07490317,-0.01618977
-0.68159374,0.48237439

>  <Name>
ligand

>  <RI>
0

>  <Rbt.Current_Directory>
/home/itssahil/PROJECTS/Mol_Feturizer/New_Systems/rnas/3SKI

>  <Rbt.Executable>
rbdock ($Id: //depot/dev/client3/rdock/2013.1/src/exe/rbdock.cxx#4 $)

>  <Rbt.Library>
libRbt.so (2013.1, Build901 2013/11/27)

>  <Rbt.Parameter_File>
/export/apps/rDock/src/rDock_2013.1_src/data/scripts/dock_solv.prm

>  <Rbt.Receptor>
prm/pocket_docking_6.prm

>  <SCORE>
-14.5485

>  <SCORE.INTER>
-11.5679

>  <SCORE.INTER.CONST>
1

>  <SCORE.INTER.POLAR>
0

>  <SCORE.INTER.ROT>
2

>  <SCORE.INTER.SOLV>
10.3814

>  <SCORE.INTER.VDW>
-16.1057

>  <SCORE.INTER.norm>
-0.608838

>  <SCORE.INTRA>
-2.98057

>  <SCORE.INTRA.DIHEDRAL>
-5.04346

>  <SCORE.INTRA.DIHEDRAL.0>
6.26853

>  <SCORE.INTRA.POLAR>
0

>  <SCORE.INTRA.POLAR.0>
0

>  <SCORE.INTRA.REPUL>
0

>  <SCORE.INTRA.REPUL.0>
0

>  <SCORE.INTRA.SOLV>
-0.0147521

>  <SCORE.INTRA.SOLV.lig_0>
-38.4926

>  <SCORE.INTRA.VDW>
-0.451469

>  <SCORE.INTRA.VDW.0>
-0.59057

>  <SCORE.INTRA.norm>
-0.156872

>  <SCORE.RESTR>
0

>  <SCORE.RESTR.CAVITY>
0

>  <SCORE.RESTR.norm>
0

>  <SCORE.SYSTEM>
0

>  <SCORE.SYSTEM.CONST>
0

>  <SCORE.SYSTEM.DIHEDRAL>
0

>  <SCORE.SYSTEM.SOLV>
0

>  <SCORE.SYSTEM.norm>
0

>  <SCORE.heavy>
19

>  <SCORE.norm>
-0.76571

>  <RMSD>
6.180

$$$$
ligand
 OpenBabel11021811483D
libRbt.so/2013.1/901 2013/11/27
 19 21  0  0  0  0  0  0  0  0999 V2000
  -10.6261   -6.1270    7.8994 C   0  0  0  0  0  0  0  0  0  0  0  0
  -10.5723   -6.3618    9.3144 O   0  0  0  0  0  0  0  0  0  0  0  0
  -10.1137   -7.3503    7.1361 C   0  0  1  0  0  0  0  0  0  0  0  0
   -8.7765   -7.6873    7.5524 O   0  0  0  0  0  0  0  0  0  0  0  0
  -10.9850   -8.5650    7.4029 C   0  0  1  0  0  0  0  0  0  0  0  0
  -11.8416   -8.8420    6.2879 O   0  0  0  0  0  0  0  0  0  0  0  0
  -10.0287   -9.7146    7.6349 C   0  0  0  0  0  0  0  0  0  0  0  0
   -8.6663   -9.0811    7.8759 C   0  0  2  0  0  0  0  0  0  0  0  0
   -6.6827   -6.6533   12.0907 N   0  0  0  0  0  0  0  0  0  0  0  0
   -6.9386   -6.1673   10.8463 C   0  0  1  0  0  0  0  0  0  0  0  0
   -6.6650   -4.8684   10.5778 N   0  0  0  0  0  0  0  0  0  0  0  0
   -7.4579   -6.9555    9.8660 N   0  0  0  0  0  0  0  0  0  0  0  0
   -7.7488   -8.2670   10.0824 C   0  0  2  0  0  0  0  0  0  0  0  0
   -7.5087   -8.8163   11.3289 C   0  0  1  0  0  0  0  0  0  0  0  0
   -6.9436   -7.9449   12.3905 C   0  0  0  0  0  0  0  0  0  0  0  0
   -6.7143   -8.3941   13.5358 O   0  0  0  0  0  0  0  0  0  0  0  0
   -7.8812  -10.1074   11.2870 N   0  0  0  0  0  0  0  0  0  0  0  0
   -8.3378  -10.3580   10.0377 C   0  0  0  0  0  0  0  0  0  0  0  0
   -8.2556   -9.2337    9.3030 N   0  0  1  0  0  0  0  0  0  0  0  0
  1  2  1  0  0  0  0
  3  1  1  1  0  0  0
  3  4  1  0  0  0  0
  3  5  1  0  0  0  0
  5  6  1  6  0  0  0
  5  7  1  0  0  0  0
  7  8  1  0  0  0  0
  8  4  1  1  0  0  0
  8 19  1  0  0  0  0
  9 15  1  0  0  0  0
  9 10  1  0  0  0  0
 10 11  1  6  0  0  0
 10 12  1  0  0  0  0
 13 12  1  6  0  0  0
 13 14  1  0  0  0  0
 13 19  1  0  0  0  0
 14 15  1  1  0  0  0
 14 17  1  0  0  0  0
 15 16  2  0  0  0  0
 17 18  1  0  0  0  0
 19 18  1  1  0  0  0
M  END
>  <CHROM.1>
-56.70908481,-15.16327983,-8.61904904,-7.95181044,9.56241618,3.12695908,0.90893566
3.02812315

>  <Name>
ligand

>  <RI>
0

>  <Rbt.Current_Directory>
/home/itssahil/PROJECTS/Mol_Feturizer/New_Systems/rnas/3SKI

>  <Rbt.Executable>
rbdock ($Id: //depot/dev/client3/rdock/2013.1/src/exe/rbdock.cxx#4 $)

>  <Rbt.Library>
libRbt.so (2013.1, Build901 2013/11/27)

>  <Rbt.Parameter_File>
/export/apps/rDock/src/rDock_2013.1_src/data/scripts/dock_solv.prm

>  <Rbt.Receptor>
prm/pocket_docking_6.prm

>  <SCORE>
-17.8402

>  <SCORE.INTER>
-14.7192

>  <SCORE.INTER.CONST>
1

>  <SCORE.INTER.POLAR>
0

>  <SCORE.INTER.ROT>
2

>  <SCORE.INTER.SOLV>
9.51463

>  <SCORE.INTER.VDW>
-17.9177

>  <SCORE.INTER.norm>
-0.774693

>  <SCORE.INTRA>
-3.12099

>  <SCORE.INTRA.DIHEDRAL>
-5.01189

>  <SCORE.INTRA.DIHEDRAL.0>
6.26853

>  <SCORE.INTRA.POLAR>
0

>  <SCORE.INTRA.POLAR.0>
0

>  <SCORE.INTRA.REPUL>
0

>  <SCORE.INTRA.REPUL.0>
0

>  <SCORE.INTRA.SOLV>
0.383585

>  <SCORE.INTRA.SOLV.lig_0>
-38.4926

>  <SCORE.INTRA.VDW>
-0.806835

>  <SCORE.INTRA.VDW.0>
-0.59057

>  <SCORE.INTRA.norm>
-0.164263

>  <SCORE.RESTR>
0

>  <SCORE.RESTR.CAVITY>
0

>  <SCORE.RESTR.norm>
0

>  <SCORE.SYSTEM>
0

>  <SCORE.SYSTEM.CONST>
0

>  <SCORE.SYSTEM.DIHEDRAL>
0

>  <SCORE.SYSTEM.SOLV>
0

>  <SCORE.SYSTEM.norm>
0

>  <SCORE.heavy>
19

>  <SCORE.norm>
-0.938956

>  <RMSD>
6.188

$$$$
ligand
 OpenBabel11021811483D
libRbt.so/2013.1/901 2013/11/27
 19 21  0  0  0  0  0  0  0  0999 V2000
  -10.6156   -6.1223    7.8619 C   0  0  0  0  0  0  0  0  0  0  0  0
  -10.5911   -6.3426    9.2800 O   0  0  0  0  0  0  0  0  0  0  0  0
  -10.1304   -7.3698    7.1201 C   0  0  1  0  0  0  0  0  0  0  0  0
   -8.7986   -7.7254    7.5383 O   0  0  0  0  0  0  0  0  0  0  0  0
  -11.0247   -8.5616    7.4127 C   0  0  1  0  0  0  0  0  0  0  0  0
  -11.8907   -8.8424    6.3060 O   0  0  0  0  0  0  0  0  0  0  0  0
  -10.0905   -9.7254    7.6632 C   0  0  0  0  0  0  0  0  0  0  0  0
   -8.7149   -9.1149    7.8877 C   0  0  2  0  0  0  0  0  0  0  0  0
   -6.7109   -6.6360   12.0629 N   0  0  0  0  0  0  0  0  0  0  0  0
   -6.9668   -6.1668   10.8120 C   0  0  1  0  0  0  0  0  0  0  0  0
   -6.6873   -4.8734   10.5241 N   0  0  0  0  0  0  0  0  0  0  0  0
   -7.4921   -6.9666    9.8443 N   0  0  0  0  0  0  0  0  0  0  0  0
   -7.7889   -8.2733   10.0804 C   0  0  2  0  0  0  0  0  0  0  0  0
   -7.5490   -8.8057   11.3343 C   0  0  1  0  0  0  0  0  0  0  0  0
   -6.9775   -7.9218   12.3819 C   0  0  0  0  0  0  0  0  0  0  0  0
   -6.7481   -8.3555   13.5331 O   0  0  0  0  0  0  0  0  0  0  0  0
   -7.9281  -10.0953   11.3119 N   0  0  0  0  0  0  0  0  0  0  0  0
   -8.3884  -10.3618   10.0672 C   0  0  0  0  0  0  0  0  0  0  0  0
   -8.3022   -9.2488    9.3161 N   0  0  1  0  0  0  0  0  0  0  0  0
  1  2  1  0  0  0  0
  3  1  1  1  0  0  0
  3  4  1  0  0  0  0
  3  5  1  0  0  0  0
  5  6  1  6  0  0  0
  5  7  1  0  0  0  0
  7  8  1  0  0  0  0
  8  4  1  1  0  0  0
  8 19  1  0  0  0  0
  9 15  1  0  0  0  0
  9 10  1  0  0  0  0
 10 11  1  6  0  0  0
 10 12  1  0  0  0  0
 13 12  1  6  0  0  0
 13 14  1  0  0  0  0
 13 19  1  0  0  0  0
 14 15  1  1  0  0  0
 14 17  1  0  0  0  0
 15 16  2  0  0  0  0
 17 18  1  0  0  0  0
 19 18  1  1  0  0  0
M  END
>  <CHROM.1>
-58.06616665,-14.26858697,-8.65305858,-7.95242594,9.55621700,-3.14014954
0.90794736,3.00401184

>  <Name>
ligand

>  <RI>
0

>  <Rbt.Current_Directory>
/home/itssahil/PROJECTS/Mol_Feturizer/New_Systems/rnas/3SKI

>  <Rbt.Executable>
rbdock ($Id: //depot/dev/client3/rdock/2013.1/src/exe/rbdock.cxx#4 $)

>  <Rbt.Library>
libRbt.so (2013.1, Build901 2013/11/27)

>  <Rbt.Parameter_File>
/export/apps/rDock/src/rDock_2013.1_src/data/scripts/dock_solv.prm

>  <Rbt.Receptor>
prm/pocket_docking_6.prm

>  <SCORE>
-17.81

>  <SCORE.INTER>
-14.6713

>  <SCORE.INTER.CONST>
1

>  <SCORE.INTER.POLAR>
0

>  <SCORE.INTER.ROT>
2

>  <SCORE.INTER.SOLV>
9.36707

>  <SCORE.INTER.VDW>
-17.8365

>  <SCORE.INTER.norm>
-0.772172

>  <SCORE.INTRA>
-3.1387

>  <SCORE.INTRA.DIHEDRAL>
-5.03853

>  <SCORE.INTRA.DIHEDRAL.0>
6.26853

>  <SCORE.INTRA.POLAR>
0

>  <SCORE.INTRA.POLAR.0>
0

>  <SCORE.INTRA.REPUL>
0

>  <SCORE.INTRA.REPUL.0>
0

>  <SCORE.INTRA.SOLV>
0.387393

>  <SCORE.INTRA.SOLV.lig_0>
-38.4926

>  <SCORE.INTRA.VDW>
-0.813133

>  <SCORE.INTRA.VDW.0>
-0.59057

>  <SCORE.INTRA.norm>
-0.165195

>  <SCORE.RESTR>
0

>  <SCORE.RESTR.CAVITY>
0

>  <SCORE.RESTR.norm>
0

>  <SCORE.SYSTEM>
0

>  <SCORE.SYSTEM.CONST>
0

>  <SCORE.SYSTEM.DIHEDRAL>
0

>  <SCORE.SYSTEM.SOLV>
0

>  <SCORE.SYSTEM.norm>
0

>  <SCORE.heavy>
19

>  <SCORE.norm>
-0.937367

>  <RMSD>
6.202

$$$$
ligand
 OpenBabel11021811483D
libRbt.so/2013.1/901 2013/11/27
 19 21  0  0  0  0  0  0  0  0999 V2000
  -10.9840   -6.3015    7.8916 C   0  0  0  0  0  0  0  0  0  0  0  0
  -10.1996   -5.1087    7.7423 O   0  0  0  0  0  0  0  0  0  0  0  0
  -10.3550   -7.4549    7.1068 C   0  0  1  0  0  0  0  0  0  0  0  0
   -8.9858   -7.6562    7.5064 O   0  0  0  0  0  0  0  0  0  0  0  0
  -11.0926   -8.7570    7.3645 C   0  0  1  0  0  0  0  0  0  0  0  0
  -11.9272   -9.1072    6.2535 O   0  0  0  0  0  0  0  0  0  0  0  0
  -10.0196   -9.8037    7.5719 C   0  0  0  0  0  0  0  0  0  0  0  0
   -8.7280   -9.0351    7.8095 C   0  0  2  0  0  0  0  0  0  0  0  0
   -6.7043   -6.5220   11.9547 N   0  0  0  0  0  0  0  0  0  0  0  0
   -6.9903   -6.0565   10.7090 C   0  0  1  0  0  0  0  0  0  0  0  0
   -6.7413   -4.7575   10.4185 N   0  0  0  0  0  0  0  0  0  0  0  0
   -7.5156   -6.8654    9.7489 N   0  0  0  0  0  0  0  0  0  0  0  0
   -7.7825   -8.1780    9.9878 C   0  0  2  0  0  0  0  0  0  0  0  0
   -7.5113   -8.7071   11.2367 C   0  0  1  0  0  0  0  0  0  0  0  0
   -6.9401   -7.8133   12.2761 C   0  0  0  0  0  0  0  0  0  0  0  0
   -6.6831   -8.2437   13.4227 O   0  0  0  0  0  0  0  0  0  0  0  0
   -7.8651  -10.0039   11.2186 N   0  0  0  0  0  0  0  0  0  0  0  0
   -8.3407  -10.2779    9.9813 C   0  0  0  0  0  0  0  0  0  0  0  0
   -8.2890   -9.1625    9.2306 N   0  0  1  0  0  0  0  0  0  0  0  0
  1  2  1  0  0  0  0
  3  1  1  1  0  0  0
  3  4  1  0  0  0  0
  3  5  1  0  0  0  0
  5  6  1  6  0  0  0
  5  7  1  0  0  0  0
  7  8  1  0  0  0  0
  8  4  1  1  0  0  0
  8 19  1  0  0  0  0
  9 15  1  0  0  0  0
  9 10  1  0  0  0  0
 10 11  1  6  0  0  0
 10 12  1  0  0  0  0
 13 12  1  6  0  0  0
 13 14  1  0  0  0  0
 13 19  1  0  0  0  0
 14 15  1  1  0  0  0
 14 17  1  0  0  0  0
 15 16  2  0  0  0  0
 17 18  1  0  0  0  0
 19 18  1  1  0  0  0
M  END
>  <CHROM.1>
55.41661818,-20.52227833,-8.66486147,-7.85570491,9.39134931,-3.11841068,0.89768049
2.98384517

>  <Name>
ligand

>  <RI>
0

>  <Rbt.Current_Directory>
/home/itssahil/PROJECTS/Mol_Feturizer/New_Systems/rnas/3SKI

>  <Rbt.Executable>
rbdock ($Id: //depot/dev/client3/rdock/2013.1/src/exe/rbdock.cxx#4 $)

>  <Rbt.Library>
libRbt.so (2013.1, Build901 2013/11/27)

>  <Rbt.Parameter_File>
/export/apps/rDock/src/rDock_2013.1_src/data/scripts/dock_solv.prm

>  <Rbt.Receptor>
prm/pocket_docking_7.prm

>  <SCORE>
-16.904

>  <SCORE.INTER>
-13.9524

>  <SCORE.INTER.CONST>
1

>  <SCORE.INTER.POLAR>
0

>  <SCORE.INTER.ROT>
2

>  <SCORE.INTER.SOLV>
9.77691

>  <SCORE.INTER.VDW>
-17.4939

>  <SCORE.INTER.norm>
-0.734339

>  <SCORE.INTRA>
-2.9515

>  <SCORE.INTRA.DIHEDRAL>
-4.97513

>  <SCORE.INTRA.DIHEDRAL.0>
6.26853

>  <SCORE.INTRA.POLAR>
0

>  <SCORE.INTRA.POLAR.0>
0

>  <SCORE.INTRA.REPUL>
0

>  <SCORE.INTRA.REPUL.0>
0

>  <SCORE.INTRA.SOLV>
-0.14056

>  <SCORE.INTRA.SOLV.lig_0>
-38.4926

>  <SCORE.INTRA.VDW>
-0.393658

>  <SCORE.INTRA.VDW.0>
-0.59057

>  <SCORE.INTRA.norm>
-0.155342

>  <SCORE.RESTR>
0

>  <SCORE.RESTR.CAVITY>
0

>  <SCORE.RESTR.norm>
0

>  <SCORE.SYSTEM>
0

>  <SCORE.SYSTEM.CONST>
0

>  <SCORE.SYSTEM.DIHEDRAL>
0

>  <SCORE.SYSTEM.SOLV>
0

>  <SCORE.SYSTEM.norm>
0

>  <SCORE.heavy>
19

>  <SCORE.norm>
-0.889682

>  <RMSD>
6.204

$$$$
ligand
 OpenBabel11021811483D
libRbt.so/2013.1/901 2013/11/27
 19 21  0  0  0  0  0  0  0  0999 V2000
  -10.8424   -6.2089    8.0309 C   0  0  0  0  0  0  0  0  0  0  0  0
  -10.0115   -5.0399    7.9748 O   0  0  0  0  0  0  0  0  0  0  0  0
  -10.2209   -7.3445    7.2148 C   0  0  1  0  0  0  0  0  0  0  0  0
   -8.8640   -7.5885    7.6325 O   0  0  0  0  0  0  0  0  0  0  0  0
  -10.9888   -8.6401    7.4088 C   0  0  1  0  0  0  0  0  0  0  0  0
  -11.8081   -8.9311    6.2696 O   0  0  0  0  0  0  0  0  0  0  0  0
   -9.9409   -9.7155    7.5965 C   0  0  0  0  0  0  0  0  0  0  0  0
   -8.6394   -8.9828    7.8877 C   0  0  2  0  0  0  0  0  0  0  0  0
   -6.6690   -6.6642   12.1696 N   0  0  0  0  0  0  0  0  0  0  0  0
   -6.9235   -6.1457   10.9381 C   0  0  1  0  0  0  0  0  0  0  0  0
   -6.6522   -4.8396   10.7049 N   0  0  0  0  0  0  0  0  0  0  0  0
   -7.4393   -6.9085    9.9361 N   0  0  0  0  0  0  0  0  0  0  0  0
   -7.7277   -8.2260   10.1169 C   0  0  2  0  0  0  0  0  0  0  0  0
   -7.4888   -8.8079   11.3488 C   0  0  1  0  0  0  0  0  0  0  0  0
   -6.9276   -7.9639   12.4343 C   0  0  0  0  0  0  0  0  0  0  0  0
   -6.6995   -8.4431   13.5676 O   0  0  0  0  0  0  0  0  0  0  0  0
   -7.8585  -10.0981   11.2717 N   0  0  0  0  0  0  0  0  0  0  0  0
   -8.3122  -10.3162   10.0152 C   0  0  0  0  0  0  0  0  0  0  0  0
   -8.2311   -9.1726    9.3110 N   0  0  1  0  0  0  0  0  0  0  0  0
  1  2  1  0  0  0  0
  3  1  1  1  0  0  0
  3  4  1  0  0  0  0
  3  5  1  0  0  0  0
  5  6  1  6  0  0  0
  5  7  1  0  0  0  0
  7  8  1  0  0  0  0
  8  4  1  1  0  0  0
  8 19  1  0  0  0  0
  9 15  1  0  0  0  0
  9 10  1  0  0  0  0
 10 11  1  6  0  0  0
 10 12  1  0  0  0  0
 13 12  1  6  0  0  0
 13 14  1  0  0  0  0
 13 19  1  0  0  0  0
 14 15  1  1  0  0  0
 14 17  1  0  0  0  0
 15 16  2  0  0  0  0
 17 18  1  0  0  0  0
 19 18  1  1  0  0  0
M  END
>  <CHROM.1>
53.68648053,-20.10613087,-8.58875479,-7.86467740,9.51801459,-3.08879585,0.91660569
2.99926373

>  <Name>
ligand

>  <RI>
0

>  <Rbt.Current_Directory>
/home/itssahil/PROJECTS/Mol_Feturizer/New_Systems/rnas/3SKI

>  <Rbt.Executable>
rbdock ($Id: //depot/dev/client3/rdock/2013.1/src/exe/rbdock.cxx#4 $)

>  <Rbt.Library>
libRbt.so (2013.1, Build901 2013/11/27)

>  <Rbt.Parameter_File>
/export/apps/rDock/src/rDock_2013.1_src/data/scripts/dock_solv.prm

>  <Rbt.Receptor>
prm/pocket_docking_6.prm

>  <SCORE>
-16.8474

>  <SCORE.INTER>
-13.9256

>  <SCORE.INTER.CONST>
1

>  <SCORE.INTER.POLAR>
0

>  <SCORE.INTER.ROT>
2

>  <SCORE.INTER.SOLV>
10.0912

>  <SCORE.INTER.VDW>
-17.5808

>  <SCORE.INTER.norm>
-0.732924

>  <SCORE.INTRA>
-2.92181

>  <SCORE.INTRA.DIHEDRAL>
-4.9087

>  <SCORE.INTRA.DIHEDRAL.0>
6.26853

>  <SCORE.INTRA.POLAR>
0

>  <SCORE.INTRA.POLAR.0>
0

>  <SCORE.INTRA.REPUL>
0

>  <SCORE.INTRA.REPUL.0>
0

>  <SCORE.INTRA.SOLV>
-0.127526

>  <SCORE.INTRA.SOLV.lig_0>
-38.4926

>  <SCORE.INTRA.VDW>
-0.403693

>  <SCORE.INTRA.VDW.0>
-0.59057

>  <SCORE.INTRA.norm>
-0.153779

>  <SCORE.RESTR>
0

>  <SCORE.RESTR.CAVITY>
0

>  <SCORE.RESTR.norm>
0

>  <SCORE.SYSTEM>
0

>  <SCORE.SYSTEM.CONST>
0

>  <SCORE.SYSTEM.DIHEDRAL>
0

>  <SCORE.SYSTEM.SOLV>
0

>  <SCORE.SYSTEM.norm>
0

>  <SCORE.heavy>
19

>  <SCORE.norm>
-0.886704

>  <RMSD>
6.210

$$$$
ligand
 OpenBabel11021811483D
libRbt.so/2013.1/901 2013/11/27
 19 21  0  0  0  0  0  0  0  0999 V2000
  -11.0203   -6.3138    7.8931 C   0  0  0  0  0  0  0  0  0  0  0  0
  -10.2477   -5.1137    7.7421 O   0  0  0  0  0  0  0  0  0  0  0  0
  -10.3828   -7.4610    7.1061 C   0  0  1  0  0  0  0  0  0  0  0  0
   -9.0127   -7.6542    7.5070 O   0  0  0  0  0  0  0  0  0  0  0  0
  -11.1120   -8.7686    7.3594 C   0  0  1  0  0  0  0  0  0  0  0  0
  -11.9429   -9.1215    6.2465 O   0  0  0  0  0  0  0  0  0  0  0  0
  -10.0323   -9.8087    7.5655 C   0  0  0  0  0  0  0  0  0  0  0  0
   -8.7462   -9.0321    7.8069 C   0  0  2  0  0  0  0  0  0  0  0  0
   -6.7092   -6.5257   11.9495 N   0  0  0  0  0  0  0  0  0  0  0  0
   -6.9923   -6.0600   10.7032 C   0  0  1  0  0  0  0  0  0  0  0  0
   -6.7359   -4.7627   10.4112 N   0  0  0  0  0  0  0  0  0  0  0  0
   -7.5219   -6.8670    9.7439 N   0  0  0  0  0  0  0  0  0  0  0  0
   -7.7963   -8.1779    9.9843 C   0  0  2  0  0  0  0  0  0  0  0  0
   -7.5283   -8.7070   11.2339 C   0  0  1  0  0  0  0  0  0  0  0  0
   -6.9523   -7.8152   12.2724 C   0  0  0  0  0  0  0  0  0  0  0  0
   -6.6979   -8.2458   13.4195 O   0  0  0  0  0  0  0  0  0  0  0  0
   -7.8893  -10.0019   11.2172 N   0  0  0  0  0  0  0  0  0  0  0  0
   -8.3663  -10.2746    9.9801 C   0  0  0  0  0  0  0  0  0  0  0  0
   -8.3081   -9.1604    9.2282 N   0  0  1  0  0  0  0  0  0  0  0  0
  1  2  1  0  0  0  0
  3  1  1  1  0  0  0
  3  4  1  0  0  0  0
  3  5  1  0  0  0  0
  5  6  1  6  0  0  0
  5  7  1  0  0  0  0
  7  8  1  0  0  0  0
  8  4  1  1  0  0  0
  8 19  1  0  0  0  0
  9 15  1  0  0  0  0
  9 10  1  0  0  0  0
 10 11  1  6  0  0  0
 10 12  1  0  0  0  0
 13 12  1  6  0  0  0
 13 14  1  0  0  0  0
 13 19  1  0  0  0  0
 14 15  1  1  0  0  0
 14 17  1  0  0  0  0
 15 16  2  0  0  0  0
 17 18  1  0  0  0  0
 19 18  1  1  0  0  0
M  END
>  <CHROM.1>
55.72668240,-21.26005199,-8.68310011,-7.85898277,9.38815184,-3.11922627,0.89540994
2.98285754

>  <Name>
ligand

>  <RI>
0

>  <Rbt.Current_Directory>
/home/itssahil/PROJECTS/Mol_Feturizer/New_Systems/rnas/3SKI

>  <Rbt.Executable>
rbdock ($Id: //depot/dev/client3/rdock/2013.1/src/exe/rbdock.cxx#4 $)

>  <Rbt.Library>
libRbt.so (2013.1, Build901 2013/11/27)

>  <Rbt.Parameter_File>
/export/apps/rDock/src/rDock_2013.1_src/data/scripts/dock_solv.prm

>  <Rbt.Receptor>
prm/blind_docking_40.prm

>  <SCORE>
-16.8693

>  <SCORE.INTER>
-13.9426

>  <SCORE.INTER.CONST>
1

>  <SCORE.INTER.POLAR>
0

>  <SCORE.INTER.ROT>
2

>  <SCORE.INTER.SOLV>
9.74439

>  <SCORE.INTER.VDW>
-17.4765

>  <SCORE.INTER.norm>
-0.733819

>  <SCORE.INTRA>
-2.92677

>  <SCORE.INTRA.DIHEDRAL>
-4.98454

>  <SCORE.INTRA.DIHEDRAL.0>
6.26853

>  <SCORE.INTRA.POLAR>
0

>  <SCORE.INTRA.POLAR.0>
0

>  <SCORE.INTRA.REPUL>
0

>  <SCORE.INTRA.REPUL.0>
0

>  <SCORE.INTRA.SOLV>
-0.145666

>  <SCORE.INTRA.SOLV.lig_0>
-38.4926

>  <SCORE.INTRA.VDW>
-0.361666

>  <SCORE.INTRA.VDW.0>
-0.59057

>  <SCORE.INTRA.norm>
-0.15404

>  <SCORE.RESTR>
0

>  <SCORE.RESTR.CAVITY>
0

>  <SCORE.RESTR.norm>
0

>  <SCORE.SYSTEM>
0

>  <SCORE.SYSTEM.CONST>
0

>  <SCORE.SYSTEM.DIHEDRAL>
0

>  <SCORE.SYSTEM.SOLV>
0

>  <SCORE.SYSTEM.norm>
0

>  <SCORE.heavy>
19

>  <SCORE.norm>
-0.88786

>  <RMSD>
6.213

$$$$
ligand
 OpenBabel11021811483D
libRbt.so/2013.1/901 2013/11/27
 19 21  0  0  0  0  0  0  0  0999 V2000
   -6.6040   -5.3620   12.0538 C   0  0  0  0  0  0  0  0  0  0  0  0
   -6.7274   -5.5191   10.6324 O   0  0  0  0  0  0  0  0  0  0  0  0
   -6.7001   -6.7209   12.7508 C   0  0  1  0  0  0  0  0  0  0  0  0
   -7.9716   -7.3425   12.4822 O   0  0  0  0  0  0  0  0  0  0  0  0
   -5.6241   -7.6685   12.2507 C   0  0  1  0  0  0  0  0  0  0  0  0
   -4.5679   -7.8040   13.2097 O   0  0  0  0  0  0  0  0  0  0  0  0
   -6.3149   -8.9971   12.0320 C   0  0  0  0  0  0  0  0  0  0  0  0
   -7.8067   -8.6969   12.0373 C   0  0  2  0  0  0  0  0  0  0  0  0
  -10.6280   -6.3957    8.2507 N   0  0  0  0  0  0  0  0  0  0  0  0
  -10.2704   -5.9271    9.4766 C   0  0  1  0  0  0  0  0  0  0  0  0
  -10.6666   -4.6867    9.8485 N   0  0  0  0  0  0  0  0  0  0  0  0
   -9.5291   -6.6761   10.3377 N   0  0  0  0  0  0  0  0  0  0  0  0
   -9.1074   -7.9288   10.0145 C   0  0  2  0  0  0  0  0  0  0  0  0
   -9.4418   -8.4580    8.7811 C   0  0  1  0  0  0  0  0  0  0  0  0
  -10.2495   -7.6295    7.8500 C   0  0  0  0  0  0  0  0  0  0  0  0
  -10.5723   -8.0619    6.7209 O   0  0  0  0  0  0  0  0  0  0  0  0
   -8.9077   -9.6893    8.7044 N   0  0  0  0  0  0  0  0  0  0  0  0
   -8.2595   -9.9241    9.8693 C   0  0  0  0  0  0  0  0  0  0  0  0
   -8.3829   -8.8488   10.6686 N   0  0  1  0  0  0  0  0  0  0  0  0
  1  2  1  0  0  0  0
  3  1  1  6  0  0  0
  3  4  1  0  0  0  0
  3  5  1  0  0  0  0
  5  6  1  1  0  0  0
  5  7  1  0  0  0  0
  7  8  1  0  0  0  0
  8  4  1  6  0  0  0
  8 19  1  0  0  0  0
  9 15  1  0  0  0  0
  9 10  1  0  0  0  0
 10 11  1  1  0  0  0
 10 12  1  0  0  0  0
 13 12  1  1  0  0  0
 13 14  1  0  0  0  0
 13 19  1  0  0  0  0
 14 15  1  6  0  0  0
 14 17  1  0  0  0  0
 15 16  2  0  0  0  0
 17 18  1  0  0  0  0
 19 18  1  6  0  0  0
M  END
>  <CHROM.1>
-60.55301000,-8.49101768,-8.28144145,-7.46120159,10.45501206,0.19938414,-0.76633185
0.30368668

>  <Name>
ligand

>  <RI>
0

>  <Rbt.Current_Directory>
/home/itssahil/PROJECTS/Mol_Feturizer/New_Systems/rnas/3SKI

>  <Rbt.Executable>
rbdock ($Id: //depot/dev/client3/rdock/2013.1/src/exe/rbdock.cxx#4 $)

>  <Rbt.Library>
libRbt.so (2013.1, Build901 2013/11/27)

>  <Rbt.Parameter_File>
/export/apps/rDock/src/rDock_2013.1_src/data/scripts/dock_solv.prm

>  <Rbt.Receptor>
prm/pocket_docking_4.prm

>  <SCORE>
-13.0608

>  <SCORE.INTER>
-9.97212

>  <SCORE.INTER.CONST>
1

>  <SCORE.INTER.POLAR>
0

>  <SCORE.INTER.ROT>
2

>  <SCORE.INTER.SOLV>
12.6615

>  <SCORE.INTER.VDW>
-15.8019

>  <SCORE.INTER.norm>
-0.524848

>  <SCORE.INTRA>
-3.08868

>  <SCORE.INTRA.DIHEDRAL>
-5.05643

>  <SCORE.INTRA.DIHEDRAL.0>
6.26853

>  <SCORE.INTRA.POLAR>
0

>  <SCORE.INTRA.POLAR.0>
0

>  <SCORE.INTRA.REPUL>
0

>  <SCORE.INTRA.REPUL.0>
0

>  <SCORE.INTRA.SOLV>
0.727277

>  <SCORE.INTRA.SOLV.lig_0>
-38.4926

>  <SCORE.INTRA.VDW>
-0.924104

>  <SCORE.INTRA.VDW.0>
-0.59057

>  <SCORE.INTRA.norm>
-0.162562

>  <SCORE.RESTR>
0

>  <SCORE.RESTR.CAVITY>
0

>  <SCORE.RESTR.norm>
0

>  <SCORE.SYSTEM>
0

>  <SCORE.SYSTEM.CONST>
0

>  <SCORE.SYSTEM.DIHEDRAL>
0

>  <SCORE.SYSTEM.SOLV>
0

>  <SCORE.SYSTEM.norm>
0

>  <SCORE.heavy>
19

>  <SCORE.norm>
-0.68741

>  <RMSD>
6.213

$$$$
ligand
 OpenBabel11021811483D
libRbt.so/2013.1/901 2013/11/27
 19 21  0  0  0  0  0  0  0  0999 V2000
  -11.0399   -6.3397    7.9276 C   0  0  0  0  0  0  0  0  0  0  0  0
  -10.2901   -5.1260    7.7694 O   0  0  0  0  0  0  0  0  0  0  0  0
  -10.3934   -7.4738    7.1291 C   0  0  1  0  0  0  0  0  0  0  0  0
   -9.0209   -7.6582    7.5258 O   0  0  0  0  0  0  0  0  0  0  0  0
  -11.1102   -8.7903    7.3718 C   0  0  1  0  0  0  0  0  0  0  0  0
  -11.9399   -9.1405    6.2571 O   0  0  0  0  0  0  0  0  0  0  0  0
  -10.0207   -9.8223    7.5665 C   0  0  0  0  0  0  0  0  0  0  0  0
   -8.7413   -9.0363    7.8127 C   0  0  2  0  0  0  0  0  0  0  0  0
   -6.6800   -6.5593   11.9610 N   0  0  0  0  0  0  0  0  0  0  0  0
   -6.9647   -6.0863   10.7179 C   0  0  1  0  0  0  0  0  0  0  0  0
   -6.7032   -4.7888   10.4314 N   0  0  0  0  0  0  0  0  0  0  0  0
   -7.5010   -6.8862    9.7563 N   0  0  0  0  0  0  0  0  0  0  0  0
   -7.7808   -8.1970    9.9913 C   0  0  2  0  0  0  0  0  0  0  0  0
   -7.5114   -8.7333   11.2375 C   0  0  1  0  0  0  0  0  0  0  0  0
   -6.9280   -7.8492   12.2784 C   0  0  0  0  0  0  0  0  0  0  0  0
   -6.6721   -8.2865   13.4227 O   0  0  0  0  0  0  0  0  0  0  0  0
   -7.8785  -10.0264   11.2157 N   0  0  0  0  0  0  0  0  0  0  0  0
   -8.3605  -10.2910    9.9788 C   0  0  0  0  0  0  0  0  0  0  0  0
   -8.2995   -9.1734    9.2320 N   0  0  1  0  0  0  0  0  0  0  0  0
  1  2  1  0  0  0  0
  3  1  1  1  0  0  0
  3  4  1  0  0  0  0
  3  5  1  0  0  0  0
  5  6  1  6  0  0  0
  5  7  1  0  0  0  0
  7  8  1  0  0  0  0
  8  4  1  1  0  0  0
  8 19  1  0  0  0  0
  9 15  1  0  0  0  0
  9 10  1  0  0  0  0
 10 11  1  6  0  0  0
 10 12  1  0  0  0  0
 13 12  1  6  0  0  0
 13 14  1  0  0  0  0
 13 19  1  0  0  0  0
 14 15  1  1  0  0  0
 14 17  1  0  0  0  0
 15 16  2  0  0  0  0
 17 18  1  0  0  0  0
 19 18  1  1  0  0  0
M  END
>  <CHROM.1>
56.62347187,-22.08770714,-8.67543074,-7.87954278,9.39965119,-3.12292422,0.88984730
2.99060287

>  <Name>
ligand

>  <RI>
0

>  <Rbt.Current_Directory>
/home/itssahil/PROJECTS/Mol_Feturizer/New_Systems/rnas/3SKI

>  <Rbt.Executable>
rbdock ($Id: //depot/dev/client3/rdock/2013.1/src/exe/rbdock.cxx#4 $)

>  <Rbt.Library>
libRbt.so (2013.1, Build901 2013/11/27)

>  <Rbt.Parameter_File>
/export/apps/rDock/src/rDock_2013.1_src/data/scripts/dock_solv.prm

>  <Rbt.Receptor>
prm/blind_docking_100.prm

>  <SCORE>
-16.8536

>  <SCORE.INTER>
-13.9274

>  <SCORE.INTER.CONST>
1

>  <SCORE.INTER.POLAR>
0

>  <SCORE.INTER.ROT>
2

>  <SCORE.INTER.SOLV>
9.75549

>  <SCORE.INTER.VDW>
-17.4701

>  <SCORE.INTER.norm>
-0.733019

>  <SCORE.INTRA>
-2.92625

>  <SCORE.INTRA.DIHEDRAL>
-5.00852

>  <SCORE.INTRA.DIHEDRAL.0>
6.26853

>  <SCORE.INTRA.POLAR>
0

>  <SCORE.INTRA.POLAR.0>
0

>  <SCORE.INTRA.REPUL>
0

>  <SCORE.INTRA.REPUL.0>
0

>  <SCORE.INTRA.SOLV>
-0.155042

>  <SCORE.INTRA.SOLV.lig_0>
-38.4926

>  <SCORE.INTRA.VDW>
-0.344471

>  <SCORE.INTRA.VDW.0>
-0.59057

>  <SCORE.INTRA.norm>
-0.154013

>  <SCORE.RESTR>
0

>  <SCORE.RESTR.CAVITY>
0

>  <SCORE.RESTR.norm>
0

>  <SCORE.SYSTEM>
0

>  <SCORE.SYSTEM.CONST>
0

>  <SCORE.SYSTEM.DIHEDRAL>
0

>  <SCORE.SYSTEM.SOLV>
0

>  <SCORE.SYSTEM.norm>
0

>  <SCORE.heavy>
19

>  <SCORE.norm>
-0.887032

>  <RMSD>
6.223

$$$$
ligand
 OpenBabel11021811483D
libRbt.so/2013.1/901 2013/11/27
 19 21  0  0  0  0  0  0  0  0999 V2000
  -10.8975   -6.2780    7.9551 C   0  0  0  0  0  0  0  0  0  0  0  0
  -10.0858   -5.0998    7.8406 O   0  0  0  0  0  0  0  0  0  0  0  0
  -10.2815   -7.4295    7.1574 C   0  0  1  0  0  0  0  0  0  0  0  0
   -8.9186   -7.6588    7.5634 O   0  0  0  0  0  0  0  0  0  0  0  0
  -11.0417   -8.7232    7.3902 C   0  0  1  0  0  0  0  0  0  0  0  0
  -11.8738   -9.0433    6.2683 O   0  0  0  0  0  0  0  0  0  0  0  0
   -9.9871   -9.7901    7.5892 C   0  0  0  0  0  0  0  0  0  0  0  0
   -8.6851   -9.0460    7.8475 C   0  0  2  0  0  0  0  0  0  0  0  0
   -6.6515   -6.6283   12.0442 N   0  0  0  0  0  0  0  0  0  0  0  0
   -6.9211   -6.1396   10.8037 C   0  0  1  0  0  0  0  0  0  0  0  0
   -6.6493   -4.8405   10.5346 N   0  0  0  0  0  0  0  0  0  0  0  0
   -7.4522   -6.9254    9.8278 N   0  0  0  0  0  0  0  0  0  0  0  0
   -7.7418   -8.2371   10.0450 C   0  0  2  0  0  0  0  0  0  0  0  0
   -7.4881   -8.7891   11.2876 C   0  0  1  0  0  0  0  0  0  0  0  0
   -6.9101   -7.9203   12.3443 C   0  0  0  0  0  0  0  0  0  0  0  0
   -6.6683   -8.3720   13.4861 O   0  0  0  0  0  0  0  0  0  0  0  0
   -7.8623  -10.0797   11.2474 N   0  0  0  0  0  0  0  0  0  0  0  0
   -8.3333  -10.3274   10.0028 C   0  0  0  0  0  0  0  0  0  0  0  0
   -8.2584   -9.2018    9.2695 N   0  0  1  0  0  0  0  0  0  0  0  0
  1  2  1  0  0  0  0
  3  1  1  1  0  0  0
  3  4  1  0  0  0  0
  3  5  1  0  0  0  0
  5  6  1  6  0  0  0
  5  7  1  0  0  0  0
  7  8  1  0  0  0  0
  8  4  1  1  0  0  0
  8 19  1  0  0  0  0
  9 15  1  0  0  0  0
  9 10  1  0  0  0  0
 10 11  1  6  0  0  0
 10 12  1  0  0  0  0
 13 12  1  6  0  0  0
 13 14  1  0  0  0  0
 13 19  1  0  0  0  0
 14 15  1  1  0  0  0
 14 17  1  0  0  0  0
 15 16  2  0  0  0  0
 17 18  1  0  0  0  0
 19 18  1  1  0  0  0
M  END
>  <CHROM.1>
54.81866446,-20.51722930,-8.61407196,-7.89190318,9.44802914,-3.09182980,0.90216114
2.97753099

>  <Name>
ligand

>  <RI>
0

>  <Rbt.Current_Directory>
/home/itssahil/PROJECTS/Mol_Feturizer/New_Systems/rnas/3SKI

>  <Rbt.Executable>
rbdock ($Id: //depot/dev/client3/rdock/2013.1/src/exe/rbdock.cxx#4 $)

>  <Rbt.Library>
libRbt.so (2013.1, Build901 2013/11/27)

>  <Rbt.Parameter_File>
/export/apps/rDock/src/rDock_2013.1_src/data/scripts/dock_solv.prm

>  <Rbt.Receptor>
prm/pocket_docking_7.prm

>  <SCORE>
-16.9314

>  <SCORE.INTER>
-13.9916

>  <SCORE.INTER.CONST>
1

>  <SCORE.INTER.POLAR>
0

>  <SCORE.INTER.ROT>
2

>  <SCORE.INTER.SOLV>
9.92911

>  <SCORE.INTER.VDW>
-17.5708

>  <SCORE.INTER.norm>
-0.736401

>  <SCORE.INTRA>
-2.93978

>  <SCORE.INTRA.DIHEDRAL>
-4.95446

>  <SCORE.INTRA.DIHEDRAL.0>
6.26853

>  <SCORE.INTRA.POLAR>
0

>  <SCORE.INTRA.POLAR.0>
0

>  <SCORE.INTRA.REPUL>
0

>  <SCORE.INTRA.REPUL.0>
0

>  <SCORE.INTRA.SOLV>
-0.136626

>  <SCORE.INTRA.SOLV.lig_0>
-38.4926

>  <SCORE.INTRA.VDW>
-0.394235

>  <SCORE.INTRA.VDW.0>
-0.59057

>  <SCORE.INTRA.norm>
-0.154725

>  <SCORE.RESTR>
0

>  <SCORE.RESTR.CAVITY>
0

>  <SCORE.RESTR.norm>
0

>  <SCORE.SYSTEM>
0

>  <SCORE.SYSTEM.CONST>
0

>  <SCORE.SYSTEM.DIHEDRAL>
0

>  <SCORE.SYSTEM.SOLV>
0

>  <SCORE.SYSTEM.norm>
0

>  <SCORE.heavy>
19

>  <SCORE.norm>
-0.891126

>  <RMSD>
6.225

$$$$
ligand
 OpenBabel11021811483D
libRbt.so/2013.1/901 2013/11/27
 19 21  0  0  0  0  0  0  0  0999 V2000
  -10.9088   -6.2647    7.9503 C   0  0  0  0  0  0  0  0  0  0  0  0
  -10.0991   -5.0852    7.8350 O   0  0  0  0  0  0  0  0  0  0  0  0
  -10.2947   -7.4136    7.1473 C   0  0  1  0  0  0  0  0  0  0  0  0
   -8.9313   -7.6452    7.5504 O   0  0  0  0  0  0  0  0  0  0  0  0
  -11.0553   -8.7077    7.3766 C   0  0  1  0  0  0  0  0  0  0  0  0
  -11.8894   -9.0231    6.2548 O   0  0  0  0  0  0  0  0  0  0  0  0
  -10.0010   -9.7759    7.5700 C   0  0  0  0  0  0  0  0  0  0  0  0
   -8.6982   -9.0336    7.8289 C   0  0  2  0  0  0  0  0  0  0  0  0
   -6.6565   -6.6326   12.0313 N   0  0  0  0  0  0  0  0  0  0  0  0
   -6.9277   -6.1392   10.7931 C   0  0  1  0  0  0  0  0  0  0  0  0
   -6.6556   -4.8393   10.5284 N   0  0  0  0  0  0  0  0  0  0  0  0
   -7.4609   -6.9211    9.8151 N   0  0  0  0  0  0  0  0  0  0  0  0
   -7.7509   -8.2333   10.0279 C   0  0  2  0  0  0  0  0  0  0  0  0
   -7.4956   -8.7901   11.2681 C   0  0  1  0  0  0  0  0  0  0  0  0
   -6.9155   -7.9255   12.3271 C   0  0  0  0  0  0  0  0  0  0  0  0
   -6.6721   -8.3816   13.4668 O   0  0  0  0  0  0  0  0  0  0  0  0
   -7.8706  -10.0803   11.2237 N   0  0  0  0  0  0  0  0  0  0  0  0
   -8.3437  -10.3232    9.9789 C   0  0  0  0  0  0  0  0  0  0  0  0
   -8.2693   -9.1949    9.2497 N   0  0  1  0  0  0  0  0  0  0  0  0
  1  2  1  0  0  0  0
  3  1  1  1  0  0  0
  3  4  1  0  0  0  0
  3  5  1  0  0  0  0
  5  6  1  6  0  0  0
  5  7  1  0  0  0  0
  7  8  1  0  0  0  0
  8  4  1  1  0  0  0
  8 19  1  0  0  0  0
  9 15  1  0  0  0  0
  9 10  1  0  0  0  0
 10 11  1  6  0  0  0
 10 12  1  0  0  0  0
 13 12  1  6  0  0  0
 13 14  1  0  0  0  0
 13 19  1  0  0  0  0
 14 15  1  1  0  0  0
 14 17  1  0  0  0  0
 15 16  2  0  0  0  0
 17 18  1  0  0  0  0
 19 18  1  1  0  0  0
M  END
>  <CHROM.1>
55.02345973,-20.51857631,-8.62408947,-7.88536343,9.43339306,-3.09107027,0.90049724
2.98083910

>  <Name>
ligand

>  <RI>
0

>  <Rbt.Current_Directory>
/home/itssahil/PROJECTS/Mol_Feturizer/New_Systems/rnas/3SKI

>  <Rbt.Executable>
rbdock ($Id: //depot/dev/client3/rdock/2013.1/src/exe/rbdock.cxx#4 $)

>  <Rbt.Library>
libRbt.so (2013.1, Build901 2013/11/27)

>  <Rbt.Parameter_File>
/export/apps/rDock/src/rDock_2013.1_src/data/scripts/dock_solv.prm

>  <Rbt.Receptor>
prm/pocket_docking_7.prm

>  <SCORE>
-16.8925

>  <SCORE.INTER>
-13.9485

>  <SCORE.INTER.CONST>
1

>  <SCORE.INTER.POLAR>
0

>  <SCORE.INTER.ROT>
2

>  <SCORE.INTER.SOLV>
9.89784

>  <SCORE.INTER.VDW>
-17.5316

>  <SCORE.INTER.norm>
-0.734134

>  <SCORE.INTRA>
-2.94395

>  <SCORE.INTRA.DIHEDRAL>
-4.96182

>  <SCORE.INTRA.DIHEDRAL.0>
6.26853

>  <SCORE.INTRA.POLAR>
0

>  <SCORE.INTRA.POLAR.0>
0

>  <SCORE.INTRA.REPUL>
0

>  <SCORE.INTRA.REPUL.0>
0

>  <SCORE.INTRA.SOLV>
-0.137972

>  <SCORE.INTRA.SOLV.lig_0>
-38.4926

>  <SCORE.INTRA.VDW>
-0.394051

>  <SCORE.INTRA.VDW.0>
-0.59057

>  <SCORE.INTRA.norm>
-0.154945

>  <SCORE.RESTR>
0

>  <SCORE.RESTR.CAVITY>
0

>  <SCORE.RESTR.norm>
0

>  <SCORE.SYSTEM>
0

>  <SCORE.SYSTEM.CONST>
0

>  <SCORE.SYSTEM.DIHEDRAL>
0

>  <SCORE.SYSTEM.SOLV>
0

>  <SCORE.SYSTEM.norm>
0

>  <SCORE.heavy>
19

>  <SCORE.norm>
-0.889078

>  <RMSD>
6.228

$$$$
ligand
 OpenBabel11021811483D
libRbt.so/2013.1/901 2013/11/27
 19 21  0  0  0  0  0  0  0  0999 V2000
  -11.0251   -6.3315    7.8809 C   0  0  0  0  0  0  0  0  0  0  0  0
  -10.2657   -5.1206    7.7501 O   0  0  0  0  0  0  0  0  0  0  0  0
  -10.3637   -7.4636    7.0917 C   0  0  1  0  0  0  0  0  0  0  0  0
   -8.9975   -7.6459    7.5103 O   0  0  0  0  0  0  0  0  0  0  0  0
  -11.0820   -8.7816    7.3214 C   0  0  1  0  0  0  0  0  0  0  0  0
  -11.8930   -9.1321    6.1931 O   0  0  0  0  0  0  0  0  0  0  0  0
   -9.9940   -9.8119    7.5326 C   0  0  0  0  0  0  0  0  0  0  0  0
   -8.7200   -9.0238    7.8002 C   0  0  2  0  0  0  0  0  0  0  0  0
   -6.7319   -6.5474   11.9843 N   0  0  0  0  0  0  0  0  0  0  0  0
   -6.9976   -6.0735   10.7373 C   0  0  1  0  0  0  0  0  0  0  0  0
   -6.7345   -4.7750   10.4567 N   0  0  0  0  0  0  0  0  0  0  0  0
   -7.5164   -6.8734    9.7663 N   0  0  0  0  0  0  0  0  0  0  0  0
   -7.7969   -8.1851    9.9950 C   0  0  2  0  0  0  0  0  0  0  0  0
   -7.5464   -8.7224   11.2448 C   0  0  1  0  0  0  0  0  0  0  0  0
   -6.9820   -7.8383   12.2961 C   0  0  0  0  0  0  0  0  0  0  0  0
   -6.7436   -8.2764   13.4438 O   0  0  0  0  0  0  0  0  0  0  0  0
   -7.9101  -10.0163   11.2154 N   0  0  0  0  0  0  0  0  0  0  0  0
   -8.3714  -10.2804    9.9706 C   0  0  0  0  0  0  0  0  0  0  0  0
   -8.3009   -9.1617    9.2263 N   0  0  1  0  0  0  0  0  0  0  0  0
  1  2  1  0  0  0  0
  3  1  1  1  0  0  0
  3  4  1  0  0  0  0
  3  5  1  0  0  0  0
  5  6  1  6  0  0  0
  5  7  1  0  0  0  0
  7  8  1  0  0  0  0
  8  4  1  1  0  0  0
  8 19  1  0  0  0  0
  9 15  1  0  0  0  0
  9 10  1  0  0  0  0
 10 11  1  6  0  0  0
 10 12  1  0  0  0  0
 13 12  1  6  0  0  0
 13 14  1  0  0  0  0
 13 19  1  0  0  0  0
 14 15  1  1  0  0  0
 14 17  1  0  0  0  0
 15 16  2  0  0  0  0
 17 18  1  0  0  0  0
 19 18  1  1  0  0  0
M  END
>  <CHROM.1>
55.88314361,-22.05640906,-8.68174551,-7.86889286,9.39022461,-3.12313010,0.90631346
2.99133693

>  <Name>
ligand

>  <RI>
0

>  <Rbt.Current_Directory>
/home/itssahil/PROJECTS/Mol_Feturizer/New_Systems/rnas/3SKI

>  <Rbt.Executable>
rbdock ($Id: //depot/dev/client3/rdock/2013.1/src/exe/rbdock.cxx#4 $)

>  <Rbt.Library>
libRbt.so (2013.1, Build901 2013/11/27)

>  <Rbt.Parameter_File>
/export/apps/rDock/src/rDock_2013.1_src/data/scripts/dock_solv.prm

>  <Rbt.Receptor>
prm/pocket_docking_8.prm

>  <SCORE>
-16.8613

>  <SCORE.INTER>
-13.9462

>  <SCORE.INTER.CONST>
1

>  <SCORE.INTER.POLAR>
0

>  <SCORE.INTER.ROT>
2

>  <SCORE.INTER.SOLV>
9.90309

>  <SCORE.INTER.VDW>
-17.5318

>  <SCORE.INTER.norm>
-0.734009

>  <SCORE.INTRA>
-2.91511

>  <SCORE.INTRA.DIHEDRAL>
-4.98887

>  <SCORE.INTRA.DIHEDRAL.0>
6.26853

>  <SCORE.INTRA.POLAR>
0

>  <SCORE.INTRA.POLAR.0>
0

>  <SCORE.INTRA.REPUL>
0

>  <SCORE.INTRA.REPUL.0>
0

>  <SCORE.INTRA.SOLV>
-0.150064

>  <SCORE.INTRA.SOLV.lig_0>
-38.4926

>  <SCORE.INTRA.VDW>
-0.345644

>  <SCORE.INTRA.VDW.0>
-0.59057

>  <SCORE.INTRA.norm>
-0.153427

>  <SCORE.RESTR>
0

>  <SCORE.RESTR.CAVITY>
0

>  <SCORE.RESTR.norm>
0

>  <SCORE.SYSTEM>
0

>  <SCORE.SYSTEM.CONST>
0

>  <SCORE.SYSTEM.DIHEDRAL>
0

>  <SCORE.SYSTEM.SOLV>
0

>  <SCORE.SYSTEM.norm>
0

>  <SCORE.heavy>
19

>  <SCORE.norm>
-0.887436

>  <RMSD>
6.228

$$$$
ligand
 OpenBabel11021811483D
libRbt.so/2013.1/901 2013/11/27
 19 21  0  0  0  0  0  0  0  0999 V2000
  -11.0299   -6.3330    7.8739 C   0  0  0  0  0  0  0  0  0  0  0  0
  -10.2762   -5.1198    7.7320 O   0  0  0  0  0  0  0  0  0  0  0  0
  -10.3686   -7.4667    7.0869 C   0  0  1  0  0  0  0  0  0  0  0  0
   -9.0025   -7.6485    7.5060 O   0  0  0  0  0  0  0  0  0  0  0  0
  -11.0871   -8.7842    7.3190 C   0  0  1  0  0  0  0  0  0  0  0  0
  -11.8980   -9.1367    6.1912 O   0  0  0  0  0  0  0  0  0  0  0  0
   -9.9992   -9.8142    7.5321 C   0  0  0  0  0  0  0  0  0  0  0  0
   -8.7252   -9.0259    7.7985 C   0  0  2  0  0  0  0  0  0  0  0  0
   -6.7336   -6.5429   11.9771 N   0  0  0  0  0  0  0  0  0  0  0  0
   -6.9987   -6.0714   10.7291 C   0  0  1  0  0  0  0  0  0  0  0  0
   -6.7337   -4.7740   10.4455 N   0  0  0  0  0  0  0  0  0  0  0  0
   -7.5186   -6.8728    9.7598 N   0  0  0  0  0  0  0  0  0  0  0  0
   -7.8009   -8.1835    9.9915 C   0  0  2  0  0  0  0  0  0  0  0  0
   -7.5513   -8.7184   11.2424 C   0  0  1  0  0  0  0  0  0  0  0  0
   -6.9856   -7.8327   12.2918 C   0  0  0  0  0  0  0  0  0  0  0  0
   -6.7479   -8.2687   13.4405 O   0  0  0  0  0  0  0  0  0  0  0  0
   -7.9167  -10.0119   11.2159 N   0  0  0  0  0  0  0  0  0  0  0  0
   -8.3784  -10.2781    9.9717 C   0  0  0  0  0  0  0  0  0  0  0  0
   -8.3064   -9.1612    9.2249 N   0  0  1  0  0  0  0  0  0  0  0  0
  1  2  1  0  0  0  0
  3  1  1  1  0  0  0
  3  4  1  0  0  0  0
  3  5  1  0  0  0  0
  5  6  1  6  0  0  0
  5  7  1  0  0  0  0
  7  8  1  0  0  0  0
  8  4  1  1  0  0  0
  8 19  1  0  0  0  0
  9 15  1  0  0  0  0
  9 10  1  0  0  0  0
 10 11  1  6  0  0  0
 10 12  1  0  0  0  0
 13 12  1  6  0  0  0
 13 14  1  0  0  0  0
 13 19  1  0  0  0  0
 14 15  1  1  0  0  0
 14 17  1  0  0  0  0
 15 16  2  0  0  0  0
 17 18  1  0  0  0  0
 19 18  1  1  0  0  0
M  END
>  <CHROM.1>
56.35513014,-22.13177018,-8.68631022,-7.86809242,9.38548562,-3.12136027,0.90591705
2.98808155

>  <Name>
ligand

>  <RI>
0

>  <Rbt.Current_Directory>
/home/itssahil/PROJECTS/Mol_Feturizer/New_Systems/rnas/3SKI

>  <Rbt.Executable>
rbdock ($Id: //depot/dev/client3/rdock/2013.1/src/exe/rbdock.cxx#4 $)

>  <Rbt.Library>
libRbt.so (2013.1, Build901 2013/11/27)

>  <Rbt.Parameter_File>
/export/apps/rDock/src/rDock_2013.1_src/data/scripts/dock_solv.prm

>  <Rbt.Receptor>
prm/pocket_docking_7.prm

>  <SCORE>
-16.8628

>  <SCORE.INTER>
-13.9414

>  <SCORE.INTER.CONST>
1

>  <SCORE.INTER.POLAR>
0

>  <SCORE.INTER.ROT>
2

>  <SCORE.INTER.SOLV>
9.90389

>  <SCORE.INTER.VDW>
-17.5289

>  <SCORE.INTER.norm>
-0.733757

>  <SCORE.INTRA>
-2.92145

>  <SCORE.INTRA.DIHEDRAL>
-5.00183

>  <SCORE.INTRA.DIHEDRAL.0>
6.26853

>  <SCORE.INTRA.POLAR>
0

>  <SCORE.INTRA.POLAR.0>
0

>  <SCORE.INTRA.REPUL>
0

>  <SCORE.INTRA.REPUL.0>
0

>  <SCORE.INTRA.SOLV>
-0.153474

>  <SCORE.INTRA.SOLV.lig_0>
-38.4926

>  <SCORE.INTRA.VDW>
-0.343803

>  <SCORE.INTRA.VDW.0>
-0.59057

>  <SCORE.INTRA.norm>
-0.153761

>  <SCORE.RESTR>
0

>  <SCORE.RESTR.CAVITY>
0

>  <SCORE.RESTR.norm>
0

>  <SCORE.SYSTEM>
0

>  <SCORE.SYSTEM.CONST>
0

>  <SCORE.SYSTEM.DIHEDRAL>
0

>  <SCORE.SYSTEM.SOLV>
0

>  <SCORE.SYSTEM.norm>
0

>  <SCORE.heavy>
19

>  <SCORE.norm>
-0.887518

>  <RMSD>
6.230

$$$$
ligand
 OpenBabel11021811483D
libRbt.so/2013.1/901 2013/11/27
 19 21  0  0  0  0  0  0  0  0999 V2000
  -11.0203   -6.3246    7.9214 C   0  0  0  0  0  0  0  0  0  0  0  0
  -10.2477   -5.1232    7.7803 O   0  0  0  0  0  0  0  0  0  0  0  0
  -10.3803   -7.4663    7.1284 C   0  0  1  0  0  0  0  0  0  0  0  0
   -9.0128   -7.6650    7.5351 O   0  0  0  0  0  0  0  0  0  0  0  0
  -11.1130   -8.7748    7.3672 C   0  0  1  0  0  0  0  0  0  0  0  0
  -11.9384   -9.1172    6.2469 O   0  0  0  0  0  0  0  0  0  0  0  0
  -10.0360   -9.8183    7.5705 C   0  0  0  0  0  0  0  0  0  0  0  0
   -8.7500   -9.0457    7.8251 C   0  0  2  0  0  0  0  0  0  0  0  0
   -6.7669   -6.5674   12.0106 N   0  0  0  0  0  0  0  0  0  0  0  0
   -7.0470   -6.0899   10.7681 C   0  0  1  0  0  0  0  0  0  0  0  0
   -6.8027   -4.7866   10.4932 N   0  0  0  0  0  0  0  0  0  0  0  0
   -7.5617   -6.8910    9.7958 N   0  0  0  0  0  0  0  0  0  0  0  0
   -7.8235   -8.2075   10.0188 C   0  0  2  0  0  0  0  0  0  0  0  0
   -7.5579   -8.7487   11.2637 C   0  0  1  0  0  0  0  0  0  0  0  0
   -6.9982   -7.8632   12.3165 C   0  0  0  0  0  0  0  0  0  0  0  0
   -6.7466   -8.3048   13.4601 O   0  0  0  0  0  0  0  0  0  0  0  0
   -7.9048  -10.0470   11.2292 N   0  0  0  0  0  0  0  0  0  0  0  0
   -8.3708  -10.3100    9.9859 C   0  0  0  0  0  0  0  0  0  0  0  0
   -8.3198   -9.1863    9.2476 N   0  0  1  0  0  0  0  0  0  0  0  0
  1  2  1  0  0  0  0
  3  1  1  1  0  0  0
  3  4  1  0  0  0  0
  3  5  1  0  0  0  0
  5  6  1  6  0  0  0
  5  7  1  0  0  0  0
  7  8  1  0  0  0  0
  8  4  1  1  0  0  0
  8 19  1  0  0  0  0
  9 15  1  0  0  0  0
  9 10  1  0  0  0  0
 10 11  1  6  0  0  0
 10 12  1  0  0  0  0
 13 12  1  6  0  0  0
 13 14  1  0  0  0  0
 13 19  1  0  0  0  0
 14 15  1  1  0  0  0
 14 17  1  0  0  0  0
 15 16  2  0  0  0  0
 17 18  1  0  0  0  0
 19 18  1  1  0  0  0
M  END
>  <CHROM.1>
55.93726819,-20.51885251,-8.70383921,-7.88301020,9.41928355,-3.12427437,0.90503099
2.99973438

>  <Name>
ligand

>  <RI>
0

>  <Rbt.Current_Directory>
/home/itssahil/PROJECTS/Mol_Feturizer/New_Systems/rnas/3SKI

>  <Rbt.Executable>
rbdock ($Id: //depot/dev/client3/rdock/2013.1/src/exe/rbdock.cxx#4 $)

>  <Rbt.Library>
libRbt.so (2013.1, Build901 2013/11/27)

>  <Rbt.Parameter_File>
/export/apps/rDock/src/rDock_2013.1_src/data/scripts/dock_solv.prm

>  <Rbt.Receptor>
prm/pocket_docking_7.prm

>  <SCORE>
-16.8699

>  <SCORE.INTER>
-13.9091

>  <SCORE.INTER.CONST>
1

>  <SCORE.INTER.POLAR>
0

>  <SCORE.INTER.ROT>
2

>  <SCORE.INTER.SOLV>
9.78083

>  <SCORE.INTER.VDW>
-17.4664

>  <SCORE.INTER.norm>
-0.732059

>  <SCORE.INTRA>
-2.9608

>  <SCORE.INTRA.DIHEDRAL>
-4.99108

>  <SCORE.INTRA.DIHEDRAL.0>
6.26853

>  <SCORE.INTRA.POLAR>
0

>  <SCORE.INTRA.POLAR.0>
0

>  <SCORE.INTRA.REPUL>
0

>  <SCORE.INTRA.REPUL.0>
0

>  <SCORE.INTRA.SOLV>
-0.143954

>  <SCORE.INTRA.SOLV.lig_0>
-38.4926

>  <SCORE.INTRA.VDW>
-0.393278

>  <SCORE.INTRA.VDW.0>
-0.59057

>  <SCORE.INTRA.norm>
-0.155831

>  <SCORE.RESTR>
0

>  <SCORE.RESTR.CAVITY>
0

>  <SCORE.RESTR.norm>
0

>  <SCORE.SYSTEM>
0

>  <SCORE.SYSTEM.CONST>
0

>  <SCORE.SYSTEM.DIHEDRAL>
0

>  <SCORE.SYSTEM.SOLV>
0

>  <SCORE.SYSTEM.norm>
0

>  <SCORE.heavy>
19

>  <SCORE.norm>
-0.88789

>  <RMSD>
6.241

$$$$
ligand
 OpenBabel11021811483D
libRbt.so/2013.1/901 2013/11/27
 19 21  0  0  0  0  0  0  0  0999 V2000
  -10.2299   -5.9228    7.8398 C   0  0  0  0  0  0  0  0  0  0  0  0
  -11.5086   -5.4246    7.4191 O   0  0  0  0  0  0  0  0  0  0  0  0
   -9.9056   -7.2340    7.1203 C   0  0  1  0  0  0  0  0  0  0  0  0
   -8.6043   -7.7177    7.5048 O   0  0  0  0  0  0  0  0  0  0  0  0
  -10.9091   -8.3160    7.4782 C   0  0  1  0  0  0  0  0  0  0  0  0
  -11.8392   -8.5325    6.4098 O   0  0  0  0  0  0  0  0  0  0  0  0
  -10.0940   -9.5653    7.7326 C   0  0  0  0  0  0  0  0  0  0  0  0
   -8.6546   -9.0984    7.8930 C   0  0  2  0  0  0  0  0  0  0  0  0
   -6.6030   -6.6199   12.0452 N   0  0  0  0  0  0  0  0  0  0  0  0
   -6.8963   -6.1443   10.8050 C   0  0  1  0  0  0  0  0  0  0  0  0
   -6.6479   -4.8432   10.5232 N   0  0  0  0  0  0  0  0  0  0  0  0
   -7.4282   -6.9451    9.8418 N   0  0  0  0  0  0  0  0  0  0  0  0
   -7.6949   -8.2594   10.0720 C   0  0  2  0  0  0  0  0  0  0  0  0
   -7.4164   -8.7985   11.3150 C   0  0  1  0  0  0  0  0  0  0  0  0
   -6.8379   -7.9134   12.3579 C   0  0  0  0  0  0  0  0  0  0  0  0
   -6.5742   -8.3531   13.4994 O   0  0  0  0  0  0  0  0  0  0  0  0
   -7.7714  -10.0949   11.2889 N   0  0  0  0  0  0  0  0  0  0  0  0
   -8.2550  -10.3587   10.0524 C   0  0  0  0  0  0  0  0  0  0  0  0
   -8.2069   -9.2375    9.3103 N   0  0  1  0  0  0  0  0  0  0  0  0
  1  2  1  0  0  0  0
  3  1  1  1  0  0  0
  3  4  1  0  0  0  0
  3  5  1  0  0  0  0
  5  6  1  6  0  0  0
  5  7  1  0  0  0  0
  7  8  1  0  0  0  0
  8  4  1  1  0  0  0
  8 19  1  0  0  0  0
  9 15  1  0  0  0  0
  9 10  1  0  0  0  0
 10 11  1  6  0  0  0
 10 12  1  0  0  0  0
 13 12  1  6  0  0  0
 13 14  1  0  0  0  0
 13 19  1  0  0  0  0
 14 15  1  1  0  0  0
 14 17  1  0  0  0  0
 15 16  2  0  0  0  0
 17 18  1  0  0  0  0
 19 18  1  1  0  0  0
M  END
>  <CHROM.1>
178.12751173,-6.76400568,-8.59199708,-7.83067512,9.44448522,-3.03904295,0.88301021
3.04255593

>  <Name>
ligand

>  <RI>
0

>  <Rbt.Current_Directory>
/home/itssahil/PROJECTS/Mol_Feturizer/New_Systems/rnas/3SKI

>  <Rbt.Executable>
rbdock ($Id: //depot/dev/client3/rdock/2013.1/src/exe/rbdock.cxx#4 $)

>  <Rbt.Library>
libRbt.so (2013.1, Build901 2013/11/27)

>  <Rbt.Parameter_File>
/export/apps/rDock/src/rDock_2013.1_src/data/scripts/dock_solv.prm

>  <Rbt.Receptor>
prm/pocket_docking_5.prm

>  <SCORE>
-17.1159

>  <SCORE.INTER>
-14.1577

>  <SCORE.INTER.CONST>
1

>  <SCORE.INTER.POLAR>
0

>  <SCORE.INTER.ROT>
2

>  <SCORE.INTER.SOLV>
9.32519

>  <SCORE.INTER.VDW>
-17.4802

>  <SCORE.INTER.norm>
-0.745141

>  <SCORE.INTRA>
-2.95823

>  <SCORE.INTRA.DIHEDRAL>
-5.04688

>  <SCORE.INTRA.DIHEDRAL.0>
6.26853

>  <SCORE.INTRA.POLAR>
0

>  <SCORE.INTRA.POLAR.0>
0

>  <SCORE.INTRA.REPUL>
0

>  <SCORE.INTRA.REPUL.0>
0

>  <SCORE.INTRA.SOLV>
0.166469

>  <SCORE.INTRA.SOLV.lig_0>
-38.4926

>  <SCORE.INTRA.VDW>
-0.51802

>  <SCORE.INTRA.VDW.0>
-0.59057

>  <SCORE.INTRA.norm>
-0.155696

>  <SCORE.RESTR>
0

>  <SCORE.RESTR.CAVITY>
0

>  <SCORE.RESTR.norm>
0

>  <SCORE.SYSTEM>
0

>  <SCORE.SYSTEM.CONST>
0

>  <SCORE.SYSTEM.DIHEDRAL>
0

>  <SCORE.SYSTEM.SOLV>
0

>  <SCORE.SYSTEM.norm>
0

>  <SCORE.heavy>
19

>  <SCORE.norm>
-0.900837

>  <RMSD>
6.244

$$$$
ligand
 OpenBabel11021811483D
libRbt.so/2013.1/901 2013/11/27
 19 21  0  0  0  0  0  0  0  0999 V2000
  -10.9187   -6.2543    8.0961 C   0  0  0  0  0  0  0  0  0  0  0  0
  -10.1327   -5.0576    7.9945 O   0  0  0  0  0  0  0  0  0  0  0  0
  -10.2913   -7.3764    7.2659 C   0  0  1  0  0  0  0  0  0  0  0  0
   -8.9289   -7.6096    7.6715 O   0  0  0  0  0  0  0  0  0  0  0  0
  -11.0442   -8.6816    7.4543 C   0  0  1  0  0  0  0  0  0  0  0  0
  -11.8687   -8.9716    6.3187 O   0  0  0  0  0  0  0  0  0  0  0  0
   -9.9836   -9.7474    7.6253 C   0  0  0  0  0  0  0  0  0  0  0  0
   -8.6878   -9.0035    7.9133 C   0  0  2  0  0  0  0  0  0  0  0  0
   -6.6959   -6.7041   12.1956 N   0  0  0  0  0  0  0  0  0  0  0  0
   -6.9632   -6.1784   10.9698 C   0  0  1  0  0  0  0  0  0  0  0  0
   -6.7009   -4.8692   10.7436 N   0  0  0  0  0  0  0  0  0  0  0  0
   -7.4828   -6.9370    9.9666 N   0  0  0  0  0  0  0  0  0  0  0  0
   -7.7625   -8.2573   10.1404 C   0  0  2  0  0  0  0  0  0  0  0  0
   -7.5105   -8.8465   11.3662 C   0  0  1  0  0  0  0  0  0  0  0  0
   -6.9453   -8.0070   12.4531 C   0  0  0  0  0  0  0  0  0  0  0  0
   -6.7055   -8.4929   13.5812 O   0  0  0  0  0  0  0  0  0  0  0  0
   -7.8737  -10.1382   11.2830 N   0  0  0  0  0  0  0  0  0  0  0  0
   -8.3363  -10.3500   10.0286 C   0  0  0  0  0  0  0  0  0  0  0  0
   -8.2671   -9.2010    9.3319 N   0  0  1  0  0  0  0  0  0  0  0  0
  1  2  1  0  0  0  0
  3  1  1  1  0  0  0
  3  4  1  0  0  0  0
  3  5  1  0  0  0  0
  5  6  1  6  0  0  0
  5  7  1  0  0  0  0
  7  8  1  0  0  0  0
  8  4  1  1  0  0  0
  8 19  1  0  0  0  0
  9 15  1  0  0  0  0
  9 10  1  0  0  0  0
 10 11  1  6  0  0  0
 10 12  1  0  0  0  0
 13 12  1  6  0  0  0
 13 14  1  0  0  0  0
 13 19  1  0  0  0  0
 14 15  1  1  0  0  0
 14 17  1  0  0  0  0
 15 16  2  0  0  0  0
 17 18  1  0  0  0  0
 19 18  1  1  0  0  0
M  END
>  <CHROM.1>
56.32085508,-20.40644254,-8.63479267,-7.89860701,9.54823934,-3.10055913,0.90863775
3.01778366

>  <Name>
ligand

>  <RI>
0

>  <Rbt.Current_Directory>
/home/itssahil/PROJECTS/Mol_Feturizer/New_Systems/rnas/3SKI

>  <Rbt.Executable>
rbdock ($Id: //depot/dev/client3/rdock/2013.1/src/exe/rbdock.cxx#4 $)

>  <Rbt.Library>
libRbt.so (2013.1, Build901 2013/11/27)

>  <Rbt.Parameter_File>
/export/apps/rDock/src/rDock_2013.1_src/data/scripts/dock_solv.prm

>  <Rbt.Receptor>
prm/pocket_docking_7.prm

>  <SCORE>
-16.7898

>  <SCORE.INTER>
-13.8207

>  <SCORE.INTER.CONST>
1

>  <SCORE.INTER.POLAR>
0

>  <SCORE.INTER.ROT>
2

>  <SCORE.INTER.SOLV>
9.94725

>  <SCORE.INTER.VDW>
-17.4629

>  <SCORE.INTER.norm>
-0.727405

>  <SCORE.INTRA>
-2.96909

>  <SCORE.INTRA.DIHEDRAL>
-5.00166

>  <SCORE.INTRA.DIHEDRAL.0>
6.26853

>  <SCORE.INTRA.POLAR>
0

>  <SCORE.INTRA.POLAR.0>
0

>  <SCORE.INTRA.REPUL>
0

>  <SCORE.INTRA.REPUL.0>
0

>  <SCORE.INTRA.SOLV>
-0.146001

>  <SCORE.INTRA.SOLV.lig_0>
-38.4926

>  <SCORE.INTRA.VDW>
-0.395261

>  <SCORE.INTRA.VDW.0>
-0.59057

>  <SCORE.INTRA.norm>
-0.156268

>  <SCORE.RESTR>
0

>  <SCORE.RESTR.CAVITY>
0

>  <SCORE.RESTR.norm>
0

>  <SCORE.SYSTEM>
0

>  <SCORE.SYSTEM.CONST>
0

>  <SCORE.SYSTEM.DIHEDRAL>
0

>  <SCORE.SYSTEM.SOLV>
0

>  <SCORE.SYSTEM.norm>
0

>  <SCORE.heavy>
19

>  <SCORE.norm>
-0.883673

>  <RMSD>
6.245

$$$$
ligand
 OpenBabel11021811483D
libRbt.so/2013.1/901 2013/11/27
 19 21  0  0  0  0  0  0  0  0999 V2000
  -10.9847   -6.3025    7.9128 C   0  0  0  0  0  0  0  0  0  0  0  0
  -10.1928   -5.1126    7.7816 O   0  0  0  0  0  0  0  0  0  0  0  0
  -10.3540   -7.4524    7.1244 C   0  0  1  0  0  0  0  0  0  0  0  0
   -8.9908   -7.6661    7.5378 O   0  0  0  0  0  0  0  0  0  0  0  0
  -11.1026   -8.7522    7.3612 C   0  0  1  0  0  0  0  0  0  0  0  0
  -11.9265   -9.0866    6.2374 O   0  0  0  0  0  0  0  0  0  0  0  0
  -10.0386   -9.8076    7.5709 C   0  0  0  0  0  0  0  0  0  0  0  0
   -8.7451   -9.0494    7.8307 C   0  0  2  0  0  0  0  0  0  0  0  0
   -6.7345   -6.5935   12.0163 N   0  0  0  0  0  0  0  0  0  0  0  0
   -7.0009   -6.1151   10.7712 C   0  0  1  0  0  0  0  0  0  0  0  0
   -6.7320   -4.8173   10.4931 N   0  0  0  0  0  0  0  0  0  0  0  0
   -7.5260   -6.9100    9.7993 N   0  0  0  0  0  0  0  0  0  0  0  0
   -7.8125   -8.2208   10.0255 C   0  0  2  0  0  0  0  0  0  0  0  0
   -7.5618   -8.7626   11.2732 C   0  0  1  0  0  0  0  0  0  0  0  0
   -6.9904   -7.8839   12.3254 C   0  0  0  0  0  0  0  0  0  0  0  0
   -6.7515   -8.3261   13.4715 O   0  0  0  0  0  0  0  0  0  0  0  0
   -7.9320  -10.0546   11.2415 N   0  0  0  0  0  0  0  0  0  0  0  0
   -8.3975  -10.3132    9.9971 C   0  0  0  0  0  0  0  0  0  0  0  0
   -8.3233   -9.1930    9.2554 N   0  0  1  0  0  0  0  0  0  0  0  0
  1  2  1  0  0  0  0
  3  1  1  1  0  0  0
  3  4  1  0  0  0  0
  3  5  1  0  0  0  0
  5  6  1  6  0  0  0
  5  7  1  0  0  0  0
  7  8  1  0  0  0  0
  8  4  1  1  0  0  0
  8 19  1  0  0  0  0
  9 15  1  0  0  0  0
  9 10  1  0  0  0  0
 10 11  1  6  0  0  0
 10 12  1  0  0  0  0
 13 12  1  6  0  0  0
 13 14  1  0  0  0  0
 13 19  1  0  0  0  0
 14 15  1  1  0  0  0
 14 17  1  0  0  0  0
 15 16  2  0  0  0  0
 17 18  1  0  0  0  0
 19 18  1  1  0  0  0
M  END
>  <CHROM.1>
55.53466346,-20.92171706,-8.68747004,-7.88682346,9.42238638,-3.10040295,0.90550856
2.97686688

>  <Name>
ligand

>  <RI>
0

>  <Rbt.Current_Directory>
/home/itssahil/PROJECTS/Mol_Feturizer/New_Systems/rnas/3SKI

>  <Rbt.Executable>
rbdock ($Id: //depot/dev/client3/rdock/2013.1/src/exe/rbdock.cxx#4 $)

>  <Rbt.Library>
libRbt.so (2013.1, Build901 2013/11/27)

>  <Rbt.Parameter_File>
/export/apps/rDock/src/rDock_2013.1_src/data/scripts/dock_solv.prm

>  <Rbt.Receptor>
prm/pocket_docking_8.prm

>  <SCORE>
-16.8029

>  <SCORE.INTER>
-13.8734

>  <SCORE.INTER.CONST>
1

>  <SCORE.INTER.POLAR>
0

>  <SCORE.INTER.ROT>
2

>  <SCORE.INTER.SOLV>
9.81344

>  <SCORE.INTER.VDW>
-17.4534

>  <SCORE.INTER.norm>
-0.730179

>  <SCORE.INTRA>
-2.92946

>  <SCORE.INTRA.DIHEDRAL>
-4.97873

>  <SCORE.INTRA.DIHEDRAL.0>
6.26853

>  <SCORE.INTRA.POLAR>
0

>  <SCORE.INTRA.POLAR.0>
0

>  <SCORE.INTRA.REPUL>
0

>  <SCORE.INTRA.REPUL.0>
0

>  <SCORE.INTRA.SOLV>
-0.142992

>  <SCORE.INTRA.SOLV.lig_0>
-38.4926

>  <SCORE.INTRA.VDW>
-0.368595

>  <SCORE.INTRA.VDW.0>
-0.59057

>  <SCORE.INTRA.norm>
-0.154182

>  <SCORE.RESTR>
0

>  <SCORE.RESTR.CAVITY>
0

>  <SCORE.RESTR.norm>
0

>  <SCORE.SYSTEM>
0

>  <SCORE.SYSTEM.CONST>
0

>  <SCORE.SYSTEM.DIHEDRAL>
0

>  <SCORE.SYSTEM.SOLV>
0

>  <SCORE.SYSTEM.norm>
0

>  <SCORE.heavy>
19

>  <SCORE.norm>
-0.884361

>  <RMSD>
6.247

$$$$
ligand
 OpenBabel11021811483D
libRbt.so/2013.1/901 2013/11/27
 19 21  0  0  0  0  0  0  0  0999 V2000
  -10.9377   -6.3068    7.9144 C   0  0  0  0  0  0  0  0  0  0  0  0
  -10.1381   -5.1206    7.7971 O   0  0  0  0  0  0  0  0  0  0  0  0
  -10.3015   -7.4581    7.1323 C   0  0  1  0  0  0  0  0  0  0  0  0
   -8.9430   -7.6748    7.5595 O   0  0  0  0  0  0  0  0  0  0  0  0
  -11.0553   -8.7562    7.3615 C   0  0  1  0  0  0  0  0  0  0  0  0
  -11.8685   -9.0889    6.2295 O   0  0  0  0  0  0  0  0  0  0  0  0
   -9.9957   -9.8139    7.5820 C   0  0  0  0  0  0  0  0  0  0  0  0
   -8.7033   -9.0586    7.8548 C   0  0  2  0  0  0  0  0  0  0  0  0
   -6.7068   -6.6133   12.0534 N   0  0  0  0  0  0  0  0  0  0  0  0
   -6.9567   -6.1352   10.8047 C   0  0  1  0  0  0  0  0  0  0  0  0
   -6.6720   -4.8409   10.5263 N   0  0  0  0  0  0  0  0  0  0  0  0
   -7.4808   -6.9270    9.8298 N   0  0  0  0  0  0  0  0  0  0  0  0
   -7.7827   -8.2343   10.0563 C   0  0  2  0  0  0  0  0  0  0  0  0
   -7.5491   -8.7756   11.3076 C   0  0  1  0  0  0  0  0  0  0  0  0
   -6.9787   -7.9003   12.3631 C   0  0  0  0  0  0  0  0  0  0  0  0
   -6.7549   -8.3422   13.5123 O   0  0  0  0  0  0  0  0  0  0  0  0
   -7.9321  -10.0638   11.2753 N   0  0  0  0  0  0  0  0  0  0  0  0
   -8.3888  -10.3207   10.0273 C   0  0  0  0  0  0  0  0  0  0  0  0
   -8.2962   -9.2031    9.2838 N   0  0  1  0  0  0  0  0  0  0  0  0
  1  2  1  0  0  0  0
  3  1  1  1  0  0  0
  3  4  1  0  0  0  0
  3  5  1  0  0  0  0
  5  6  1  6  0  0  0
  5  7  1  0  0  0  0
  7  8  1  0  0  0  0
  8  4  1  1  0  0  0
  8 19  1  0  0  0  0
  9 15  1  0  0  0  0
  9 10  1  0  0  0  0
 10 11  1  6  0  0  0
 10 12  1  0  0  0  0
 13 12  1  6  0  0  0
 13 14  1  0  0  0  0
 13 19  1  0  0  0  0
 14 15  1  1  0  0  0
 14 17  1  0  0  0  0
 15 16  2  0  0  0  0
 17 18  1  0  0  0  0
 19 18  1  1  0  0  0
M  END
>  <CHROM.1>
55.22629975,-21.40147804,-8.65247310,-7.89798582,9.44535845,-3.08858871,0.91203286
2.96441381

>  <Name>
ligand

>  <RI>
0

>  <Rbt.Current_Directory>
/home/itssahil/PROJECTS/Mol_Feturizer/New_Systems/rnas/3SKI

>  <Rbt.Executable>
rbdock ($Id: //depot/dev/client3/rdock/2013.1/src/exe/rbdock.cxx#4 $)

>  <Rbt.Library>
libRbt.so (2013.1, Build901 2013/11/27)

>  <Rbt.Parameter_File>
/export/apps/rDock/src/rDock_2013.1_src/data/scripts/dock_solv.prm

>  <Rbt.Receptor>
prm/pocket_docking_8.prm

>  <SCORE>
-16.8637

>  <SCORE.INTER>
-13.9488

>  <SCORE.INTER.CONST>
1

>  <SCORE.INTER.POLAR>
0

>  <SCORE.INTER.ROT>
2

>  <SCORE.INTER.SOLV>
9.98778

>  <SCORE.INTER.VDW>
-17.5618

>  <SCORE.INTER.norm>
-0.734145

>  <SCORE.INTRA>
-2.91491

>  <SCORE.INTRA.DIHEDRAL>
-4.96844

>  <SCORE.INTRA.DIHEDRAL.0>
6.26853

>  <SCORE.INTRA.POLAR>
0

>  <SCORE.INTRA.POLAR.0>
0

>  <SCORE.INTRA.REPUL>
0

>  <SCORE.INTRA.REPUL.0>
0

>  <SCORE.INTRA.SOLV>
-0.142986

>  <SCORE.INTRA.SOLV.lig_0>
-38.4926

>  <SCORE.INTRA.VDW>
-0.359198

>  <SCORE.INTRA.VDW.0>
-0.59057

>  <SCORE.INTRA.norm>
-0.153416

>  <SCORE.RESTR>
0

>  <SCORE.RESTR.CAVITY>
0

>  <SCORE.RESTR.norm>
0

>  <SCORE.SYSTEM>
0

>  <SCORE.SYSTEM.CONST>
0

>  <SCORE.SYSTEM.DIHEDRAL>
0

>  <SCORE.SYSTEM.SOLV>
0

>  <SCORE.SYSTEM.norm>
0

>  <SCORE.heavy>
19

>  <SCORE.norm>
-0.887561

>  <RMSD>
6.247

$$$$
ligand
 OpenBabel11021811483D
libRbt.so/2013.1/901 2013/11/27
 19 21  0  0  0  0  0  0  0  0999 V2000
  -10.2587   -5.9097    7.8246 C   0  0  0  0  0  0  0  0  0  0  0  0
  -11.5461   -5.4245    7.4155 O   0  0  0  0  0  0  0  0  0  0  0  0
   -9.9283   -7.2184    7.1035 C   0  0  1  0  0  0  0  0  0  0  0  0
   -8.6271   -7.6994    7.4915 O   0  0  0  0  0  0  0  0  0  0  0  0
  -10.9302   -8.3038    7.4554 C   0  0  1  0  0  0  0  0  0  0  0  0
  -11.8559   -8.5205    6.3832 O   0  0  0  0  0  0  0  0  0  0  0  0
  -10.1126   -9.5516    7.7100 C   0  0  0  0  0  0  0  0  0  0  0  0
   -8.6751   -9.0811    7.8766 C   0  0  2  0  0  0  0  0  0  0  0  0
   -6.6369   -6.6083   12.0387 N   0  0  0  0  0  0  0  0  0  0  0  0
   -6.9260   -6.1311   10.7982 C   0  0  1  0  0  0  0  0  0  0  0  0
   -6.6765   -4.8296   10.5189 N   0  0  0  0  0  0  0  0  0  0  0  0
   -7.4549   -6.9305    9.8322 N   0  0  0  0  0  0  0  0  0  0  0  0
   -7.7225   -8.2451   10.0599 C   0  0  2  0  0  0  0  0  0  0  0  0
   -7.4482   -8.7859   11.3030 C   0  0  1  0  0  0  0  0  0  0  0  0
   -6.8730   -7.9022   12.3489 C   0  0  0  0  0  0  0  0  0  0  0  0
   -6.6131   -8.3434   13.4908 O   0  0  0  0  0  0  0  0  0  0  0  0
   -7.8033  -10.0822   11.2740 N   0  0  0  0  0  0  0  0  0  0  0  0
   -8.2827  -10.3443   10.0357 C   0  0  0  0  0  0  0  0  0  0  0  0
   -8.2321   -9.2221    9.2951 N   0  0  1  0  0  0  0  0  0  0  0  0
  1  2  1  0  0  0  0
  3  1  1  1  0  0  0
  3  4  1  0  0  0  0
  3  5  1  0  0  0  0
  5  6  1  6  0  0  0
  5  7  1  0  0  0  0
  7  8  1  0  0  0  0
  8  4  1  1  0  0  0
  8 19  1  0  0  0  0
  9 15  1  0  0  0  0
  9 10  1  0  0  0  0
 10 11  1  6  0  0  0
 10 12  1  0  0  0  0
 13 12  1  6  0  0  0
 13 14  1  0  0  0  0
 13 19  1  0  0  0  0
 14 15  1  1  0  0  0
 14 17  1  0  0  0  0
 15 16  2  0  0  0  0
 17 18  1  0  0  0  0
 19 18  1  1  0  0  0
M  END
>  <CHROM.1>
178.99467764,-6.93311879,-8.61967350,-7.81785020,9.43116774,-3.04208096,0.88532467
3.04566792

>  <Name>
ligand

>  <RI>
0

>  <Rbt.Current_Directory>
/home/itssahil/PROJECTS/Mol_Feturizer/New_Systems/rnas/3SKI

>  <Rbt.Executable>
rbdock ($Id: //depot/dev/client3/rdock/2013.1/src/exe/rbdock.cxx#4 $)

>  <Rbt.Library>
libRbt.so (2013.1, Build901 2013/11/27)

>  <Rbt.Parameter_File>
/export/apps/rDock/src/rDock_2013.1_src/data/scripts/dock_solv.prm

>  <Rbt.Receptor>
prm/pocket_docking_5.prm

>  <SCORE>
-17.1406

>  <SCORE.INTER>
-14.1865

>  <SCORE.INTER.CONST>
1

>  <SCORE.INTER.POLAR>
0

>  <SCORE.INTER.ROT>
2

>  <SCORE.INTER.SOLV>
9.28646

>  <SCORE.INTER.VDW>
-17.4865

>  <SCORE.INTER.norm>
-0.746657

>  <SCORE.INTRA>
-2.95409

>  <SCORE.INTRA.DIHEDRAL>
-5.05543

>  <SCORE.INTRA.DIHEDRAL.0>
6.26853

>  <SCORE.INTRA.POLAR>
0

>  <SCORE.INTRA.POLAR.0>
0

>  <SCORE.INTRA.REPUL>
0

>  <SCORE.INTRA.REPUL.0>
0

>  <SCORE.INTRA.SOLV>
0.163033

>  <SCORE.INTRA.SOLV.lig_0>
-38.4926

>  <SCORE.INTRA.VDW>
-0.507887

>  <SCORE.INTRA.VDW.0>
-0.59057

>  <SCORE.INTRA.norm>
-0.155478

>  <SCORE.RESTR>
0

>  <SCORE.RESTR.CAVITY>
0

>  <SCORE.RESTR.norm>
0

>  <SCORE.SYSTEM>
0

>  <SCORE.SYSTEM.CONST>
0

>  <SCORE.SYSTEM.DIHEDRAL>
0

>  <SCORE.SYSTEM.SOLV>
0

>  <SCORE.SYSTEM.norm>
0

>  <SCORE.heavy>
19

>  <SCORE.norm>
-0.902135

>  <RMSD>
6.249

$$$$
ligand
 OpenBabel11021811483D
libRbt.so/2013.1/901 2013/11/27
 19 21  0  0  0  0  0  0  0  0999 V2000
  -10.8204   -6.2111    8.0336 C   0  0  0  0  0  0  0  0  0  0  0  0
   -9.9781   -5.0503    7.9755 O   0  0  0  0  0  0  0  0  0  0  0  0
  -10.2103   -7.3539    7.2189 C   0  0  1  0  0  0  0  0  0  0  0  0
   -8.8590   -7.6171    7.6430 O   0  0  0  0  0  0  0  0  0  0  0  0
  -10.9968   -8.6391    7.4068 C   0  0  1  0  0  0  0  0  0  0  0  0
  -11.8142   -8.9172    6.2630 O   0  0  0  0  0  0  0  0  0  0  0  0
   -9.9646   -9.7291    7.5981 C   0  0  0  0  0  0  0  0  0  0  0  0
   -8.6547   -9.0147    7.8971 C   0  0  2  0  0  0  0  0  0  0  0  0
   -6.6889   -6.7260   12.1972 N   0  0  0  0  0  0  0  0  0  0  0  0
   -6.9318   -6.2017   10.9658 C   0  0  1  0  0  0  0  0  0  0  0  0
   -6.6478   -4.8973   10.7380 N   0  0  0  0  0  0  0  0  0  0  0  0
   -7.4485   -6.9570    9.9586 N   0  0  0  0  0  0  0  0  0  0  0  0
   -7.7494   -8.2724   10.1338 C   0  0  2  0  0  0  0  0  0  0  0  0
   -7.5227   -8.8600   11.3652 C   0  0  1  0  0  0  0  0  0  0  0  0
   -6.9604   -8.0242   12.4565 C   0  0  0  0  0  0  0  0  0  0  0  0
   -6.7430   -8.5087   13.5896 O   0  0  0  0  0  0  0  0  0  0  0  0
   -7.9032  -10.1467   11.2822 N   0  0  0  0  0  0  0  0  0  0  0  0
   -8.3515  -10.3571   10.0225 C   0  0  0  0  0  0  0  0  0  0  0  0
   -8.2563   -9.2122    9.3221 N   0  0  1  0  0  0  0  0  0  0  0  0
  1  2  1  0  0  0  0
  3  1  1  1  0  0  0
  3  4  1  0  0  0  0
  3  5  1  0  0  0  0
  5  6  1  6  0  0  0
  5  7  1  0  0  0  0
  7  8  1  0  0  0  0
  8  4  1  1  0  0  0
  8 19  1  0  0  0  0
  9 15  1  0  0  0  0
  9 10  1  0  0  0  0
 10 11  1  6  0  0  0
 10 12  1  0  0  0  0
 13 12  1  6  0  0  0
 13 14  1  0  0  0  0
 13 19  1  0  0  0  0
 14 15  1  1  0  0  0
 14 17  1  0  0  0  0
 15 16  2  0  0  0  0
 17 18  1  0  0  0  0
 19 18  1  1  0  0  0
M  END
>  <CHROM.1>
54.10862754,-19.81007197,-8.60148376,-7.89859385,9.53023155,-3.06843010,0.92153296
2.98679047

>  <Name>
ligand

>  <RI>
0

>  <Rbt.Current_Directory>
/home/itssahil/PROJECTS/Mol_Feturizer/New_Systems/rnas/3SKI

>  <Rbt.Executable>
rbdock ($Id: //depot/dev/client3/rdock/2013.1/src/exe/rbdock.cxx#4 $)

>  <Rbt.Library>
libRbt.so (2013.1, Build901 2013/11/27)

>  <Rbt.Parameter_File>
/export/apps/rDock/src/rDock_2013.1_src/data/scripts/dock_solv.prm

>  <Rbt.Receptor>
prm/pocket_docking_6.prm

>  <SCORE>
-16.8955

>  <SCORE.INTER>
-13.9578

>  <SCORE.INTER.CONST>
1

>  <SCORE.INTER.POLAR>
0

>  <SCORE.INTER.ROT>
2

>  <SCORE.INTER.SOLV>
10.2073

>  <SCORE.INTER.VDW>
-17.641

>  <SCORE.INTER.norm>
-0.734622

>  <SCORE.INTRA>
-2.93772

>  <SCORE.INTRA.DIHEDRAL>
-4.92701

>  <SCORE.INTRA.DIHEDRAL.0>
6.26853

>  <SCORE.INTRA.POLAR>
0

>  <SCORE.INTRA.POLAR.0>
0

>  <SCORE.INTRA.REPUL>
0

>  <SCORE.INTRA.REPUL.0>
0

>  <SCORE.INTRA.SOLV>
-0.129078

>  <SCORE.INTRA.SOLV.lig_0>
-38.4926

>  <SCORE.INTRA.VDW>
-0.409675

>  <SCORE.INTRA.VDW.0>
-0.59057

>  <SCORE.INTRA.norm>
-0.154617

>  <SCORE.RESTR>
0

>  <SCORE.RESTR.CAVITY>
0

>  <SCORE.RESTR.norm>
0

>  <SCORE.SYSTEM>
0

>  <SCORE.SYSTEM.CONST>
0

>  <SCORE.SYSTEM.DIHEDRAL>
0

>  <SCORE.SYSTEM.SOLV>
0

>  <SCORE.SYSTEM.norm>
0

>  <SCORE.heavy>
19

>  <SCORE.norm>
-0.889239

>  <RMSD>
6.250

$$$$
ligand
 OpenBabel11021811483D
libRbt.so/2013.1/901 2013/11/27
 19 21  0  0  0  0  0  0  0  0999 V2000
  -11.0237   -6.3311    7.9265 C   0  0  0  0  0  0  0  0  0  0  0  0
  -10.2839   -5.1157    7.7382 O   0  0  0  0  0  0  0  0  0  0  0  0
  -10.3851   -7.4725    7.1320 C   0  0  1  0  0  0  0  0  0  0  0  0
   -9.0172   -7.6722    7.5369 O   0  0  0  0  0  0  0  0  0  0  0  0
  -11.1181   -8.7809    7.3705 C   0  0  1  0  0  0  0  0  0  0  0  0
  -11.9450   -9.1221    6.2509 O   0  0  0  0  0  0  0  0  0  0  0  0
  -10.0414   -9.8250    7.5719 C   0  0  0  0  0  0  0  0  0  0  0  0
   -8.7547   -9.0533    7.8256 C   0  0  2  0  0  0  0  0  0  0  0  0
   -6.7659   -6.5789   12.0107 N   0  0  0  0  0  0  0  0  0  0  0  0
   -7.0471   -6.1004   10.7689 C   0  0  1  0  0  0  0  0  0  0  0  0
   -6.8026   -4.7969   10.4947 N   0  0  0  0  0  0  0  0  0  0  0  0
   -7.5633   -6.9005    9.7966 N   0  0  0  0  0  0  0  0  0  0  0  0
   -7.8254   -8.2171   10.0189 C   0  0  2  0  0  0  0  0  0  0  0  0
   -7.5587   -8.7593   11.2631 C   0  0  1  0  0  0  0  0  0  0  0  0
   -6.9974   -7.8749   12.3159 C   0  0  0  0  0  0  0  0  0  0  0  0
   -6.7447   -8.3174   13.4589 O   0  0  0  0  0  0  0  0  0  0  0  0
   -7.9062  -10.0575   11.2281 N   0  0  0  0  0  0  0  0  0  0  0  0
   -8.3737  -10.3193    9.9850 C   0  0  0  0  0  0  0  0  0  0  0  0
   -8.3230   -9.1951    9.2475 N   0  0  1  0  0  0  0  0  0  0  0  0
  1  2  1  0  0  0  0
  3  1  1  1  0  0  0
  3  4  1  0  0  0  0
  3  5  1  0  0  0  0
  5  6  1  6  0  0  0
  5  7  1  0  0  0  0
  7  8  1  0  0  0  0
  8  4  1  1  0  0  0
  8 19  1  0  0  0  0
  9 15  1  0  0  0  0
  9 10  1  0  0  0  0
 10 11  1  6  0  0  0
 10 12  1  0  0  0  0
 13 12  1  6  0  0  0
 13 14  1  0  0  0  0
 13 19  1  0  0  0  0
 14 15  1  1  0  0  0
 14 17  1  0  0  0  0
 15 16  2  0  0  0  0
 17 18  1  0  0  0  0
 19 18  1  1  0  0  0
M  END
>  <CHROM.1>
58.46997996,-20.51823675,-8.70831747,-7.89085736,9.41773106,-3.12091901,0.90364361
3.00031409

>  <Name>
ligand

>  <RI>
0

>  <Rbt.Current_Directory>
/home/itssahil/PROJECTS/Mol_Feturizer/New_Systems/rnas/3SKI

>  <Rbt.Executable>
rbdock ($Id: //depot/dev/client3/rdock/2013.1/src/exe/rbdock.cxx#4 $)

>  <Rbt.Library>
libRbt.so (2013.1, Build901 2013/11/27)

>  <Rbt.Parameter_File>
/export/apps/rDock/src/rDock_2013.1_src/data/scripts/dock_solv.prm

>  <Rbt.Receptor>
prm/blind_docking_40.prm

>  <SCORE>
-16.8646

>  <SCORE.INTER>
-13.8732

>  <SCORE.INTER.CONST>
1

>  <SCORE.INTER.POLAR>
0

>  <SCORE.INTER.ROT>
2

>  <SCORE.INTER.SOLV>
9.79089

>  <SCORE.INTER.VDW>
-17.4458

>  <SCORE.INTER.norm>
-0.730168

>  <SCORE.INTRA>
-2.99144

>  <SCORE.INTRA.DIHEDRAL>
-5.04117

>  <SCORE.INTRA.DIHEDRAL.0>
6.26853

>  <SCORE.INTRA.POLAR>
0

>  <SCORE.INTRA.POLAR.0>
0

>  <SCORE.INTRA.REPUL>
0

>  <SCORE.INTRA.REPUL.0>
0

>  <SCORE.INTRA.SOLV>
-0.160528

>  <SCORE.INTRA.SOLV.lig_0>
-38.4926

>  <SCORE.INTRA.VDW>
-0.39059

>  <SCORE.INTRA.VDW.0>
-0.59057

>  <SCORE.INTRA.norm>
-0.157444

>  <SCORE.RESTR>
0

>  <SCORE.RESTR.CAVITY>
0

>  <SCORE.RESTR.norm>
0

>  <SCORE.SYSTEM>
0

>  <SCORE.SYSTEM.CONST>
0

>  <SCORE.SYSTEM.DIHEDRAL>
0

>  <SCORE.SYSTEM.SOLV>
0

>  <SCORE.SYSTEM.norm>
0

>  <SCORE.heavy>
19

>  <SCORE.norm>
-0.887612

>  <RMSD>
6.251

$$$$
ligand
 OpenBabel11021811483D
libRbt.so/2013.1/901 2013/11/27
 19 21  0  0  0  0  0  0  0  0999 V2000
  -10.2465   -5.9307    7.8325 C   0  0  0  0  0  0  0  0  0  0  0  0
  -11.5135   -5.4252    7.3861 O   0  0  0  0  0  0  0  0  0  0  0  0
   -9.9102   -7.2382    7.1119 C   0  0  1  0  0  0  0  0  0  0  0  0
   -8.6087   -7.7155    7.5032 O   0  0  0  0  0  0  0  0  0  0  0  0
  -10.9098   -8.3268    7.4609 C   0  0  1  0  0  0  0  0  0  0  0  0
  -11.8320   -8.5460    6.3863 O   0  0  0  0  0  0  0  0  0  0  0  0
  -10.0891   -9.5721    7.7174 C   0  0  0  0  0  0  0  0  0  0  0  0
   -8.6535   -9.0974    7.8878 C   0  0  2  0  0  0  0  0  0  0  0  0
   -6.6125   -6.6248   12.0488 N   0  0  0  0  0  0  0  0  0  0  0  0
   -6.8973   -6.1489   10.8068 C   0  0  1  0  0  0  0  0  0  0  0  0
   -6.6417   -4.8491   10.5253 N   0  0  0  0  0  0  0  0  0  0  0  0
   -7.4278   -6.9480    9.8414 N   0  0  0  0  0  0  0  0  0  0  0  0
   -7.7014   -8.2610   10.0712 C   0  0  2  0  0  0  0  0  0  0  0  0
   -7.4318   -8.8004   11.3160 C   0  0  1  0  0  0  0  0  0  0  0  0
   -6.8548   -7.9170   12.3612 C   0  0  0  0  0  0  0  0  0  0  0  0
   -6.5989   -8.3570   13.5044 O   0  0  0  0  0  0  0  0  0  0  0  0
   -7.7923  -10.0952   11.2890 N   0  0  0  0  0  0  0  0  0  0  0  0
   -8.2706  -10.3578   10.0502 C   0  0  0  0  0  0  0  0  0  0  0  0
   -8.2138   -9.2373    9.3075 N   0  0  1  0  0  0  0  0  0  0  0  0
  1  2  1  0  0  0  0
  3  1  1  1  0  0  0
  3  4  1  0  0  0  0
  3  5  1  0  0  0  0
  5  6  1  6  0  0  0
  5  7  1  0  0  0  0
  7  8  1  0  0  0  0
  8  4  1  1  0  0  0
  8 19  1  0  0  0  0
  9 15  1  0  0  0  0
  9 10  1  0  0  0  0
 10 11  1  6  0  0  0
 10 12  1  0  0  0  0
 13 12  1  6  0  0  0
 13 14  1  0  0  0  0
 13 19  1  0  0  0  0
 14 15  1  1  0  0  0
 14 17  1  0  0  0  0
 15 16  2  0  0  0  0
 17 18  1  0  0  0  0
 19 18  1  1  0  0  0
M  END
>  <CHROM.1>
177.01339717,-7.37308343,-8.59867145,-7.83434370,9.43877377,-3.03662429,0.88615199
3.03842938

>  <Name>
ligand

>  <RI>
0

>  <Rbt.Current_Directory>
/home/itssahil/PROJECTS/Mol_Feturizer/New_Systems/rnas/3SKI

>  <Rbt.Executable>
rbdock ($Id: //depot/dev/client3/rdock/2013.1/src/exe/rbdock.cxx#4 $)

>  <Rbt.Library>
libRbt.so (2013.1, Build901 2013/11/27)

>  <Rbt.Parameter_File>
/export/apps/rDock/src/rDock_2013.1_src/data/scripts/dock_solv.prm

>  <Rbt.Receptor>
prm/pocket_docking_5.prm

>  <SCORE>
-17.1332

>  <SCORE.INTER>
-14.1879

>  <SCORE.INTER.CONST>
1

>  <SCORE.INTER.POLAR>
0

>  <SCORE.INTER.ROT>
2

>  <SCORE.INTER.SOLV>
9.38776

>  <SCORE.INTER.VDW>
-17.5212

>  <SCORE.INTER.norm>
-0.746731

>  <SCORE.INTRA>
-2.94535

>  <SCORE.INTRA.DIHEDRAL>
-5.02721

>  <SCORE.INTRA.DIHEDRAL.0>
6.26853

>  <SCORE.INTRA.POLAR>
0

>  <SCORE.INTRA.POLAR.0>
0

>  <SCORE.INTRA.REPUL>
0

>  <SCORE.INTRA.REPUL.0>
0

>  <SCORE.INTRA.SOLV>
0.132989

>  <SCORE.INTRA.SOLV.lig_0>
-38.4926

>  <SCORE.INTRA.VDW>
-0.498238

>  <SCORE.INTRA.VDW.0>
-0.59057

>  <SCORE.INTRA.norm>
-0.155018

>  <SCORE.RESTR>
0

>  <SCORE.RESTR.CAVITY>
0

>  <SCORE.RESTR.norm>
0

>  <SCORE.SYSTEM>
0

>  <SCORE.SYSTEM.CONST>
0

>  <SCORE.SYSTEM.DIHEDRAL>
0

>  <SCORE.SYSTEM.SOLV>
0

>  <SCORE.SYSTEM.norm>
0

>  <SCORE.heavy>
19

>  <SCORE.norm>
-0.90175

>  <RMSD>
6.254

$$$$
ligand
 OpenBabel11021811483D
libRbt.so/2013.1/901 2013/11/27
 19 21  0  0  0  0  0  0  0  0999 V2000
  -10.4046   -5.9832    8.0207 C   0  0  0  0  0  0  0  0  0  0  0  0
  -11.7043   -5.5444    7.5981 O   0  0  0  0  0  0  0  0  0  0  0  0
   -9.9867   -7.2353    7.2463 C   0  0  1  0  0  0  0  0  0  0  0  0
   -8.6615   -7.6515    7.6278 O   0  0  0  0  0  0  0  0  0  0  0  0
  -10.9219   -8.3955    7.5384 C   0  0  1  0  0  0  0  0  0  0  0  0
  -11.8228   -8.6210    6.4471 O   0  0  0  0  0  0  0  0  0  0  0  0
  -10.0302   -9.6002    7.7472 C   0  0  0  0  0  0  0  0  0  0  0  0
   -8.6264   -9.0494    7.9509 C   0  0  2  0  0  0  0  0  0  0  0  0
   -6.6109   -6.6796   12.1835 N   0  0  0  0  0  0  0  0  0  0  0  0
   -6.8972   -6.1711   10.9548 C   0  0  1  0  0  0  0  0  0  0  0  0
   -6.6510   -4.8620   10.7105 N   0  0  0  0  0  0  0  0  0  0  0  0
   -7.4201   -6.9467    9.9664 N   0  0  0  0  0  0  0  0  0  0  0  0
   -7.6842   -8.2676   10.1587 C   0  0  2  0  0  0  0  0  0  0  0  0
   -7.4125   -8.8398   11.3883 C   0  0  1  0  0  0  0  0  0  0  0  0
   -6.8439   -7.9819   12.4590 C   0  0  0  0  0  0  0  0  0  0  0  0
   -6.5865   -8.4520   13.5899 O   0  0  0  0  0  0  0  0  0  0  0  0
   -7.7632  -10.1360   11.3242 N   0  0  0  0  0  0  0  0  0  0  0  0
   -8.2375  -10.3672   10.0777 C   0  0  0  0  0  0  0  0  0  0  0  0
   -8.1879   -9.2259    9.3669 N   0  0  1  0  0  0  0  0  0  0  0  0
  1  2  1  0  0  0  0
  3  1  1  1  0  0  0
  3  4  1  0  0  0  0
  3  5  1  0  0  0  0
  5  6  1  6  0  0  0
  5  7  1  0  0  0  0
  7  8  1  0  0  0  0
  8  4  1  1  0  0  0
  8 19  1  0  0  0  0
  9 15  1  0  0  0  0
  9 10  1  0  0  0  0
 10 11  1  6  0  0  0
 10 12  1  0  0  0  0
 13 12  1  6  0  0  0
 13 14  1  0  0  0  0
 13 19  1  0  0  0  0
 14 15  1  1  0  0  0
 14 17  1  0  0  0  0
 15 16  2  0  0  0  0
 17 18  1  0  0  0  0
 19 18  1  1  0  0  0
M  END
>  <CHROM.1>
177.76400270,-10.50109503,-8.61401056,-7.86505910,9.54261448,-3.08734021
0.87744494,3.09705061

>  <Name>
ligand

>  <RI>
0

>  <Rbt.Current_Directory>
/home/itssahil/PROJECTS/Mol_Feturizer/New_Systems/rnas/3SKI

>  <Rbt.Executable>
rbdock ($Id: //depot/dev/client3/rdock/2013.1/src/exe/rbdock.cxx#4 $)

>  <Rbt.Library>
libRbt.so (2013.1, Build901 2013/11/27)

>  <Rbt.Parameter_File>
/export/apps/rDock/src/rDock_2013.1_src/data/scripts/dock_solv.prm

>  <Rbt.Receptor>
prm/pocket_docking_5.prm

>  <SCORE>
-17.138

>  <SCORE.INTER>
-14.21

>  <SCORE.INTER.CONST>
1

>  <SCORE.INTER.POLAR>
0

>  <SCORE.INTER.ROT>
2

>  <SCORE.INTER.SOLV>
9.333

>  <SCORE.INTER.VDW>
-17.5177

>  <SCORE.INTER.norm>
-0.747896

>  <SCORE.INTRA>
-2.93204

>  <SCORE.INTRA.DIHEDRAL>
-5.03837

>  <SCORE.INTRA.DIHEDRAL.0>
6.26853

>  <SCORE.INTRA.POLAR>
0

>  <SCORE.INTRA.POLAR.0>
0

>  <SCORE.INTRA.REPUL>
0

>  <SCORE.INTRA.REPUL.0>
0

>  <SCORE.INTRA.SOLV>
0.050415

>  <SCORE.INTRA.SOLV.lig_0>
-38.4926

>  <SCORE.INTRA.VDW>
-0.43806

>  <SCORE.INTRA.VDW.0>
-0.59057

>  <SCORE.INTRA.norm>
-0.154318

>  <SCORE.RESTR>
0.00401379

>  <SCORE.RESTR.CAVITY>
0.00401379

>  <SCORE.RESTR.norm>
0.000211252

>  <SCORE.SYSTEM>
0

>  <SCORE.SYSTEM.CONST>
0

>  <SCORE.SYSTEM.DIHEDRAL>
0

>  <SCORE.SYSTEM.SOLV>
0

>  <SCORE.SYSTEM.norm>
0

>  <SCORE.heavy>
19

>  <SCORE.norm>
-0.902002

>  <RMSD>
6.262

$$$$
ligand
 OpenBabel11021811483D
libRbt.so/2013.1/901 2013/11/27
 19 21  0  0  0  0  0  0  0  0999 V2000
  -10.3674   -5.9577    7.9778 C   0  0  0  0  0  0  0  0  0  0  0  0
  -11.6433   -5.4871    7.5187 O   0  0  0  0  0  0  0  0  0  0  0  0
   -9.9567   -7.2175    7.2121 C   0  0  1  0  0  0  0  0  0  0  0  0
   -8.6387   -7.6457    7.6053 O   0  0  0  0  0  0  0  0  0  0  0  0
  -10.9059   -8.3667    7.5023 C   0  0  1  0  0  0  0  0  0  0  0  0
  -11.8010   -8.5878    6.4053 O   0  0  0  0  0  0  0  0  0  0  0  0
  -10.0283   -9.5796    7.7230 C   0  0  0  0  0  0  0  0  0  0  0  0
   -8.6205   -9.0424    7.9348 C   0  0  2  0  0  0  0  0  0  0  0  0
   -6.6166   -6.6734   12.1734 N   0  0  0  0  0  0  0  0  0  0  0  0
   -6.8891   -6.1673   10.9406 C   0  0  1  0  0  0  0  0  0  0  0  0
   -6.6295   -4.8614   10.6930 N   0  0  0  0  0  0  0  0  0  0  0  0
   -7.4112   -6.9423    9.9512 N   0  0  0  0  0  0  0  0  0  0  0  0
   -7.6883   -8.2600   10.1467 C   0  0  2  0  0  0  0  0  0  0  0  0
   -7.4310   -8.8296   11.3806 C   0  0  1  0  0  0  0  0  0  0  0  0
   -6.8631   -7.9725   12.4522 C   0  0  0  0  0  0  0  0  0  0  0  0
   -6.6185   -8.4402   13.5869 O   0  0  0  0  0  0  0  0  0  0  0  0
   -7.7926  -10.1230   11.3189 N   0  0  0  0  0  0  0  0  0  0  0  0
   -8.2594  -10.3550   10.0697 C   0  0  0  0  0  0  0  0  0  0  0  0
   -8.1944   -9.2170    9.3548 N   0  0  1  0  0  0  0  0  0  0  0  0
  1  2  1  0  0  0  0
  3  1  1  1  0  0  0
  3  4  1  0  0  0  0
  3  5  1  0  0  0  0
  5  6  1  6  0  0  0
  5  7  1  0  0  0  0
  7  8  1  0  0  0  0
  8  4  1  1  0  0  0
  8 19  1  0  0  0  0
  9 15  1  0  0  0  0
  9 10  1  0  0  0  0
 10 11  1  6  0  0  0
 10 12  1  0  0  0  0
 13 12  1  6  0  0  0
 13 14  1  0  0  0  0
 13 19  1  0  0  0  0
 14 15  1  1  0  0  0
 14 17  1  0  0  0  0
 15 16  2  0  0  0  0
 17 18  1  0  0  0  0
 19 18  1  1  0  0  0
M  END
>  <CHROM.1>
176.23934311,-10.40636267,-8.60797100,-7.84951258,9.52025445,-3.06905559
0.88566509,3.07946861

>  <Name>
ligand

>  <RI>
0

>  <Rbt.Current_Directory>
/home/itssahil/PROJECTS/Mol_Feturizer/New_Systems/rnas/3SKI

>  <Rbt.Executable>
rbdock ($Id: //depot/dev/client3/rdock/2013.1/src/exe/rbdock.cxx#4 $)

>  <Rbt.Library>
libRbt.so (2013.1, Build901 2013/11/27)

>  <Rbt.Parameter_File>
/export/apps/rDock/src/rDock_2013.1_src/data/scripts/dock_solv.prm

>  <Rbt.Receptor>
prm/pocket_docking_5.prm

>  <SCORE>
-17.0409

>  <SCORE.INTER>
-14.1083

>  <SCORE.INTER.CONST>
1

>  <SCORE.INTER.POLAR>
0

>  <SCORE.INTER.ROT>
2

>  <SCORE.INTER.SOLV>
9.47106

>  <SCORE.INTER.VDW>
-17.4959

>  <SCORE.INTER.norm>
-0.742542

>  <SCORE.INTRA>
-2.93258

>  <SCORE.INTRA.DIHEDRAL>
-5.00608

>  <SCORE.INTRA.DIHEDRAL.0>
6.26853

>  <SCORE.INTRA.POLAR>
0

>  <SCORE.INTRA.POLAR.0>
0

>  <SCORE.INTRA.REPUL>
0

>  <SCORE.INTRA.REPUL.0>
0

>  <SCORE.INTRA.SOLV>
0.0428565

>  <SCORE.INTRA.SOLV.lig_0>
-38.4926

>  <SCORE.INTRA.VDW>
-0.450965

>  <SCORE.INTRA.VDW.0>
-0.59057

>  <SCORE.INTRA.norm>
-0.154346

>  <SCORE.RESTR>
0

>  <SCORE.RESTR.CAVITY>
0

>  <SCORE.RESTR.norm>
0

>  <SCORE.SYSTEM>
0

>  <SCORE.SYSTEM.CONST>
0

>  <SCORE.SYSTEM.DIHEDRAL>
0

>  <SCORE.SYSTEM.SOLV>
0

>  <SCORE.SYSTEM.norm>
0

>  <SCORE.heavy>
19

>  <SCORE.norm>
-0.896888

>  <RMSD>
6.262

$$$$
ligand
 OpenBabel11021811483D
libRbt.so/2013.1/901 2013/11/27
 19 21  0  0  0  0  0  0  0  0999 V2000
  -10.2668   -5.9215    7.8224 C   0  0  0  0  0  0  0  0  0  0  0  0
  -11.5503   -5.4275    7.4115 O   0  0  0  0  0  0  0  0  0  0  0  0
   -9.9450   -7.2333    7.1031 C   0  0  1  0  0  0  0  0  0  0  0  0
   -8.6449   -7.7197    7.4877 O   0  0  0  0  0  0  0  0  0  0  0  0
  -10.9508   -8.3132    7.4609 C   0  0  1  0  0  0  0  0  0  0  0  0
  -11.8813   -8.5279    6.3923 O   0  0  0  0  0  0  0  0  0  0  0  0
  -10.1384   -9.5643    7.7155 C   0  0  0  0  0  0  0  0  0  0  0  0
   -8.6981   -9.1003    7.8760 C   0  0  2  0  0  0  0  0  0  0  0  0
   -6.6344   -6.6278   12.0258 N   0  0  0  0  0  0  0  0  0  0  0  0
   -6.9256   -6.1519   10.7853 C   0  0  1  0  0  0  0  0  0  0  0  0
   -6.6712   -4.8522   10.5023 N   0  0  0  0  0  0  0  0  0  0  0  0
   -7.4614   -6.9510    9.8228 N   0  0  0  0  0  0  0  0  0  0  0  0
   -7.7342   -8.2639   10.0542 C   0  0  2  0  0  0  0  0  0  0  0  0
   -7.4581   -8.8032   11.2976 C   0  0  1  0  0  0  0  0  0  0  0  0
   -6.8753   -7.9199   12.3396 C   0  0  0  0  0  0  0  0  0  0  0  0
   -6.6135   -8.3598   13.4815 O   0  0  0  0  0  0  0  0  0  0  0  0
   -7.8191  -10.0979   11.2727 N   0  0  0  0  0  0  0  0  0  0  0  0
   -8.3040  -10.3605   10.0365 C   0  0  0  0  0  0  0  0  0  0  0  0
   -8.2508   -9.2402    9.2933 N   0  0  1  0  0  0  0  0  0  0  0  0
  1  2  1  0  0  0  0
  3  1  1  1  0  0  0
  3  4  1  0  0  0  0
  3  5  1  0  0  0  0
  5  6  1  6  0  0  0
  5  7  1  0  0  0  0
  7  8  1  0  0  0  0
  8  4  1  1  0  0  0
  8 19  1  0  0  0  0
  9 15  1  0  0  0  0
  9 10  1  0  0  0  0
 10 11  1  6  0  0  0
 10 12  1  0  0  0  0
 13 12  1  6  0  0  0
 13 14  1  0  0  0  0
 13 19  1  0  0  0  0
 14 15  1  1  0  0  0
 14 17  1  0  0  0  0
 15 16  2  0  0  0  0
 17 18  1  0  0  0  0
 19 18  1  1  0  0  0
M  END
>  <CHROM.1>
178.69938121,-6.92129904,-8.63126188,-7.83356967,9.42733676,-3.03478331,0.88163502
3.03792598

>  <Name>
ligand

>  <RI>
0

>  <Rbt.Current_Directory>
/home/itssahil/PROJECTS/Mol_Feturizer/New_Systems/rnas/3SKI

>  <Rbt.Executable>
rbdock ($Id: //depot/dev/client3/rdock/2013.1/src/exe/rbdock.cxx#4 $)

>  <Rbt.Library>
libRbt.so (2013.1, Build901 2013/11/27)

>  <Rbt.Parameter_File>
/export/apps/rDock/src/rDock_2013.1_src/data/scripts/dock_solv.prm

>  <Rbt.Receptor>
prm/pocket_docking_5.prm

>  <SCORE>
-17.13

>  <SCORE.INTER>
-14.1739

>  <SCORE.INTER.CONST>
1

>  <SCORE.INTER.POLAR>
0

>  <SCORE.INTER.ROT>
2

>  <SCORE.INTER.SOLV>
9.25357

>  <SCORE.INTER.VDW>
-17.4671

>  <SCORE.INTER.norm>
-0.745996

>  <SCORE.INTRA>
-2.95606

>  <SCORE.INTRA.DIHEDRAL>
-5.05309

>  <SCORE.INTRA.DIHEDRAL.0>
6.26853

>  <SCORE.INTRA.POLAR>
0

>  <SCORE.INTRA.POLAR.0>
0

>  <SCORE.INTRA.REPUL>
0

>  <SCORE.INTRA.REPUL.0>
0

>  <SCORE.INTRA.SOLV>
0.162114

>  <SCORE.INTRA.SOLV.lig_0>
-38.4926

>  <SCORE.INTRA.VDW>
-0.510575

>  <SCORE.INTRA.VDW.0>
-0.59057

>  <SCORE.INTRA.norm>
-0.155582

>  <SCORE.RESTR>
0

>  <SCORE.RESTR.CAVITY>
0

>  <SCORE.RESTR.norm>
0

>  <SCORE.SYSTEM>
0

>  <SCORE.SYSTEM.CONST>
0

>  <SCORE.SYSTEM.DIHEDRAL>
0

>  <SCORE.SYSTEM.SOLV>
0

>  <SCORE.SYSTEM.norm>
0

>  <SCORE.heavy>
19

>  <SCORE.norm>
-0.901578

>  <RMSD>
6.265

$$$$
ligand
 OpenBabel11021811483D
libRbt.so/2013.1/901 2013/11/27
 19 21  0  0  0  0  0  0  0  0999 V2000
  -10.2531   -5.9177    7.8208 C   0  0  0  0  0  0  0  0  0  0  0  0
  -11.5217   -5.4080    7.3836 O   0  0  0  0  0  0  0  0  0  0  0  0
   -9.9305   -7.2309    7.1044 C   0  0  1  0  0  0  0  0  0  0  0  0
   -8.6329   -7.7191    7.4954 O   0  0  0  0  0  0  0  0  0  0  0  0
  -10.9398   -8.3086    7.4588 C   0  0  1  0  0  0  0  0  0  0  0  0
  -11.8657   -8.5228    6.3862 O   0  0  0  0  0  0  0  0  0  0  0  0
  -10.1307   -9.5608    7.7184 C   0  0  0  0  0  0  0  0  0  0  0  0
   -8.6903   -9.0992    7.8850 C   0  0  2  0  0  0  0  0  0  0  0  0
   -6.6420   -6.6255   12.0417 N   0  0  0  0  0  0  0  0  0  0  0  0
   -6.9268   -6.1505   10.7994 C   0  0  1  0  0  0  0  0  0  0  0  0
   -6.6692   -4.8515   10.5163 N   0  0  0  0  0  0  0  0  0  0  0  0
   -7.4594   -6.9498    9.8353 N   0  0  0  0  0  0  0  0  0  0  0  0
   -7.7351   -8.2620   10.0667 C   0  0  2  0  0  0  0  0  0  0  0  0
   -7.4655   -8.8005   11.3120 C   0  0  1  0  0  0  0  0  0  0  0  0
   -6.8862   -7.9170   12.3557 C   0  0  0  0  0  0  0  0  0  0  0  0
   -6.6303   -8.3562   13.4993 O   0  0  0  0  0  0  0  0  0  0  0  0
   -7.8283  -10.0947   11.2866 N   0  0  0  0  0  0  0  0  0  0  0  0
   -8.3080  -10.3579   10.0485 C   0  0  0  0  0  0  0  0  0  0  0  0
   -8.2498   -9.2383    9.3045 N   0  0  1  0  0  0  0  0  0  0  0  0
  1  2  1  0  0  0  0
  3  1  1  1  0  0  0
  3  4  1  0  0  0  0
  3  5  1  0  0  0  0
  5  6  1  6  0  0  0
  5  7  1  0  0  0  0
  7  8  1  0  0  0  0
  8  4  1  1  0  0  0
  8 19  1  0  0  0  0
  9 15  1  0  0  0  0
  9 10  1  0  0  0  0
 10 11  1  6  0  0  0
 10 12  1  0  0  0  0
 13 12  1  6  0  0  0
 13 14  1  0  0  0  0
 13 19  1  0  0  0  0
 14 15  1  1  0  0  0
 14 17  1  0  0  0  0
 15 16  2  0  0  0  0
 17 18  1  0  0  0  0
 19 18  1  1  0  0  0
M  END
>  <CHROM.1>
177.54104986,-6.90308374,-8.62781755,-7.82997796,9.43408828,-3.02927095,0.88659318
3.03282613

>  <Name>
ligand

>  <RI>
0

>  <Rbt.Current_Directory>
/home/itssahil/PROJECTS/Mol_Feturizer/New_Systems/rnas/3SKI

>  <Rbt.Executable>
rbdock ($Id: //depot/dev/client3/rdock/2013.1/src/exe/rbdock.cxx#4 $)

>  <Rbt.Library>
libRbt.so (2013.1, Build901 2013/11/27)

>  <Rbt.Parameter_File>
/export/apps/rDock/src/rDock_2013.1_src/data/scripts/dock_solv.prm

>  <Rbt.Receptor>
prm/pocket_docking_5.prm

>  <SCORE>
-17.1353

>  <SCORE.INTER>
-14.1748

>  <SCORE.INTER.CONST>
1

>  <SCORE.INTER.POLAR>
0

>  <SCORE.INTER.ROT>
2

>  <SCORE.INTER.SOLV>
9.31127

>  <SCORE.INTER.VDW>
-17.487

>  <SCORE.INTER.norm>
-0.746044

>  <SCORE.INTRA>
-2.96046

>  <SCORE.INTRA.DIHEDRAL>
-5.0378

>  <SCORE.INTRA.DIHEDRAL.0>
6.26853

>  <SCORE.INTRA.POLAR>
0

>  <SCORE.INTRA.POLAR.0>
0

>  <SCORE.INTRA.REPUL>
0

>  <SCORE.INTRA.REPUL.0>
0

>  <SCORE.INTRA.SOLV>
0.157191

>  <SCORE.INTRA.SOLV.lig_0>
-38.4926

>  <SCORE.INTRA.VDW>
-0.520155

>  <SCORE.INTRA.VDW.0>
-0.59057

>  <SCORE.INTRA.norm>
-0.155814

>  <SCORE.RESTR>
0

>  <SCORE.RESTR.CAVITY>
0

>  <SCORE.RESTR.norm>
0

>  <SCORE.SYSTEM>
0

>  <SCORE.SYSTEM.CONST>
0

>  <SCORE.SYSTEM.DIHEDRAL>
0

>  <SCORE.SYSTEM.SOLV>
0

>  <SCORE.SYSTEM.norm>
0

>  <SCORE.heavy>
19

>  <SCORE.norm>
-0.901858

>  <RMSD>
6.265

$$$$
ligand
 OpenBabel11021811483D
libRbt.so/2013.1/901 2013/11/27
 19 21  0  0  0  0  0  0  0  0999 V2000
  -10.9081   -6.2786    7.9470 C   0  0  0  0  0  0  0  0  0  0  0  0
  -10.0912   -5.1034    7.8385 O   0  0  0  0  0  0  0  0  0  0  0  0
  -10.2939   -7.4305    7.1486 C   0  0  1  0  0  0  0  0  0  0  0  0
   -8.9362   -7.6720    7.5649 O   0  0  0  0  0  0  0  0  0  0  0  0
  -11.0655   -8.7198    7.3684 C   0  0  1  0  0  0  0  0  0  0  0  0
  -11.8905   -9.0279    6.2379 O   0  0  0  0  0  0  0  0  0  0  0  0
  -10.0205   -9.7954    7.5708 C   0  0  0  0  0  0  0  0  0  0  0  0
   -8.7153   -9.0623    7.8437 C   0  0  2  0  0  0  0  0  0  0  0  0
   -6.7029   -6.6801   12.0708 N   0  0  0  0  0  0  0  0  0  0  0  0
   -6.9587   -6.1830   10.8308 C   0  0  1  0  0  0  0  0  0  0  0  0
   -6.6766   -4.8842   10.5712 N   0  0  0  0  0  0  0  0  0  0  0  0
   -7.4864   -6.9602    9.8461 N   0  0  0  0  0  0  0  0  0  0  0  0
   -7.7859   -8.2712   10.0536 C   0  0  2  0  0  0  0  0  0  0  0  0
   -7.5462   -8.8315   11.2953 C   0  0  1  0  0  0  0  0  0  0  0  0
   -6.9720   -7.9721   12.3617 C   0  0  0  0  0  0  0  0  0  0  0  0
   -6.7427   -8.4315   13.5030 O   0  0  0  0  0  0  0  0  0  0  0  0
   -7.9280  -10.1196   11.2448 N   0  0  0  0  0  0  0  0  0  0  0  0
   -8.3899  -10.3576    9.9949 C   0  0  0  0  0  0  0  0  0  0  0  0
   -8.3018   -9.2285    9.2685 N   0  0  1  0  0  0  0  0  0  0  0  0
  1  2  1  0  0  0  0
  3  1  1  1  0  0  0
  3  4  1  0  0  0  0
  3  5  1  0  0  0  0
  5  6  1  6  0  0  0
  5  7  1  0  0  0  0
  7  8  1  0  0  0  0
  8  4  1  1  0  0  0
  8 19  1  0  0  0  0
  9 15  1  0  0  0  0
  9 10  1  0  0  0  0
 10 11  1  6  0  0  0
 10 12  1  0  0  0  0
 13 12  1  6  0  0  0
 13 14  1  0  0  0  0
 13 19  1  0  0  0  0
 14 15  1  1  0  0  0
 14 17  1  0  0  0  0
 15 16  2  0  0  0  0
 17 18  1  0  0  0  0
 19 18  1  1  0  0  0
M  END
>  <CHROM.1>
55.18155685,-20.44683802,-8.65051355,-7.91648317,9.45064686,-3.07821189,0.90967815
2.97269882

>  <Name>
ligand

>  <RI>
0

>  <Rbt.Current_Directory>
/home/itssahil/PROJECTS/Mol_Feturizer/New_Systems/rnas/3SKI

>  <Rbt.Executable>
rbdock ($Id: //depot/dev/client3/rdock/2013.1/src/exe/rbdock.cxx#4 $)

>  <Rbt.Library>
libRbt.so (2013.1, Build901 2013/11/27)

>  <Rbt.Parameter_File>
/export/apps/rDock/src/rDock_2013.1_src/data/scripts/dock_solv.prm

>  <Rbt.Receptor>
prm/blind_docking_40.prm

>  <SCORE>
-16.9003

>  <SCORE.INTER>
-13.9519

>  <SCORE.INTER.CONST>
1

>  <SCORE.INTER.POLAR>
0

>  <SCORE.INTER.ROT>
2

>  <SCORE.INTER.SOLV>
9.96982

>  <SCORE.INTER.VDW>
-17.5579

>  <SCORE.INTER.norm>
-0.734309

>  <SCORE.INTRA>
-2.94845

>  <SCORE.INTRA.DIHEDRAL>
-4.96733

>  <SCORE.INTRA.DIHEDRAL.0>
6.26853

>  <SCORE.INTRA.POLAR>
0

>  <SCORE.INTRA.POLAR.0>
0

>  <SCORE.INTRA.REPUL>
0

>  <SCORE.INTRA.REPUL.0>
0

>  <SCORE.INTRA.SOLV>
-0.13871

>  <SCORE.INTRA.SOLV.lig_0>
-38.4926

>  <SCORE.INTRA.VDW>
-0.39543

>  <SCORE.INTRA.VDW.0>
-0.59057

>  <SCORE.INTRA.norm>
-0.155182

>  <SCORE.RESTR>
0

>  <SCORE.RESTR.CAVITY>
0

>  <SCORE.RESTR.norm>
0

>  <SCORE.SYSTEM>
0

>  <SCORE.SYSTEM.CONST>
0

>  <SCORE.SYSTEM.DIHEDRAL>
0

>  <SCORE.SYSTEM.SOLV>
0

>  <SCORE.SYSTEM.norm>
0

>  <SCORE.heavy>
19

>  <SCORE.norm>
-0.88949

>  <RMSD>
6.268

$$$$
ligand
 OpenBabel11021811483D
libRbt.so/2013.1/901 2013/11/27
 19 21  0  0  0  0  0  0  0  0999 V2000
  -10.7184   -6.1146    7.8006 C   0  0  0  0  0  0  0  0  0  0  0  0
  -12.0369   -5.7649    7.3537 O   0  0  0  0  0  0  0  0  0  0  0  0
  -10.2164   -7.3564    7.0605 C   0  0  1  0  0  0  0  0  0  0  0  0
   -8.8676   -7.6737    7.4544 O   0  0  0  0  0  0  0  0  0  0  0  0
  -11.0735   -8.5678    7.3826 C   0  0  1  0  0  0  0  0  0  0  0  0
  -11.9545   -8.8815    6.2968 O   0  0  0  0  0  0  0  0  0  0  0  0
  -10.1047   -9.7048    7.6245 C   0  0  0  0  0  0  0  0  0  0  0  0
   -8.7410   -9.0570    7.8149 C   0  0  2  0  0  0  0  0  0  0  0  0
   -6.7504   -6.4783   11.9357 N   0  0  0  0  0  0  0  0  0  0  0  0
   -7.0481   -6.0270   10.6875 C   0  0  1  0  0  0  0  0  0  0  0  0
   -6.8229   -4.7260   10.3868 N   0  0  0  0  0  0  0  0  0  0  0  0
   -7.5617   -6.8521    9.7348 N   0  0  0  0  0  0  0  0  0  0  0  0
   -7.8047   -8.1675    9.9841 C   0  0  2  0  0  0  0  0  0  0  0  0
   -7.5207   -8.6825   11.2360 C   0  0  1  0  0  0  0  0  0  0  0  0
   -6.9624   -7.7711   12.2672 C   0  0  0  0  0  0  0  0  0  0  0  0
   -6.6946   -8.1886   13.4161 O   0  0  0  0  0  0  0  0  0  0  0  0
   -7.8514   -9.9855   11.2283 N   0  0  0  0  0  0  0  0  0  0  0  0
   -8.3256  -10.2769    9.9945 C   0  0  0  0  0  0  0  0  0  0  0  0
   -8.2958   -9.1663    9.2355 N   0  0  1  0  0  0  0  0  0  0  0  0
  1  2  1  0  0  0  0
  3  1  1  1  0  0  0
  3  4  1  0  0  0  0
  3  5  1  0  0  0  0
  5  6  1  6  0  0  0
  5  7  1  0  0  0  0
  7  8  1  0  0  0  0
  8  4  1  1  0  0  0
  8 19  1  0  0  0  0
  9 15  1  0  0  0  0
  9 10  1  0  0  0  0
 10 11  1  6  0  0  0
 10 12  1  0  0  0  0
 13 12  1  6  0  0  0
 13 14  1  0  0  0  0
 13 19  1  0  0  0  0
 14 15  1  1  0  0  0
 14 17  1  0  0  0  0
 15 16  2  0  0  0  0
 17 18  1  0  0  0  0
 19 18  1  1  0  0  0
M  END
>  <CHROM.1>
177.08594982,-13.56487644,-8.76903537,-7.84066742,9.35972645,3.13740231,0.86494892
3.09045255

>  <Name>
ligand

>  <RI>
0

>  <Rbt.Current_Directory>
/home/itssahil/PROJECTS/Mol_Feturizer/New_Systems/rnas/3SKI

>  <Rbt.Executable>
rbdock ($Id: //depot/dev/client3/rdock/2013.1/src/exe/rbdock.cxx#4 $)

>  <Rbt.Library>
libRbt.so (2013.1, Build901 2013/11/27)

>  <Rbt.Parameter_File>
/export/apps/rDock/src/rDock_2013.1_src/data/scripts/dock_solv.prm

>  <Rbt.Receptor>
prm/blind_docking_80.prm

>  <SCORE>
-17.3673

>  <SCORE.INTER>
-14.4869

>  <SCORE.INTER.CONST>
1

>  <SCORE.INTER.POLAR>
0

>  <SCORE.INTER.ROT>
2

>  <SCORE.INTER.SOLV>
8.95923

>  <SCORE.INTER.VDW>
-17.5777

>  <SCORE.INTER.norm>
-0.762467

>  <SCORE.INTRA>
-2.88047

>  <SCORE.INTRA.DIHEDRAL>
-5.02364

>  <SCORE.INTRA.DIHEDRAL.0>
6.26853

>  <SCORE.INTRA.POLAR>
0

>  <SCORE.INTRA.POLAR.0>
0

>  <SCORE.INTRA.REPUL>
0

>  <SCORE.INTRA.REPUL.0>
0

>  <SCORE.INTRA.SOLV>
0.0443191

>  <SCORE.INTRA.SOLV.lig_0>
-38.4926

>  <SCORE.INTRA.VDW>
-0.390811

>  <SCORE.INTRA.VDW.0>
-0.59057

>  <SCORE.INTRA.norm>
-0.151604

>  <SCORE.RESTR>
0

>  <SCORE.RESTR.CAVITY>
0

>  <SCORE.RESTR.norm>
0

>  <SCORE.SYSTEM>
0

>  <SCORE.SYSTEM.CONST>
0

>  <SCORE.SYSTEM.DIHEDRAL>
0

>  <SCORE.SYSTEM.SOLV>
0

>  <SCORE.SYSTEM.norm>
0

>  <SCORE.heavy>
19

>  <SCORE.norm>
-0.914071

>  <RMSD>
6.271

$$$$
ligand
 OpenBabel11021811483D
libRbt.so/2013.1/901 2013/11/27
 19 21  0  0  0  0  0  0  0  0999 V2000
  -10.7241   -6.1191    7.8122 C   0  0  0  0  0  0  0  0  0  0  0  0
  -12.0417   -5.7665    7.3652 O   0  0  0  0  0  0  0  0  0  0  0  0
  -10.2223   -7.3583    7.0676 C   0  0  1  0  0  0  0  0  0  0  0  0
   -8.8719   -7.6744    7.4567 O   0  0  0  0  0  0  0  0  0  0  0  0
  -11.0765   -8.5719    7.3892 C   0  0  1  0  0  0  0  0  0  0  0  0
  -11.9601   -8.8843    6.3052 O   0  0  0  0  0  0  0  0  0  0  0  0
  -10.1051   -9.7079    7.6254 C   0  0  0  0  0  0  0  0  0  0  0  0
   -8.7420   -9.0584    7.8134 C   0  0  2  0  0  0  0  0  0  0  0  0
   -6.6941   -6.4990   11.9181 N   0  0  0  0  0  0  0  0  0  0  0  0
   -6.9901   -6.0468   10.6698 C   0  0  1  0  0  0  0  0  0  0  0  0
   -6.7462   -4.7502   10.3644 N   0  0  0  0  0  0  0  0  0  0  0  0
   -7.5205   -6.8665    9.7218 N   0  0  0  0  0  0  0  0  0  0  0  0
   -7.7827   -8.1772    9.9759 C   0  0  2  0  0  0  0  0  0  0  0  0
   -7.5013   -8.6930   11.2281 C   0  0  1  0  0  0  0  0  0  0  0  0
   -6.9246   -7.7874   12.2542 C   0  0  0  0  0  0  0  0  0  0  0  0
   -6.6583   -8.2057   13.4032 O   0  0  0  0  0  0  0  0  0  0  0  0
   -7.8521   -9.9908   11.2257 N   0  0  0  0  0  0  0  0  0  0  0  0
   -8.3361  -10.2783    9.9947 C   0  0  0  0  0  0  0  0  0  0  0  0
   -8.2924   -9.1705    9.2324 N   0  0  1  0  0  0  0  0  0  0  0  0
  1  2  1  0  0  0  0
  3  1  1  1  0  0  0
  3  4  1  0  0  0  0
  3  5  1  0  0  0  0
  5  6  1  6  0  0  0
  5  7  1  0  0  0  0
  7  8  1  0  0  0  0
  8  4  1  1  0  0  0
  8 19  1  0  0  0  0
  9 15  1  0  0  0  0
  9 10  1  0  0  0  0
 10 11  1  6  0  0  0
 10 12  1  0  0  0  0
 13 12  1  6  0  0  0
 13 14  1  0  0  0  0
 13 19  1  0  0  0  0
 14 15  1  1  0  0  0
 14 17  1  0  0  0  0
 15 16  2  0  0  0  0
 17 18  1  0  0  0  0
 19 18  1  1  0  0  0
M  END
>  <CHROM.1>
176.79609919,-14.59084974,-8.75321479,-7.84915867,9.35628094,-3.13362154
0.85650470,3.07540809

>  <Name>
ligand

>  <RI>
0

>  <Rbt.Current_Directory>
/home/itssahil/PROJECTS/Mol_Feturizer/New_Systems/rnas/3SKI

>  <Rbt.Executable>
rbdock ($Id: //depot/dev/client3/rdock/2013.1/src/exe/rbdock.cxx#4 $)

>  <Rbt.Library>
libRbt.so (2013.1, Build901 2013/11/27)

>  <Rbt.Parameter_File>
/export/apps/rDock/src/rDock_2013.1_src/data/scripts/dock_solv.prm

>  <Rbt.Receptor>
prm/pocket_docking_6.prm

>  <SCORE>
-17.4616

>  <SCORE.INTER>
-14.5987

>  <SCORE.INTER.CONST>
1

>  <SCORE.INTER.POLAR>
0

>  <SCORE.INTER.ROT>
2

>  <SCORE.INTER.SOLV>
8.90974

>  <SCORE.INTER.VDW>
-17.6357

>  <SCORE.INTER.norm>
-0.768355

>  <SCORE.INTRA>
-2.86289

>  <SCORE.INTRA.DIHEDRAL>
-5.01663

>  <SCORE.INTRA.DIHEDRAL.0>
6.26853

>  <SCORE.INTRA.POLAR>
0

>  <SCORE.INTRA.POLAR.0>
0

>  <SCORE.INTRA.REPUL>
0

>  <SCORE.INTRA.REPUL.0>
0

>  <SCORE.INTRA.SOLV>
0.042011

>  <SCORE.INTRA.SOLV.lig_0>
-38.4926

>  <SCORE.INTRA.VDW>
-0.375579

>  <SCORE.INTRA.VDW.0>
-0.59057

>  <SCORE.INTRA.norm>
-0.150678

>  <SCORE.RESTR>
0

>  <SCORE.RESTR.CAVITY>
0

>  <SCORE.RESTR.norm>
0

>  <SCORE.SYSTEM>
0

>  <SCORE.SYSTEM.CONST>
0

>  <SCORE.SYSTEM.DIHEDRAL>
0

>  <SCORE.SYSTEM.SOLV>
0

>  <SCORE.SYSTEM.norm>
0

>  <SCORE.heavy>
19

>  <SCORE.norm>
-0.919033

>  <RMSD>
6.272

$$$$
ligand
 OpenBabel11021811483D
libRbt.so/2013.1/901 2013/11/27
 19 21  0  0  0  0  0  0  0  0999 V2000
   -6.6388   -2.8937    9.5018 C   0  0  0  0  0  0  0  0  0  0  0  0
   -5.4117   -2.6126    8.8124 O   0  0  0  0  0  0  0  0  0  0  0  0
   -7.1551   -4.2843    9.1258 C   0  0  1  0  0  0  0  0  0  0  0  0
   -6.2063   -5.2998    9.5048 O   0  0  0  0  0  0  0  0  0  0  0  0
   -8.4559   -4.5966    9.8443 C   0  0  1  0  0  0  0  0  0  0  0  0
   -9.5766   -4.4810    8.9586 O   0  0  0  0  0  0  0  0  0  0  0  0
   -8.3193   -6.0187   10.3433 C   0  0  0  0  0  0  0  0  0  0  0  0
   -6.8384   -6.3544   10.2449 C   0  0  2  0  0  0  0  0  0  0  0  0
   -3.8733   -9.2693   13.4550 N   0  0  0  0  0  0  0  0  0  0  0  0
   -4.2705   -9.5121   12.1769 C   0  0  1  0  0  0  0  0  0  0  0  0
   -3.8822  -10.6609   11.5740 N   0  0  0  0  0  0  0  0  0  0  0  0
   -5.0508   -8.6314   11.4933 N   0  0  0  0  0  0  0  0  0  0  0  0
   -5.4702   -7.4642   12.0531 C   0  0  2  0  0  0  0  0  0  0  0  0
   -5.0977   -7.1642   13.3509 C   0  0  1  0  0  0  0  0  0  0  0  0
   -4.2444   -8.1329   14.0852 C   0  0  0  0  0  0  0  0  0  0  0  0
   -3.8766   -7.9037   15.2592 O   0  0  0  0  0  0  0  0  0  0  0  0
   -5.6280   -5.9692   13.6642 N   0  0  0  0  0  0  0  0  0  0  0  0
   -6.3219   -5.5374   12.5852 C   0  0  0  0  0  0  0  0  0  0  0  0
   -6.2254   -6.4515   11.6025 N   0  0  1  0  0  0  0  0  0  0  0  0
  1  2  1  0  0  0  0
  3  1  1  1  0  0  0
  3  4  1  0  0  0  0
  3  5  1  0  0  0  0
  5  6  1  6  0  0  0
  5  7  1  0  0  0  0
  7  8  1  0  0  0  0
  8  4  1  6  0  0  0
  8 19  1  0  0  0  0
  9 15  1  0  0  0  0
  9 10  1  0  0  0  0
 10 11  1  1  0  0  0
 10 12  1  0  0  0  0
 13 12  1  1  0  0  0
 13 14  1  0  0  0  0
 13 19  1  0  0  0  0
 14 15  1  6  0  0  0
 14 17  1  0  0  0  0
 15 16  2  0  0  0  0
 17 18  1  0  0  0  0
 19 18  1  6  0  0  0
M  END
>  <CHROM.1>
61.23603370,-111.78688006,-5.94856256,-6.41766966,11.39534320,-2.62480535
1.00578959,-2.86983000

>  <Name>
ligand

>  <RI>
0

>  <Rbt.Current_Directory>
/home/itssahil/PROJECTS/Mol_Feturizer/New_Systems/rnas/3SKI

>  <Rbt.Executable>
rbdock ($Id: //depot/dev/client3/rdock/2013.1/src/exe/rbdock.cxx#4 $)

>  <Rbt.Library>
libRbt.so (2013.1, Build901 2013/11/27)

>  <Rbt.Parameter_File>
/export/apps/rDock/src/rDock_2013.1_src/data/scripts/dock_solv.prm

>  <Rbt.Receptor>
prm/pocket_docking_7.prm

>  <SCORE>
-15.8052

>  <SCORE.INTER>
-12.7858

>  <SCORE.INTER.CONST>
1

>  <SCORE.INTER.POLAR>
0

>  <SCORE.INTER.ROT>
2

>  <SCORE.INTER.SOLV>
15.5646

>  <SCORE.INTER.VDW>
-18.6454

>  <SCORE.INTER.norm>
-0.672935

>  <SCORE.INTRA>
-3.01941

>  <SCORE.INTRA.DIHEDRAL>
-5.06716

>  <SCORE.INTRA.DIHEDRAL.0>
6.26853

>  <SCORE.INTRA.POLAR>
0

>  <SCORE.INTRA.POLAR.0>
0

>  <SCORE.INTRA.REPUL>
0

>  <SCORE.INTRA.REPUL.0>
0

>  <SCORE.INTRA.SOLV>
-0.237572

>  <SCORE.INTRA.SOLV.lig_0>
-38.4926

>  <SCORE.INTRA.VDW>
-0.367046

>  <SCORE.INTRA.VDW.0>
-0.59057

>  <SCORE.INTRA.norm>
-0.158917

>  <SCORE.RESTR>
0

>  <SCORE.RESTR.CAVITY>
0

>  <SCORE.RESTR.norm>
0

>  <SCORE.SYSTEM>
0

>  <SCORE.SYSTEM.CONST>
0

>  <SCORE.SYSTEM.DIHEDRAL>
0

>  <SCORE.SYSTEM.SOLV>
0

>  <SCORE.SYSTEM.norm>
0

>  <SCORE.heavy>
19

>  <SCORE.norm>
-0.831852

>  <RMSD>
6.287

$$$$
ligand
 OpenBabel11021811483D
libRbt.so/2013.1/901 2013/11/27
 19 21  0  0  0  0  0  0  0  0999 V2000
  -10.2366   -5.9318    7.8368 C   0  0  0  0  0  0  0  0  0  0  0  0
  -11.5043   -5.4267    7.3917 O   0  0  0  0  0  0  0  0  0  0  0  0
   -9.9061   -7.2452    7.1244 C   0  0  1  0  0  0  0  0  0  0  0  0
   -8.6163   -7.7373    7.5356 O   0  0  0  0  0  0  0  0  0  0  0  0
  -10.9238   -8.3206    7.4617 C   0  0  1  0  0  0  0  0  0  0  0  0
  -11.8332   -8.5314    6.3744 O   0  0  0  0  0  0  0  0  0  0  0  0
  -10.1223   -9.5752    7.7330 C   0  0  0  0  0  0  0  0  0  0  0  0
   -8.6835   -9.1176    7.9229 C   0  0  2  0  0  0  0  0  0  0  0  0
   -6.6632   -6.6617   12.1037 N   0  0  0  0  0  0  0  0  0  0  0  0
   -6.9231   -6.1859   10.8562 C   0  0  1  0  0  0  0  0  0  0  0  0
   -6.6436   -4.8912   10.5739 N   0  0  0  0  0  0  0  0  0  0  0  0
   -7.4522   -6.9803    9.8862 N   0  0  0  0  0  0  0  0  0  0  0  0
   -7.7493   -8.2880   10.1166 C   0  0  2  0  0  0  0  0  0  0  0  0
   -7.5055   -8.8270   11.3669 C   0  0  1  0  0  0  0  0  0  0  0  0
   -6.9297   -7.9489   12.4171 C   0  0  0  0  0  0  0  0  0  0  0  0
   -6.6967   -8.3886   13.5653 O   0  0  0  0  0  0  0  0  0  0  0  0
   -7.8856  -10.1162   11.3392 N   0  0  0  0  0  0  0  0  0  0  0  0
   -8.3505  -10.3759   10.0947 C   0  0  0  0  0  0  0  0  0  0  0  0
   -8.2659   -9.2591    9.3491 N   0  0  1  0  0  0  0  0  0  0  0  0
  1  2  1  0  0  0  0
  3  1  1  1  0  0  0
  3  4  1  0  0  0  0
  3  5  1  0  0  0  0
  5  6  1  6  0  0  0
  5  7  1  0  0  0  0
  7  8  1  0  0  0  0
  8  4  1  1  0  0  0
  8 19  1  0  0  0  0
  9 15  1  0  0  0  0
  9 10  1  0  0  0  0
 10 11  1  6  0  0  0
 10 12  1  0  0  0  0
 13 12  1  6  0  0  0
 13 14  1  0  0  0  0
 13 19  1  0  0  0  0
 14 15  1  1  0  0  0
 14 17  1  0  0  0  0
 15 16  2  0  0  0  0
 17 18  1  0  0  0  0
 19 18  1  1  0  0  0
M  END
>  <CHROM.1>
178.23434767,-7.56406061,-8.63370181,-7.85282973,9.47177386,-3.01443895,0.89718571
3.01701901

>  <Name>
ligand

>  <RI>
0

>  <Rbt.Current_Directory>
/home/itssahil/PROJECTS/Mol_Feturizer/New_Systems/rnas/3SKI

>  <Rbt.Executable>
rbdock ($Id: //depot/dev/client3/rdock/2013.1/src/exe/rbdock.cxx#4 $)

>  <Rbt.Library>
libRbt.so (2013.1, Build901 2013/11/27)

>  <Rbt.Parameter_File>
/export/apps/rDock/src/rDock_2013.1_src/data/scripts/dock_solv.prm

>  <Rbt.Receptor>
prm/pocket_docking_5.prm

>  <SCORE>
-17.1396

>  <SCORE.INTER>
-14.1955

>  <SCORE.INTER.CONST>
1

>  <SCORE.INTER.POLAR>
0

>  <SCORE.INTER.ROT>
2

>  <SCORE.INTER.SOLV>
9.48279

>  <SCORE.INTER.VDW>
-17.5579

>  <SCORE.INTER.norm>
-0.747132

>  <SCORE.INTRA>
-2.94408

>  <SCORE.INTRA.DIHEDRAL>
-5.04752

>  <SCORE.INTRA.DIHEDRAL.0>
6.26853

>  <SCORE.INTRA.POLAR>
0

>  <SCORE.INTRA.POLAR.0>
0

>  <SCORE.INTRA.REPUL>
0

>  <SCORE.INTRA.REPUL.0>
0

>  <SCORE.INTRA.SOLV>
0.130279

>  <SCORE.INTRA.SOLV.lig_0>
-38.4926

>  <SCORE.INTRA.VDW>
-0.485455

>  <SCORE.INTRA.VDW.0>
-0.59057

>  <SCORE.INTRA.norm>
-0.154951

>  <SCORE.RESTR>
0

>  <SCORE.RESTR.CAVITY>
0

>  <SCORE.RESTR.norm>
0

>  <SCORE.SYSTEM>
0

>  <SCORE.SYSTEM.CONST>
0

>  <SCORE.SYSTEM.DIHEDRAL>
0

>  <SCORE.SYSTEM.SOLV>
0

>  <SCORE.SYSTEM.norm>
0

>  <SCORE.heavy>
19

>  <SCORE.norm>
-0.902084

>  <RMSD>
6.291

$$$$
ligand
 OpenBabel11021811483D
libRbt.so/2013.1/901 2013/11/27
 19 21  0  0  0  0  0  0  0  0999 V2000
  -10.5221   -6.1067    7.8539 C   0  0  0  0  0  0  0  0  0  0  0  0
  -11.8184   -5.7027    7.3883 O   0  0  0  0  0  0  0  0  0  0  0  0
  -10.0584   -7.3643    7.1154 C   0  0  1  0  0  0  0  0  0  0  0  0
   -8.7261   -7.7315    7.5216 O   0  0  0  0  0  0  0  0  0  0  0  0
  -10.9623   -8.5444    7.4258 C   0  0  1  0  0  0  0  0  0  0  0  0
  -11.8433   -8.8232    6.3305 O   0  0  0  0  0  0  0  0  0  0  0  0
  -10.0380   -9.7166    7.6740 C   0  0  0  0  0  0  0  0  0  0  0  0
   -8.6536   -9.1194    7.8795 C   0  0  2  0  0  0  0  0  0  0  0  0
   -6.6581   -6.6122   12.0418 N   0  0  0  0  0  0  0  0  0  0  0  0
   -6.9325   -6.1458   10.7939 C   0  0  1  0  0  0  0  0  0  0  0  0
   -6.6778   -4.8473   10.5057 N   0  0  0  0  0  0  0  0  0  0  0  0
   -7.4518   -6.9531    9.8293 N   0  0  0  0  0  0  0  0  0  0  0  0
   -7.7241   -8.2652   10.0657 C   0  0  2  0  0  0  0  0  0  0  0  0
   -7.4646   -8.7951   11.3168 C   0  0  1  0  0  0  0  0  0  0  0  0
   -6.8997   -7.9029   12.3610 C   0  0  0  0  0  0  0  0  0  0  0  0
   -6.6534   -8.3342   13.5096 O   0  0  0  0  0  0  0  0  0  0  0  0
   -7.8214  -10.0911   11.2954 N   0  0  0  0  0  0  0  0  0  0  0  0
   -8.2875  -10.3636   10.0542 C   0  0  0  0  0  0  0  0  0  0  0  0
   -8.2267   -9.2482    9.3042 N   0  0  1  0  0  0  0  0  0  0  0  0
  1  2  1  0  0  0  0
  3  1  1  1  0  0  0
  3  4  1  0  0  0  0
  3  5  1  0  0  0  0
  5  6  1  6  0  0  0
  5  7  1  0  0  0  0
  7  8  1  0  0  0  0
  8  4  1  1  0  0  0
  8 19  1  0  0  0  0
  9 15  1  0  0  0  0
  9 10  1  0  0  0  0
 10 11  1  6  0  0  0
 10 12  1  0  0  0  0
 13 12  1  6  0  0  0
 13 14  1  0  0  0  0
 13 19  1  0  0  0  0
 14 15  1  1  0  0  0
 14 17  1  0  0  0  0
 15 16  2  0  0  0  0
 17 18  1  0  0  0  0
 19 18  1  1  0  0  0
M  END
>  <CHROM.1>
176.67733525,-12.58420608,-8.66556779,-7.90265157,9.43122395,-3.10143571
0.87834994,3.06701048

>  <Name>
ligand

>  <RI>
0

>  <Rbt.Current_Directory>
/home/itssahil/PROJECTS/Mol_Feturizer/New_Systems/rnas/3SKI

>  <Rbt.Executable>
rbdock ($Id: //depot/dev/client3/rdock/2013.1/src/exe/rbdock.cxx#4 $)

>  <Rbt.Library>
libRbt.so (2013.1, Build901 2013/11/27)

>  <Rbt.Parameter_File>
/export/apps/rDock/src/rDock_2013.1_src/data/scripts/dock_solv.prm

>  <Rbt.Receptor>
prm/pocket_docking_6.prm

>  <SCORE>
-17.4552

>  <SCORE.INTER>
-14.5586

>  <SCORE.INTER.CONST>
1

>  <SCORE.INTER.POLAR>
0

>  <SCORE.INTER.ROT>
2

>  <SCORE.INTER.SOLV>
9.31123

>  <SCORE.INTER.VDW>
-17.7428

>  <SCORE.INTER.norm>
-0.766244

>  <SCORE.INTRA>
-2.89657

>  <SCORE.INTRA.DIHEDRAL>
-5.01534

>  <SCORE.INTRA.DIHEDRAL.0>
6.26853

>  <SCORE.INTRA.POLAR>
0

>  <SCORE.INTRA.POLAR.0>
0

>  <SCORE.INTRA.REPUL>
0

>  <SCORE.INTRA.REPUL.0>
0

>  <SCORE.INTRA.SOLV>
0.0431666

>  <SCORE.INTRA.SOLV.lig_0>
-38.4926

>  <SCORE.INTRA.VDW>
-0.410485

>  <SCORE.INTRA.VDW.0>
-0.59057

>  <SCORE.INTRA.norm>
-0.152451

>  <SCORE.RESTR>
0

>  <SCORE.RESTR.CAVITY>
0

>  <SCORE.RESTR.norm>
0

>  <SCORE.SYSTEM>
0

>  <SCORE.SYSTEM.CONST>
0

>  <SCORE.SYSTEM.DIHEDRAL>
0

>  <SCORE.SYSTEM.SOLV>
0

>  <SCORE.SYSTEM.norm>
0

>  <SCORE.heavy>
19

>  <SCORE.norm>
-0.918695

>  <RMSD>
6.295

$$$$
ligand
 OpenBabel11021811483D
libRbt.so/2013.1/901 2013/11/27
 19 21  0  0  0  0  0  0  0  0999 V2000
  -10.6336   -6.1313    7.8453 C   0  0  0  0  0  0  0  0  0  0  0  0
  -11.9504   -5.7802    7.3948 O   0  0  0  0  0  0  0  0  0  0  0  0
  -10.1268   -7.3676    7.0992 C   0  0  1  0  0  0  0  0  0  0  0  0
   -8.7866   -7.6976    7.5115 O   0  0  0  0  0  0  0  0  0  0  0  0
  -10.9963   -8.5773    7.3932 C   0  0  1  0  0  0  0  0  0  0  0  0
  -11.8610   -8.8732    6.2894 O   0  0  0  0  0  0  0  0  0  0  0  0
  -10.0383   -9.7230    7.6378 C   0  0  0  0  0  0  0  0  0  0  0  0
   -8.6742   -9.0858    7.8580 C   0  0  2  0  0  0  0  0  0  0  0  0
   -6.7156   -6.5719   12.0338 N   0  0  0  0  0  0  0  0  0  0  0  0
   -6.9874   -6.1053   10.7854 C   0  0  1  0  0  0  0  0  0  0  0  0
   -6.7404   -4.8046   10.5006 N   0  0  0  0  0  0  0  0  0  0  0  0
   -7.4966   -6.9145    9.8170 N   0  0  0  0  0  0  0  0  0  0  0  0
   -7.7609   -8.2288   10.0500 C   0  0  2  0  0  0  0  0  0  0  0  0
   -7.5036   -8.7591   11.3013 C   0  0  1  0  0  0  0  0  0  0  0  0
   -6.9498   -7.8648   12.3497 C   0  0  0  0  0  0  0  0  0  0  0  0
   -6.7058   -8.2963   13.4988 O   0  0  0  0  0  0  0  0  0  0  0  0
   -7.8513  -10.0575   11.2762 N   0  0  0  0  0  0  0  0  0  0  0  0
   -8.3096  -10.3311   10.0323 C   0  0  0  0  0  0  0  0  0  0  0  0
   -8.2531   -9.2140    9.2844 N   0  0  1  0  0  0  0  0  0  0  0  0
  1  2  1  0  0  0  0
  3  1  1  1  0  0  0
  3  4  1  0  0  0  0
  3  5  1  0  0  0  0
  5  6  1  6  0  0  0
  5  7  1  0  0  0  0
  7  8  1  0  0  0  0
  8  4  1  1  0  0  0
  8 19  1  0  0  0  0
  9 15  1  0  0  0  0
  9 10  1  0  0  0  0
 10 11  1  6  0  0  0
 10 12  1  0  0  0  0
 13 12  1  6  0  0  0
 13 14  1  0  0  0  0
 13 19  1  0  0  0  0
 14 15  1  1  0  0  0
 14 17  1  0  0  0  0
 15 16  2  0  0  0  0
 17 18  1  0  0  0  0
 19 18  1  1  0  0  0
M  END
>  <CHROM.1>
177.93560359,-13.99772906,-8.71499248,-7.88925602,9.41511712,-3.13023624
0.87820192,3.08638648

>  <Name>
ligand

>  <RI>
0

>  <Rbt.Current_Directory>
/home/itssahil/PROJECTS/Mol_Feturizer/New_Systems/rnas/3SKI

>  <Rbt.Executable>
rbdock ($Id: //depot/dev/client3/rdock/2013.1/src/exe/rbdock.cxx#4 $)

>  <Rbt.Library>
libRbt.so (2013.1, Build901 2013/11/27)

>  <Rbt.Parameter_File>
/export/apps/rDock/src/rDock_2013.1_src/data/scripts/dock_solv.prm

>  <Rbt.Receptor>
prm/pocket_docking_6.prm

>  <SCORE>
-17.4384

>  <SCORE.INTER>
-14.5664

>  <SCORE.INTER.CONST>
1

>  <SCORE.INTER.POLAR>
0

>  <SCORE.INTER.ROT>
2

>  <SCORE.INTER.SOLV>
9.18302

>  <SCORE.INTER.VDW>
-17.7053

>  <SCORE.INTER.norm>
-0.766653

>  <SCORE.INTRA>
-2.87201

>  <SCORE.INTRA.DIHEDRAL>
-5.03827

>  <SCORE.INTRA.DIHEDRAL.0>
6.26853

>  <SCORE.INTRA.POLAR>
0

>  <SCORE.INTRA.POLAR.0>
0

>  <SCORE.INTRA.REPUL>
0

>  <SCORE.INTRA.REPUL.0>
0

>  <SCORE.INTRA.SOLV>
0.0481721

>  <SCORE.INTRA.SOLV.lig_0>
-38.4926

>  <SCORE.INTRA.VDW>
-0.376966

>  <SCORE.INTRA.VDW.0>
-0.59057

>  <SCORE.INTRA.norm>
-0.151159

>  <SCORE.RESTR>
0

>  <SCORE.RESTR.CAVITY>
0

>  <SCORE.RESTR.norm>
0

>  <SCORE.SYSTEM>
0

>  <SCORE.SYSTEM.CONST>
0

>  <SCORE.SYSTEM.DIHEDRAL>
0

>  <SCORE.SYSTEM.SOLV>
0

>  <SCORE.SYSTEM.norm>
0

>  <SCORE.heavy>
19

>  <SCORE.norm>
-0.917812

>  <RMSD>
6.296

$$$$
ligand
 OpenBabel11021811483D
libRbt.so/2013.1/901 2013/11/27
 19 21  0  0  0  0  0  0  0  0999 V2000
  -10.6138   -6.1251    7.8853 C   0  0  0  0  0  0  0  0  0  0  0  0
  -11.9350   -5.7741    7.4480 O   0  0  0  0  0  0  0  0  0  0  0  0
  -10.1100   -7.3547    7.1263 C   0  0  1  0  0  0  0  0  0  0  0  0
   -8.7693   -7.6902    7.5324 O   0  0  0  0  0  0  0  0  0  0  0  0
  -10.9802   -8.5662    7.4104 C   0  0  1  0  0  0  0  0  0  0  0  0
  -11.8476   -8.8504    6.3057 O   0  0  0  0  0  0  0  0  0  0  0  0
  -10.0230   -9.7152    7.6418 C   0  0  0  0  0  0  0  0  0  0  0  0
   -8.6577   -9.0817    7.8653 C   0  0  2  0  0  0  0  0  0  0  0  0
   -6.6456   -6.6213   12.0475 N   0  0  0  0  0  0  0  0  0  0  0  0
   -6.9144   -6.1437   10.8026 C   0  0  1  0  0  0  0  0  0  0  0  0
   -6.6481   -4.8455   10.5238 N   0  0  0  0  0  0  0  0  0  0  0  0
   -7.4396   -6.9397    9.8316 N   0  0  0  0  0  0  0  0  0  0  0  0
   -7.7235   -8.2509   10.0586 C   0  0  2  0  0  0  0  0  0  0  0  0
   -7.4702   -8.7919   11.3061 C   0  0  1  0  0  0  0  0  0  0  0  0
   -6.8989   -7.9120   12.3573 C   0  0  0  0  0  0  0  0  0  0  0  0
   -6.6577   -8.3535   13.5032 O   0  0  0  0  0  0  0  0  0  0  0  0
   -7.8383  -10.0845   11.2753 N   0  0  0  0  0  0  0  0  0  0  0  0
   -8.3051  -10.3443   10.0316 C   0  0  0  0  0  0  0  0  0  0  0  0
   -8.2337   -9.2242    9.2895 N   0  0  1  0  0  0  0  0  0  0  0  0
  1  2  1  0  0  0  0
  3  1  1  1  0  0  0
  3  4  1  0  0  0  0
  3  5  1  0  0  0  0
  5  6  1  6  0  0  0
  5  7  1  0  0  0  0
  7  8  1  0  0  0  0
  8  4  1  1  0  0  0
  8 19  1  0  0  0  0
  9 15  1  0  0  0  0
  9 10  1  0  0  0  0
 10 11  1  6  0  0  0
 10 12  1  0  0  0  0
 13 12  1  6  0  0  0
 13 14  1  0  0  0  0
 13 19  1  0  0  0  0
 14 15  1  1  0  0  0
 14 17  1  0  0  0  0
 15 16  2  0  0  0  0
 17 18  1  0  0  0  0
 19 18  1  1  0  0  0
M  END
>  <CHROM.1>
178.35439788,-14.86796533,-8.68221205,-7.90363777,9.43054985,-3.11683186
0.87075489,3.07872631

>  <Name>
ligand

>  <RI>
0

>  <Rbt.Current_Directory>
/home/itssahil/PROJECTS/Mol_Feturizer/New_Systems/rnas/3SKI

>  <Rbt.Executable>
rbdock ($Id: //depot/dev/client3/rdock/2013.1/src/exe/rbdock.cxx#4 $)

>  <Rbt.Library>
libRbt.so (2013.1, Build901 2013/11/27)

>  <Rbt.Parameter_File>
/export/apps/rDock/src/rDock_2013.1_src/data/scripts/dock_solv.prm

>  <Rbt.Receptor>
prm/blind_docking_20.prm

>  <SCORE>
-17.5243

>  <SCORE.INTER>
-14.6686

>  <SCORE.INTER.CONST>
1

>  <SCORE.INTER.POLAR>
0

>  <SCORE.INTER.ROT>
2

>  <SCORE.INTER.SOLV>
9.263

>  <SCORE.INTER.VDW>
-17.8001

>  <SCORE.INTER.norm>
-0.772032

>  <SCORE.INTRA>
-2.85569

>  <SCORE.INTRA.DIHEDRAL>
-5.04312

>  <SCORE.INTRA.DIHEDRAL.0>
6.26853

>  <SCORE.INTRA.POLAR>
0

>  <SCORE.INTRA.POLAR.0>
0

>  <SCORE.INTRA.REPUL>
0

>  <SCORE.INTRA.REPUL.0>
0

>  <SCORE.INTRA.SOLV>
0.0495646

>  <SCORE.INTRA.SOLV.lig_0>
-38.4926

>  <SCORE.INTRA.VDW>
-0.358909

>  <SCORE.INTRA.VDW.0>
-0.59057

>  <SCORE.INTRA.norm>
-0.150299

>  <SCORE.RESTR>
0

>  <SCORE.RESTR.CAVITY>
0

>  <SCORE.RESTR.norm>
0

>  <SCORE.SYSTEM>
0

>  <SCORE.SYSTEM.CONST>
0

>  <SCORE.SYSTEM.DIHEDRAL>
0

>  <SCORE.SYSTEM.SOLV>
0

>  <SCORE.SYSTEM.norm>
0

>  <SCORE.heavy>
19

>  <SCORE.norm>
-0.922331

>  <RMSD>
6.298

$$$$
ligand
 OpenBabel11021811483D
libRbt.so/2013.1/901 2013/11/27
 19 21  0  0  0  0  0  0  0  0999 V2000
  -10.6019   -6.1048    7.8510 C   0  0  0  0  0  0  0  0  0  0  0  0
  -11.9147   -5.7329    7.4056 O   0  0  0  0  0  0  0  0  0  0  0  0
  -10.1184   -7.3501    7.1044 C   0  0  1  0  0  0  0  0  0  0  0  0
   -8.7811   -7.7000    7.5096 O   0  0  0  0  0  0  0  0  0  0  0  0
  -11.0047   -8.5459    7.4056 C   0  0  1  0  0  0  0  0  0  0  0  0
  -11.8802   -8.8304    6.3074 O   0  0  0  0  0  0  0  0  0  0  0  0
  -10.0630   -9.7056    7.6469 C   0  0  0  0  0  0  0  0  0  0  0  0
   -8.6880   -9.0890    7.8581 C   0  0  2  0  0  0  0  0  0  0  0  0
   -6.7199   -6.5844   12.0350 N   0  0  0  0  0  0  0  0  0  0  0  0
   -6.9981   -6.1140   10.7894 C   0  0  1  0  0  0  0  0  0  0  0  0
   -6.7561   -4.8116   10.5082 N   0  0  0  0  0  0  0  0  0  0  0  0
   -7.5089   -6.9213    9.8201 N   0  0  0  0  0  0  0  0  0  0  0  0
   -7.7683   -8.2372   10.0494 C   0  0  2  0  0  0  0  0  0  0  0  0
   -7.5044   -8.7712   11.2978 C   0  0  1  0  0  0  0  0  0  0  0  0
   -6.9490   -7.8790   12.3472 C   0  0  0  0  0  0  0  0  0  0  0  0
   -6.6991   -8.3140   13.4936 O   0  0  0  0  0  0  0  0  0  0  0  0
   -7.8484  -10.0705   11.2694 N   0  0  0  0  0  0  0  0  0  0  0  0
   -8.3109  -10.3411   10.0264 C   0  0  0  0  0  0  0  0  0  0  0  0
   -8.2607   -9.2212    9.2823 N   0  0  1  0  0  0  0  0  0  0  0  0
  1  2  1  0  0  0  0
  3  1  1  1  0  0  0
  3  4  1  0  0  0  0
  3  5  1  0  0  0  0
  5  6  1  6  0  0  0
  5  7  1  0  0  0  0
  7  8  1  0  0  0  0
  8  4  1  1  0  0  0
  8 19  1  0  0  0  0
  9 15  1  0  0  0  0
  9 10  1  0  0  0  0
 10 11  1  6  0  0  0
 10 12  1  0  0  0  0
 13 12  1  6  0  0  0
 13 14  1  0  0  0  0
 13 19  1  0  0  0  0
 14 15  1  1  0  0  0
 14 17  1  0  0  0  0
 15 16  2  0  0  0  0
 17 18  1  0  0  0  0
 19 18  1  1  0  0  0
M  END
>  <CHROM.1>
177.82682923,-12.89965074,-8.71641457,-7.88528345,9.41789269,-3.12241513
0.87800668,3.08729394

>  <Name>
ligand

>  <RI>
0

>  <Rbt.Current_Directory>
/home/itssahil/PROJECTS/Mol_Feturizer/New_Systems/rnas/3SKI

>  <Rbt.Executable>
rbdock ($Id: //depot/dev/client3/rdock/2013.1/src/exe/rbdock.cxx#4 $)

>  <Rbt.Library>
libRbt.so (2013.1, Build901 2013/11/27)

>  <Rbt.Parameter_File>
/export/apps/rDock/src/rDock_2013.1_src/data/scripts/dock_solv.prm

>  <Rbt.Receptor>
prm/pocket_docking_7.prm

>  <SCORE>
-17.4125

>  <SCORE.INTER>
-14.5216

>  <SCORE.INTER.CONST>
1

>  <SCORE.INTER.POLAR>
0

>  <SCORE.INTER.ROT>
2

>  <SCORE.INTER.SOLV>
9.1562

>  <SCORE.INTER.VDW>
-17.6665

>  <SCORE.INTER.norm>
-0.764296

>  <SCORE.INTRA>
-2.89087

>  <SCORE.INTRA.DIHEDRAL>
-5.03745

>  <SCORE.INTRA.DIHEDRAL.0>
6.26853

>  <SCORE.INTRA.POLAR>
0

>  <SCORE.INTRA.POLAR.0>
0

>  <SCORE.INTRA.REPUL>
0

>  <SCORE.INTRA.REPUL.0>
0

>  <SCORE.INTRA.SOLV>
0.0486299

>  <SCORE.INTRA.SOLV.lig_0>
-38.4926

>  <SCORE.INTRA.VDW>
-0.396463

>  <SCORE.INTRA.VDW.0>
-0.59057

>  <SCORE.INTRA.norm>
-0.152151

>  <SCORE.RESTR>
0

>  <SCORE.RESTR.CAVITY>
0

>  <SCORE.RESTR.norm>
0

>  <SCORE.SYSTEM>
0

>  <SCORE.SYSTEM.CONST>
0

>  <SCORE.SYSTEM.DIHEDRAL>
0

>  <SCORE.SYSTEM.SOLV>
0

>  <SCORE.SYSTEM.norm>
0

>  <SCORE.heavy>
19

>  <SCORE.norm>
-0.916448

>  <RMSD>
6.298

$$$$
ligand
 OpenBabel11021811483D
libRbt.so/2013.1/901 2013/11/27
 19 21  0  0  0  0  0  0  0  0999 V2000
  -10.6199   -6.1182    7.8632 C   0  0  0  0  0  0  0  0  0  0  0  0
  -11.9266   -5.7481    7.3986 O   0  0  0  0  0  0  0  0  0  0  0  0
  -10.1154   -7.3508    7.1095 C   0  0  1  0  0  0  0  0  0  0  0  0
   -8.7764   -7.6869    7.5210 O   0  0  0  0  0  0  0  0  0  0  0  0
  -10.9881   -8.5603    7.3945 C   0  0  1  0  0  0  0  0  0  0  0  0
  -11.8524   -8.8467    6.2879 O   0  0  0  0  0  0  0  0  0  0  0  0
  -10.0333   -9.7099    7.6325 C   0  0  0  0  0  0  0  0  0  0  0  0
   -8.6678   -9.0775    7.8584 C   0  0  2  0  0  0  0  0  0  0  0  0
   -6.6598   -6.6088   12.0377 N   0  0  0  0  0  0  0  0  0  0  0  0
   -6.9232   -6.1348   10.7902 C   0  0  1  0  0  0  0  0  0  0  0  0
   -6.6516   -4.8386   10.5075 N   0  0  0  0  0  0  0  0  0  0  0  0
   -7.4482   -6.9326    9.8206 N   0  0  0  0  0  0  0  0  0  0  0  0
   -7.7373   -8.2420   10.0515 C   0  0  2  0  0  0  0  0  0  0  0  0
   -7.4896   -8.7793   11.3017 C   0  0  1  0  0  0  0  0  0  0  0  0
   -6.9185   -7.8975   12.3514 C   0  0  0  0  0  0  0  0  0  0  0  0
   -6.6822   -8.3357   13.4996 O   0  0  0  0  0  0  0  0  0  0  0  0
   -7.8621  -10.0707   11.2745 N   0  0  0  0  0  0  0  0  0  0  0  0
   -8.3261  -10.3334   10.0303 C   0  0  0  0  0  0  0  0  0  0  0  0
   -8.2486   -9.2163    9.2844 N   0  0  1  0  0  0  0  0  0  0  0  0
  1  2  1  0  0  0  0
  3  1  1  1  0  0  0
  3  4  1  0  0  0  0
  3  5  1  0  0  0  0
  5  6  1  6  0  0  0
  5  7  1  0  0  0  0
  7  8  1  0  0  0  0
  8  4  1  1  0  0  0
  8 19  1  0  0  0  0
  9 15  1  0  0  0  0
  9 10  1  0  0  0  0
 10 11  1  6  0  0  0
 10 12  1  0  0  0  0
 13 12  1  6  0  0  0
 13 14  1  0  0  0  0
 13 19  1  0  0  0  0
 14 15  1  1  0  0  0
 14 17  1  0  0  0  0
 15 16  2  0  0  0  0
 17 18  1  0  0  0  0
 19 18  1  1  0  0  0
M  END
>  <CHROM.1>
177.01459775,-14.99291103,-8.69326134,-7.89402678,9.41814436,-3.11045463
0.87377343,3.07016436

>  <Name>
ligand

>  <RI>
0

>  <Rbt.Current_Directory>
/home/itssahil/PROJECTS/Mol_Feturizer/New_Systems/rnas/3SKI

>  <Rbt.Executable>
rbdock ($Id: //depot/dev/client3/rdock/2013.1/src/exe/rbdock.cxx#4 $)

>  <Rbt.Library>
libRbt.so (2013.1, Build901 2013/11/27)

>  <Rbt.Parameter_File>
/export/apps/rDock/src/rDock_2013.1_src/data/scripts/dock_solv.prm

>  <Rbt.Receptor>
prm/pocket_docking_6.prm

>  <SCORE>
-17.5117

>  <SCORE.INTER>
-14.6554

>  <SCORE.INTER.CONST>
1

>  <SCORE.INTER.POLAR>
0

>  <SCORE.INTER.ROT>
2

>  <SCORE.INTER.SOLV>
9.27342

>  <SCORE.INTER.VDW>
-17.7947

>  <SCORE.INTER.norm>
-0.771335

>  <SCORE.INTRA>
-2.85637

>  <SCORE.INTRA.DIHEDRAL>
-5.02114

>  <SCORE.INTRA.DIHEDRAL.0>
6.26853

>  <SCORE.INTRA.POLAR>
0

>  <SCORE.INTRA.POLAR.0>
0

>  <SCORE.INTRA.REPUL>
0

>  <SCORE.INTRA.REPUL.0>
0

>  <SCORE.INTRA.SOLV>
0.0427842

>  <SCORE.INTRA.SOLV.lig_0>
-38.4926

>  <SCORE.INTRA.VDW>
-0.367193

>  <SCORE.INTRA.VDW.0>
-0.59057

>  <SCORE.INTRA.norm>
-0.150335

>  <SCORE.RESTR>
0

>  <SCORE.RESTR.CAVITY>
0

>  <SCORE.RESTR.norm>
0

>  <SCORE.SYSTEM>
0

>  <SCORE.SYSTEM.CONST>
0

>  <SCORE.SYSTEM.DIHEDRAL>
0

>  <SCORE.SYSTEM.SOLV>
0

>  <SCORE.SYSTEM.norm>
0

>  <SCORE.heavy>
19

>  <SCORE.norm>
-0.921671

>  <RMSD>
6.300

$$$$
ligand
 OpenBabel11021811483D
libRbt.so/2013.1/901 2013/11/27
 19 21  0  0  0  0  0  0  0  0999 V2000
  -10.6011   -6.1194    7.8762 C   0  0  0  0  0  0  0  0  0  0  0  0
  -11.9114   -5.7481    7.4229 O   0  0  0  0  0  0  0  0  0  0  0  0
  -10.1046   -7.3530    7.1188 C   0  0  1  0  0  0  0  0  0  0  0  0
   -8.7653   -7.6948    7.5242 O   0  0  0  0  0  0  0  0  0  0  0  0
  -10.9809   -8.5595    7.4060 C   0  0  1  0  0  0  0  0  0  0  0  0
  -11.8510   -8.8411    6.3028 O   0  0  0  0  0  0  0  0  0  0  0  0
  -10.0295   -9.7131    7.6385 C   0  0  0  0  0  0  0  0  0  0  0  0
   -8.6606   -9.0863    7.8594 C   0  0  2  0  0  0  0  0  0  0  0  0
   -6.6634   -6.6204   12.0455 N   0  0  0  0  0  0  0  0  0  0  0  0
   -6.9349   -6.1426   10.8013 C   0  0  1  0  0  0  0  0  0  0  0  0
   -6.6763   -4.8424   10.5245 N   0  0  0  0  0  0  0  0  0  0  0  0
   -7.4553   -6.9402    9.8291 N   0  0  0  0  0  0  0  0  0  0  0  0
   -7.7315   -8.2534   10.0540 C   0  0  2  0  0  0  0  0  0  0  0  0
   -7.4750   -8.7948   11.3007 C   0  0  1  0  0  0  0  0  0  0  0  0
   -6.9090   -7.9131   12.3533 C   0  0  0  0  0  0  0  0  0  0  0  0
   -6.6652   -8.3550   13.4985 O   0  0  0  0  0  0  0  0  0  0  0  0
   -7.8354  -10.0895   11.2679 N   0  0  0  0  0  0  0  0  0  0  0  0
   -8.3007  -10.3501   10.0237 C   0  0  0  0  0  0  0  0  0  0  0  0
   -8.2359   -9.2285    9.2834 N   0  0  1  0  0  0  0  0  0  0  0  0
  1  2  1  0  0  0  0
  3  1  1  1  0  0  0
  3  4  1  0  0  0  0
  3  5  1  0  0  0  0
  5  6  1  6  0  0  0
  5  7  1  0  0  0  0
  7  8  1  0  0  0  0
  8  4  1  1  0  0  0
  8 19  1  0  0  0  0
  9 15  1  0  0  0  0
  9 10  1  0  0  0  0
 10 11  1  6  0  0  0
 10 12  1  0  0  0  0
 13 12  1  6  0  0  0
 13 14  1  0  0  0  0
 13 19  1  0  0  0  0
 14 15  1  1  0  0  0
 14 17  1  0  0  0  0
 15 16  2  0  0  0  0
 17 18  1  0  0  0  0
 19 18  1  1  0  0  0
M  END
>  <CHROM.1>
177.33678309,-14.19605761,-8.68582991,-7.90206695,9.42449480,-3.11673847
0.87380782,3.08245967

>  <Name>
ligand

>  <RI>
0

>  <Rbt.Current_Directory>
/home/itssahil/PROJECTS/Mol_Feturizer/New_Systems/rnas/3SKI

>  <Rbt.Executable>
rbdock ($Id: //depot/dev/client3/rdock/2013.1/src/exe/rbdock.cxx#4 $)

>  <Rbt.Library>
libRbt.so (2013.1, Build901 2013/11/27)

>  <Rbt.Parameter_File>
/export/apps/rDock/src/rDock_2013.1_src/data/scripts/dock_solv.prm

>  <Rbt.Receptor>
prm/pocket_docking_6.prm

>  <SCORE>
-17.523

>  <SCORE.INTER>
-14.6532

>  <SCORE.INTER.CONST>
1

>  <SCORE.INTER.POLAR>
0

>  <SCORE.INTER.ROT>
2

>  <SCORE.INTER.SOLV>
9.252

>  <SCORE.INTER.VDW>
-17.7861

>  <SCORE.INTER.norm>
-0.77122

>  <SCORE.INTRA>
-2.86979

>  <SCORE.INTRA.DIHEDRAL>
-5.02813

>  <SCORE.INTRA.DIHEDRAL.0>
6.26853

>  <SCORE.INTRA.POLAR>
0

>  <SCORE.INTRA.POLAR.0>
0

>  <SCORE.INTRA.REPUL>
0

>  <SCORE.INTRA.REPUL.0>
0

>  <SCORE.INTRA.SOLV>
0.0450304

>  <SCORE.INTRA.SOLV.lig_0>
-38.4926

>  <SCORE.INTRA.VDW>
-0.378237

>  <SCORE.INTRA.VDW.0>
-0.59057

>  <SCORE.INTRA.norm>
-0.151042

>  <SCORE.RESTR>
0

>  <SCORE.RESTR.CAVITY>
0

>  <SCORE.RESTR.norm>
0

>  <SCORE.SYSTEM>
0

>  <SCORE.SYSTEM.CONST>
0

>  <SCORE.SYSTEM.DIHEDRAL>
0

>  <SCORE.SYSTEM.SOLV>
0

>  <SCORE.SYSTEM.norm>
0

>  <SCORE.heavy>
19

>  <SCORE.norm>
-0.922262

>  <RMSD>
6.301

$$$$
ligand
 OpenBabel11021811483D
libRbt.so/2013.1/901 2013/11/27
 19 21  0  0  0  0  0  0  0  0999 V2000
  -10.6016   -6.1030    7.8920 C   0  0  0  0  0  0  0  0  0  0  0  0
  -11.9087   -5.7202    7.4391 O   0  0  0  0  0  0  0  0  0  0  0  0
  -10.1154   -7.3398    7.1332 C   0  0  1  0  0  0  0  0  0  0  0  0
   -8.7767   -7.6896    7.5338 O   0  0  0  0  0  0  0  0  0  0  0  0
  -10.9979   -8.5408    7.4239 C   0  0  1  0  0  0  0  0  0  0  0  0
  -11.8737   -8.8174    6.3239 O   0  0  0  0  0  0  0  0  0  0  0  0
  -10.0527   -9.7001    7.6533 C   0  0  0  0  0  0  0  0  0  0  0  0
   -8.6792   -9.0817    7.8690 C   0  0  2  0  0  0  0  0  0  0  0  0
   -6.6503   -6.6274   12.0467 N   0  0  0  0  0  0  0  0  0  0  0  0
   -6.9233   -6.1482   10.8033 C   0  0  1  0  0  0  0  0  0  0  0  0
   -6.6571   -4.8499   10.5250 N   0  0  0  0  0  0  0  0  0  0  0  0
   -7.4525   -6.9427    9.8334 N   0  0  0  0  0  0  0  0  0  0  0  0
   -7.7365   -8.2540   10.0598 C   0  0  2  0  0  0  0  0  0  0  0  0
   -7.4791   -8.7966   11.3058 C   0  0  1  0  0  0  0  0  0  0  0  0
   -6.9034   -7.9183   12.3559 C   0  0  0  0  0  0  0  0  0  0  0  0
   -6.6583   -8.3612   13.5004 O   0  0  0  0  0  0  0  0  0  0  0  0
   -7.8481  -10.0889   11.2749 N   0  0  0  0  0  0  0  0  0  0  0  0
   -8.3197  -10.3470   10.0326 C   0  0  0  0  0  0  0  0  0  0  0  0
   -8.2502   -9.2261    9.2915 N   0  0  1  0  0  0  0  0  0  0  0  0
  1  2  1  0  0  0  0
  3  1  1  1  0  0  0
  3  4  1  0  0  0  0
  3  5  1  0  0  0  0
  5  6  1  6  0  0  0
  5  7  1  0  0  0  0
  7  8  1  0  0  0  0
  8  4  1  1  0  0  0
  8 19  1  0  0  0  0
  9 15  1  0  0  0  0
  9 10  1  0  0  0  0
 10 11  1  6  0  0  0
 10 12  1  0  0  0  0
 13 12  1  6  0  0  0
 13 14  1  0  0  0  0
 13 19  1  0  0  0  0
 14 15  1  1  0  0  0
 14 17  1  0  0  0  0
 15 16  2  0  0  0  0
 17 18  1  0  0  0  0
 19 18  1  1  0  0  0
M  END
>  <CHROM.1>
177.06941946,-14.22862412,-8.69097553,-7.89678435,9.43347755,-3.10677346
0.86974638,3.07438190

>  <Name>
ligand

>  <RI>
0

>  <Rbt.Current_Directory>
/home/itssahil/PROJECTS/Mol_Feturizer/New_Systems/rnas/3SKI

>  <Rbt.Executable>
rbdock ($Id: //depot/dev/client3/rdock/2013.1/src/exe/rbdock.cxx#4 $)

>  <Rbt.Library>
libRbt.so (2013.1, Build901 2013/11/27)

>  <Rbt.Parameter_File>
/export/apps/rDock/src/rDock_2013.1_src/data/scripts/dock_solv.prm

>  <Rbt.Receptor>
prm/pocket_docking_7.prm

>  <SCORE>
-17.5007

>  <SCORE.INTER>
-14.6315

>  <SCORE.INTER.CONST>
1

>  <SCORE.INTER.POLAR>
0

>  <SCORE.INTER.ROT>
2

>  <SCORE.INTER.SOLV>
9.1972

>  <SCORE.INTER.VDW>
-17.7534

>  <SCORE.INTER.norm>
-0.770076

>  <SCORE.INTRA>
-2.86927

>  <SCORE.INTRA.DIHEDRAL>
-5.02282

>  <SCORE.INTRA.DIHEDRAL.0>
6.26853

>  <SCORE.INTRA.POLAR>
0

>  <SCORE.INTRA.POLAR.0>
0

>  <SCORE.INTRA.REPUL>
0

>  <SCORE.INTRA.REPUL.0>
0

>  <SCORE.INTRA.SOLV>
0.0436673

>  <SCORE.INTRA.SOLV.lig_0>
-38.4926

>  <SCORE.INTRA.VDW>
-0.379691

>  <SCORE.INTRA.VDW.0>
-0.59057

>  <SCORE.INTRA.norm>
-0.151014

>  <SCORE.RESTR>
0

>  <SCORE.RESTR.CAVITY>
0

>  <SCORE.RESTR.norm>
0

>  <SCORE.SYSTEM>
0

>  <SCORE.SYSTEM.CONST>
0

>  <SCORE.SYSTEM.DIHEDRAL>
0

>  <SCORE.SYSTEM.SOLV>
0

>  <SCORE.SYSTEM.norm>
0

>  <SCORE.heavy>
19

>  <SCORE.norm>
-0.92109

>  <RMSD>
6.301

$$$$
ligand
 OpenBabel11021811483D
libRbt.so/2013.1/901 2013/11/27
 19 21  0  0  0  0  0  0  0  0999 V2000
  -10.6047   -6.1050    7.8875 C   0  0  0  0  0  0  0  0  0  0  0  0
  -11.9146   -5.7264    7.4391 O   0  0  0  0  0  0  0  0  0  0  0  0
  -10.1178   -7.3413    7.1282 C   0  0  1  0  0  0  0  0  0  0  0  0
   -8.7788   -7.6904    7.5284 O   0  0  0  0  0  0  0  0  0  0  0  0
  -10.9996   -8.5430    7.4187 C   0  0  1  0  0  0  0  0  0  0  0  0
  -11.8754   -8.8197    6.3187 O   0  0  0  0  0  0  0  0  0  0  0  0
  -10.0536   -9.7018    7.6475 C   0  0  0  0  0  0  0  0  0  0  0  0
   -8.6805   -9.0825    7.8632 C   0  0  2  0  0  0  0  0  0  0  0  0
   -6.6523   -6.6283   12.0412 N   0  0  0  0  0  0  0  0  0  0  0  0
   -6.9259   -6.1489   10.7980 C   0  0  1  0  0  0  0  0  0  0  0  0
   -6.6605   -4.8503   10.5201 N   0  0  0  0  0  0  0  0  0  0  0  0
   -7.4548   -6.9435    9.8280 N   0  0  0  0  0  0  0  0  0  0  0  0
   -7.7379   -8.2550   10.0541 C   0  0  2  0  0  0  0  0  0  0  0  0
   -7.4799   -8.7978   11.2998 C   0  0  1  0  0  0  0  0  0  0  0  0
   -6.9045   -7.9195   12.3501 C   0  0  0  0  0  0  0  0  0  0  0  0
   -6.6590   -8.3627   13.4944 O   0  0  0  0  0  0  0  0  0  0  0  0
   -7.8482  -10.0904   11.2685 N   0  0  0  0  0  0  0  0  0  0  0  0
   -8.3198  -10.3483   10.0262 C   0  0  0  0  0  0  0  0  0  0  0  0
   -8.2511   -9.2271    9.2855 N   0  0  1  0  0  0  0  0  0  0  0  0
  1  2  1  0  0  0  0
  3  1  1  1  0  0  0
  3  4  1  0  0  0  0
  3  5  1  0  0  0  0
  5  6  1  6  0  0  0
  5  7  1  0  0  0  0
  7  8  1  0  0  0  0
  8  4  1  1  0  0  0
  8 19  1  0  0  0  0
  9 15  1  0  0  0  0
  9 10  1  0  0  0  0
 10 11  1  6  0  0  0
 10 12  1  0  0  0  0
 13 12  1  6  0  0  0
 13 14  1  0  0  0  0
 13 19  1  0  0  0  0
 14 15  1  1  0  0  0
 14 17  1  0  0  0  0
 15 16  2  0  0  0  0
 17 18  1  0  0  0  0
 19 18  1  1  0  0  0
M  END
>  <CHROM.1>
177.32747570,-14.22736506,-8.69284457,-7.89836034,9.42826693,-3.10816302
0.86947835,3.07571132

>  <Name>
ligand

>  <RI>
0

>  <Rbt.Current_Directory>
/home/itssahil/PROJECTS/Mol_Feturizer/New_Systems/rnas/3SKI

>  <Rbt.Executable>
rbdock ($Id: //depot/dev/client3/rdock/2013.1/src/exe/rbdock.cxx#4 $)

>  <Rbt.Library>
libRbt.so (2013.1, Build901 2013/11/27)

>  <Rbt.Parameter_File>
/export/apps/rDock/src/rDock_2013.1_src/data/scripts/dock_solv.prm

>  <Rbt.Receptor>
prm/pocket_docking_7.prm

>  <SCORE>
-17.5005

>  <SCORE.INTER>
-14.6312

>  <SCORE.INTER.CONST>
1

>  <SCORE.INTER.POLAR>
0

>  <SCORE.INTER.ROT>
2

>  <SCORE.INTER.SOLV>
9.19792

>  <SCORE.INTER.VDW>
-17.7535

>  <SCORE.INTER.norm>
-0.770064

>  <SCORE.INTRA>
-2.86927

>  <SCORE.INTRA.DIHEDRAL>
-5.02794

>  <SCORE.INTRA.DIHEDRAL.0>
6.26853

>  <SCORE.INTRA.POLAR>
0

>  <SCORE.INTRA.POLAR.0>
0

>  <SCORE.INTRA.REPUL>
0

>  <SCORE.INTRA.REPUL.0>
0

>  <SCORE.INTRA.SOLV>
0.0449593

>  <SCORE.INTRA.SOLV.lig_0>
-38.4926

>  <SCORE.INTRA.VDW>
-0.377778

>  <SCORE.INTRA.VDW.0>
-0.59057

>  <SCORE.INTRA.norm>
-0.151014

>  <SCORE.RESTR>
0

>  <SCORE.RESTR.CAVITY>
0

>  <SCORE.RESTR.norm>
0

>  <SCORE.SYSTEM>
0

>  <SCORE.SYSTEM.CONST>
0

>  <SCORE.SYSTEM.DIHEDRAL>
0

>  <SCORE.SYSTEM.SOLV>
0

>  <SCORE.SYSTEM.norm>
0

>  <SCORE.heavy>
19

>  <SCORE.norm>
-0.921078

>  <RMSD>
6.302

$$$$
ligand
 OpenBabel11021811483D
libRbt.so/2013.1/901 2013/11/27
 19 21  0  0  0  0  0  0  0  0999 V2000
  -10.5107   -6.1085    7.8407 C   0  0  0  0  0  0  0  0  0  0  0  0
  -11.7994   -5.6957    7.3620 O   0  0  0  0  0  0  0  0  0  0  0  0
  -10.0475   -7.3684    7.1059 C   0  0  1  0  0  0  0  0  0  0  0  0
   -8.7183   -7.7394    7.5189 O   0  0  0  0  0  0  0  0  0  0  0  0
  -10.9566   -8.5453    7.4133 C   0  0  1  0  0  0  0  0  0  0  0  0
  -11.8332   -8.8225    6.3141 O   0  0  0  0  0  0  0  0  0  0  0  0
  -10.0372   -9.7201    7.6673 C   0  0  0  0  0  0  0  0  0  0  0  0
   -8.6518   -9.1271    7.8787 C   0  0  2  0  0  0  0  0  0  0  0  0
   -6.6757   -6.6195   12.0500 N   0  0  0  0  0  0  0  0  0  0  0  0
   -6.9435   -6.1534   10.8006 C   0  0  1  0  0  0  0  0  0  0  0  0
   -6.6866   -4.8552   10.5131 N   0  0  0  0  0  0  0  0  0  0  0  0
   -7.4585   -6.9608    9.8336 N   0  0  0  0  0  0  0  0  0  0  0  0
   -7.7328   -8.2725   10.0693 C   0  0  2  0  0  0  0  0  0  0  0  0
   -7.4800   -8.8021   11.3218 C   0  0  1  0  0  0  0  0  0  0  0  0
   -6.9198   -7.9099   12.3685 C   0  0  0  0  0  0  0  0  0  0  0  0
   -6.6794   -8.3409   13.5185 O   0  0  0  0  0  0  0  0  0  0  0  0
   -7.8375  -10.0979   11.2992 N   0  0  0  0  0  0  0  0  0  0  0  0
   -8.2975  -10.3706   10.0557 C   0  0  0  0  0  0  0  0  0  0  0  0
   -8.2322   -9.2556    9.3056 N   0  0  1  0  0  0  0  0  0  0  0  0
  1  2  1  0  0  0  0
  3  1  1  1  0  0  0
  3  4  1  0  0  0  0
  3  5  1  0  0  0  0
  5  6  1  6  0  0  0
  5  7  1  0  0  0  0
  7  8  1  0  0  0  0
  8  4  1  1  0  0  0
  8 19  1  0  0  0  0
  9 15  1  0  0  0  0
  9 10  1  0  0  0  0
 10 11  1  6  0  0  0
 10 12  1  0  0  0  0
 13 12  1  6  0  0  0
 13 14  1  0  0  0  0
 13 19  1  0  0  0  0
 14 15  1  1  0  0  0
 14 17  1  0  0  0  0
 15 16  2  0  0  0  0
 17 18  1  0  0  0  0
 19 18  1  1  0  0  0
M  END
>  <CHROM.1>
176.28546744,-12.43312036,-8.66925825,-7.90761267,9.42924309,-3.09738299
0.88400151,3.06400786

>  <Name>
ligand

>  <RI>
0

>  <Rbt.Current_Directory>
/home/itssahil/PROJECTS/Mol_Feturizer/New_Systems/rnas/3SKI

>  <Rbt.Executable>
rbdock ($Id: //depot/dev/client3/rdock/2013.1/src/exe/rbdock.cxx#4 $)

>  <Rbt.Library>
libRbt.so (2013.1, Build901 2013/11/27)

>  <Rbt.Parameter_File>
/export/apps/rDock/src/rDock_2013.1_src/data/scripts/dock_solv.prm

>  <Rbt.Receptor>
prm/pocket_docking_6.prm

>  <SCORE>
-17.4695

>  <SCORE.INTER>
-14.5715

>  <SCORE.INTER.CONST>
1

>  <SCORE.INTER.POLAR>
0

>  <SCORE.INTER.ROT>
2

>  <SCORE.INTER.SOLV>
9.3688

>  <SCORE.INTER.VDW>
-17.7706

>  <SCORE.INTER.norm>
-0.766919

>  <SCORE.INTRA>
-2.89803

>  <SCORE.INTRA.DIHEDRAL>
-5.00568

>  <SCORE.INTRA.DIHEDRAL.0>
6.26853

>  <SCORE.INTRA.POLAR>
0

>  <SCORE.INTRA.POLAR.0>
0

>  <SCORE.INTRA.REPUL>
0

>  <SCORE.INTRA.REPUL.0>
0

>  <SCORE.INTRA.SOLV>
0.0413322

>  <SCORE.INTRA.SOLV.lig_0>
-38.4926

>  <SCORE.INTRA.VDW>
-0.415852

>  <SCORE.INTRA.VDW.0>
-0.59057

>  <SCORE.INTRA.norm>
-0.152528

>  <SCORE.RESTR>
0

>  <SCORE.RESTR.CAVITY>
0

>  <SCORE.RESTR.norm>
0

>  <SCORE.SYSTEM>
0

>  <SCORE.SYSTEM.CONST>
0

>  <SCORE.SYSTEM.DIHEDRAL>
0

>  <SCORE.SYSTEM.SOLV>
0

>  <SCORE.SYSTEM.norm>
0

>  <SCORE.heavy>
19

>  <SCORE.norm>
-0.919447

>  <RMSD>
6.304

$$$$
ligand
 OpenBabel11021811483D
libRbt.so/2013.1/901 2013/11/27
 19 21  0  0  0  0  0  0  0  0999 V2000
  -10.6113   -6.1097    7.8891 C   0  0  0  0  0  0  0  0  0  0  0  0
  -11.9188   -5.7309    7.4341 O   0  0  0  0  0  0  0  0  0  0  0  0
  -10.1196   -7.3443    7.1302 C   0  0  1  0  0  0  0  0  0  0  0  0
   -8.7809   -7.6908    7.5337 O   0  0  0  0  0  0  0  0  0  0  0  0
  -10.9994   -8.5482    7.4175 C   0  0  1  0  0  0  0  0  0  0  0  0
  -11.8717   -8.8262    6.3151 O   0  0  0  0  0  0  0  0  0  0  0  0
  -10.0515   -9.7051    7.6480 C   0  0  0  0  0  0  0  0  0  0  0  0
   -8.6803   -9.0829    7.8678 C   0  0  2  0  0  0  0  0  0  0  0  0
   -6.6488   -6.6324   12.0464 N   0  0  0  0  0  0  0  0  0  0  0  0
   -6.9176   -6.1534   10.8020 C   0  0  1  0  0  0  0  0  0  0  0  0
   -6.6457   -4.8565   10.5229 N   0  0  0  0  0  0  0  0  0  0  0  0
   -7.4484   -6.9468    9.8320 N   0  0  0  0  0  0  0  0  0  0  0  0
   -7.7381   -8.2567   10.0593 C   0  0  2  0  0  0  0  0  0  0  0  0
   -7.4850   -8.7990   11.3064 C   0  0  1  0  0  0  0  0  0  0  0  0
   -6.9076   -7.9219   12.3566 C   0  0  0  0  0  0  0  0  0  0  0  0
   -6.6663   -8.3647   13.5019 O   0  0  0  0  0  0  0  0  0  0  0  0
   -7.8593  -10.0899   11.2761 N   0  0  0  0  0  0  0  0  0  0  0  0
   -8.3297  -10.3473   10.0333 C   0  0  0  0  0  0  0  0  0  0  0  0
   -8.2543   -9.2275    9.2911 N   0  0  1  0  0  0  0  0  0  0  0  0
  1  2  1  0  0  0  0
  3  1  1  1  0  0  0
  3  4  1  0  0  0  0
  3  5  1  0  0  0  0
  5  6  1  6  0  0  0
  5  7  1  0  0  0  0
  7  8  1  0  0  0  0
  8  4  1  1  0  0  0
  8 19  1  0  0  0  0
  9 15  1  0  0  0  0
  9 10  1  0  0  0  0
 10 11  1  6  0  0  0
 10 12  1  0  0  0  0
 13 12  1  6  0  0  0
 13 14  1  0  0  0  0
 13 19  1  0  0  0  0
 14 15  1  1  0  0  0
 14 17  1  0  0  0  0
 15 16  2  0  0  0  0
 17 18  1  0  0  0  0
 19 18  1  1  0  0  0
M  END
>  <CHROM.1>
177.12084916,-14.64428383,-8.69365222,-7.90117953,9.43160524,-3.10515686
0.86987157,3.07086354

>  <Name>
ligand

>  <RI>
0

>  <Rbt.Current_Directory>
/home/itssahil/PROJECTS/Mol_Feturizer/New_Systems/rnas/3SKI

>  <Rbt.Executable>
rbdock ($Id: //depot/dev/client3/rdock/2013.1/src/exe/rbdock.cxx#4 $)

>  <Rbt.Library>
libRbt.so (2013.1, Build901 2013/11/27)

>  <Rbt.Parameter_File>
/export/apps/rDock/src/rDock_2013.1_src/data/scripts/dock_solv.prm

>  <Rbt.Receptor>
prm/blind_docking_40.prm

>  <SCORE>
-17.5039

>  <SCORE.INTER>
-14.6416

>  <SCORE.INTER.CONST>
1

>  <SCORE.INTER.POLAR>
0

>  <SCORE.INTER.ROT>
2

>  <SCORE.INTER.SOLV>
9.21734

>  <SCORE.INTER.VDW>
-17.7669

>  <SCORE.INTER.norm>
-0.770612

>  <SCORE.INTRA>
-2.86228

>  <SCORE.INTRA.DIHEDRAL>
-5.02359

>  <SCORE.INTRA.DIHEDRAL.0>
6.26853

>  <SCORE.INTRA.POLAR>
0

>  <SCORE.INTRA.POLAR.0>
0

>  <SCORE.INTRA.REPUL>
0

>  <SCORE.INTRA.REPUL.0>
0

>  <SCORE.INTRA.SOLV>
0.0435958

>  <SCORE.INTRA.SOLV.lig_0>
-38.4926

>  <SCORE.INTRA.VDW>
-0.372285

>  <SCORE.INTRA.VDW.0>
-0.59057

>  <SCORE.INTRA.norm>
-0.150646

>  <SCORE.RESTR>
0

>  <SCORE.RESTR.CAVITY>
0

>  <SCORE.RESTR.norm>
0

>  <SCORE.SYSTEM>
0

>  <SCORE.SYSTEM.CONST>
0

>  <SCORE.SYSTEM.DIHEDRAL>
0

>  <SCORE.SYSTEM.SOLV>
0

>  <SCORE.SYSTEM.norm>
0

>  <SCORE.heavy>
19

>  <SCORE.norm>
-0.921258

>  <RMSD>
6.306

$$$$
ligand
 OpenBabel11021811483D
libRbt.so/2013.1/901 2013/11/27
 19 21  0  0  0  0  0  0  0  0999 V2000
  -10.6238   -6.1269    7.8804 C   0  0  0  0  0  0  0  0  0  0  0  0
  -11.9271   -5.7500    7.4119 O   0  0  0  0  0  0  0  0  0  0  0  0
  -10.1181   -7.3544    7.1193 C   0  0  1  0  0  0  0  0  0  0  0  0
   -8.7774   -7.6893    7.5259 O   0  0  0  0  0  0  0  0  0  0  0  0
  -10.9872   -8.5675    7.4002 C   0  0  1  0  0  0  0  0  0  0  0  0
  -11.8534   -8.8504    6.2942 O   0  0  0  0  0  0  0  0  0  0  0  0
  -10.0290   -9.7160    7.6301 C   0  0  0  0  0  0  0  0  0  0  0  0
   -8.6645   -9.0814    7.8560 C   0  0  2  0  0  0  0  0  0  0  0  0
   -6.6556   -6.6282   12.0439 N   0  0  0  0  0  0  0  0  0  0  0  0
   -6.9235   -6.1485   10.7996 C   0  0  1  0  0  0  0  0  0  0  0  0
   -6.6569   -4.8498   10.5233 N   0  0  0  0  0  0  0  0  0  0  0  0
   -7.4479   -6.9428    9.8270 N   0  0  0  0  0  0  0  0  0  0  0  0
   -7.7320   -8.2544   10.0514 C   0  0  2  0  0  0  0  0  0  0  0  0
   -7.4796   -8.7976   11.2982 C   0  0  1  0  0  0  0  0  0  0  0  0
   -6.9091   -7.9195   12.3513 C   0  0  0  0  0  0  0  0  0  0  0  0
   -6.6687   -8.3630   13.4966 O   0  0  0  0  0  0  0  0  0  0  0  0
   -7.8476  -10.0901   11.2648 N   0  0  0  0  0  0  0  0  0  0  0  0
   -8.3135  -10.3478   10.0204 C   0  0  0  0  0  0  0  0  0  0  0  0
   -8.2416   -9.2264    9.2803 N   0  0  1  0  0  0  0  0  0  0  0  0
  1  2  1  0  0  0  0
  3  1  1  1  0  0  0
  3  4  1  0  0  0  0
  3  5  1  0  0  0  0
  5  6  1  6  0  0  0
  5  7  1  0  0  0  0
  7  8  1  0  0  0  0
  8  4  1  1  0  0  0
  8 19  1  0  0  0  0
  9 15  1  0  0  0  0
  9 10  1  0  0  0  0
 10 11  1  6  0  0  0
 10 12  1  0  0  0  0
 13 12  1  6  0  0  0
 13 14  1  0  0  0  0
 13 19  1  0  0  0  0
 14 15  1  1  0  0  0
 14 17  1  0  0  0  0
 15 16  2  0  0  0  0
 17 18  1  0  0  0  0
 19 18  1  1  0  0  0
M  END
>  <CHROM.1>
176.46257325,-14.93236033,-8.68967393,-7.90520163,9.42148724,-3.11446590
0.87220626,3.07892667

>  <Name>
ligand

>  <RI>
0

>  <Rbt.Current_Directory>
/home/itssahil/PROJECTS/Mol_Feturizer/New_Systems/rnas/3SKI

>  <Rbt.Executable>
rbdock ($Id: //depot/dev/client3/rdock/2013.1/src/exe/rbdock.cxx#4 $)

>  <Rbt.Library>
libRbt.so (2013.1, Build901 2013/11/27)

>  <Rbt.Parameter_File>
/export/apps/rDock/src/rDock_2013.1_src/data/scripts/dock_solv.prm

>  <Rbt.Receptor>
prm/pocket_docking_6.prm

>  <SCORE>
-17.5294

>  <SCORE.INTER>
-14.673

>  <SCORE.INTER.CONST>
1

>  <SCORE.INTER.POLAR>
0

>  <SCORE.INTER.ROT>
2

>  <SCORE.INTER.SOLV>
9.26065

>  <SCORE.INTER.VDW>
-17.8022

>  <SCORE.INTER.norm>
-0.772263

>  <SCORE.INTRA>
-2.8564

>  <SCORE.INTRA.DIHEDRAL>
-5.00842

>  <SCORE.INTRA.DIHEDRAL.0>
6.26853

>  <SCORE.INTRA.POLAR>
0

>  <SCORE.INTRA.POLAR.0>
0

>  <SCORE.INTRA.REPUL>
0

>  <SCORE.INTRA.REPUL.0>
0

>  <SCORE.INTRA.SOLV>
0.0400626

>  <SCORE.INTRA.SOLV.lig_0>
-38.4926

>  <SCORE.INTRA.VDW>
-0.372217

>  <SCORE.INTRA.VDW.0>
-0.59057

>  <SCORE.INTRA.norm>
-0.150337

>  <SCORE.RESTR>
0

>  <SCORE.RESTR.CAVITY>
0

>  <SCORE.RESTR.norm>
0

>  <SCORE.SYSTEM>
0

>  <SCORE.SYSTEM.CONST>
0

>  <SCORE.SYSTEM.DIHEDRAL>
0

>  <SCORE.SYSTEM.SOLV>
0

>  <SCORE.SYSTEM.norm>
0

>  <SCORE.heavy>
19

>  <SCORE.norm>
-0.922599

>  <RMSD>
6.306

$$$$
ligand
 OpenBabel11021811483D
libRbt.so/2013.1/901 2013/11/27
 19 21  0  0  0  0  0  0  0  0999 V2000
  -10.6199   -6.1250    7.8839 C   0  0  0  0  0  0  0  0  0  0  0  0
  -11.9295   -5.7577    7.4255 O   0  0  0  0  0  0  0  0  0  0  0  0
  -10.1134   -7.3523    7.1229 C   0  0  1  0  0  0  0  0  0  0  0  0
   -8.7736   -7.6882    7.5319 O   0  0  0  0  0  0  0  0  0  0  0  0
  -10.9837   -8.5651    7.4014 C   0  0  1  0  0  0  0  0  0  0  0  0
  -11.8480   -8.8467    6.2935 O   0  0  0  0  0  0  0  0  0  0  0  0
  -10.0266   -9.7142    7.6323 C   0  0  0  0  0  0  0  0  0  0  0  0
   -8.6622   -9.0806    7.8612 C   0  0  2  0  0  0  0  0  0  0  0  0
   -6.6539   -6.6329   12.0528 N   0  0  0  0  0  0  0  0  0  0  0  0
   -6.9185   -6.1524   10.8080 C   0  0  1  0  0  0  0  0  0  0  0  0
   -6.6481   -4.8544   10.5323 N   0  0  0  0  0  0  0  0  0  0  0  0
   -7.4433   -6.9453    9.8344 N   0  0  0  0  0  0  0  0  0  0  0  0
   -7.7312   -8.2562   10.0583 C   0  0  2  0  0  0  0  0  0  0  0  0
   -7.4823   -8.8001   11.3055 C   0  0  1  0  0  0  0  0  0  0  0  0
   -6.9113   -7.9235   12.3596 C   0  0  0  0  0  0  0  0  0  0  0  0
   -6.6740   -8.3677   13.5052 O   0  0  0  0  0  0  0  0  0  0  0  0
   -7.8536  -10.0917   11.2714 N   0  0  0  0  0  0  0  0  0  0  0  0
   -8.3181  -10.3480   10.0261 C   0  0  0  0  0  0  0  0  0  0  0  0
   -8.2420   -9.2268    9.2862 N   0  0  1  0  0  0  0  0  0  0  0  0
  1  2  1  0  0  0  0
  3  1  1  1  0  0  0
  3  4  1  0  0  0  0
  3  5  1  0  0  0  0
  5  6  1  6  0  0  0
  5  7  1  0  0  0  0
  7  8  1  0  0  0  0
  8  4  1  1  0  0  0
  8 19  1  0  0  0  0
  9 15  1  0  0  0  0
  9 10  1  0  0  0  0
 10 11  1  6  0  0  0
 10 12  1  0  0  0  0
 13 12  1  6  0  0  0
 13 14  1  0  0  0  0
 13 19  1  0  0  0  0
 14 15  1  1  0  0  0
 14 17  1  0  0  0  0
 15 16  2  0  0  0  0
 17 18  1  0  0  0  0
 19 18  1  1  0  0  0
M  END
>  <CHROM.1>
177.22488847,-15.05412758,-8.68842444,-7.90651269,9.42768822,-3.11289855
0.87296912,3.07725397

>  <Name>
ligand

>  <RI>
0

>  <Rbt.Current_Directory>
/home/itssahil/PROJECTS/Mol_Feturizer/New_Systems/rnas/3SKI

>  <Rbt.Executable>
rbdock ($Id: //depot/dev/client3/rdock/2013.1/src/exe/rbdock.cxx#4 $)

>  <Rbt.Library>
libRbt.so (2013.1, Build901 2013/11/27)

>  <Rbt.Parameter_File>
/export/apps/rDock/src/rDock_2013.1_src/data/scripts/dock_solv.prm

>  <Rbt.Receptor>
prm/pocket_docking_7.prm

>  <SCORE>
-17.5284

>  <SCORE.INTER>
-14.6731

>  <SCORE.INTER.CONST>
1

>  <SCORE.INTER.POLAR>
0

>  <SCORE.INTER.ROT>
2

>  <SCORE.INTER.SOLV>
9.28065

>  <SCORE.INTER.VDW>
-17.8089

>  <SCORE.INTER.norm>
-0.772266

>  <SCORE.INTRA>
-2.85539

>  <SCORE.INTRA.DIHEDRAL>
-5.02539

>  <SCORE.INTRA.DIHEDRAL.0>
6.26853

>  <SCORE.INTRA.POLAR>
0

>  <SCORE.INTRA.POLAR.0>
0

>  <SCORE.INTRA.REPUL>
0

>  <SCORE.INTRA.REPUL.0>
0

>  <SCORE.INTRA.SOLV>
0.0437874

>  <SCORE.INTRA.SOLV.lig_0>
-38.4926

>  <SCORE.INTRA.VDW>
-0.364594

>  <SCORE.INTRA.VDW.0>
-0.59057

>  <SCORE.INTRA.norm>
-0.150284

>  <SCORE.RESTR>
0

>  <SCORE.RESTR.CAVITY>
0

>  <SCORE.RESTR.norm>
0

>  <SCORE.SYSTEM>
0

>  <SCORE.SYSTEM.CONST>
0

>  <SCORE.SYSTEM.DIHEDRAL>
0

>  <SCORE.SYSTEM.SOLV>
0

>  <SCORE.SYSTEM.norm>
0

>  <SCORE.heavy>
19

>  <SCORE.norm>
-0.92255

>  <RMSD>
6.307

$$$$
ligand
 OpenBabel11021811483D
libRbt.so/2013.1/901 2013/11/27
 19 21  0  0  0  0  0  0  0  0999 V2000
  -10.6042   -6.1051    7.8556 C   0  0  0  0  0  0  0  0  0  0  0  0
  -11.9173   -5.7383    7.4066 O   0  0  0  0  0  0  0  0  0  0  0  0
  -10.1186   -7.3552    7.1186 C   0  0  1  0  0  0  0  0  0  0  0  0
   -8.7861   -7.7079    7.5371 O   0  0  0  0  0  0  0  0  0  0  0  0
  -11.0116   -8.5466    7.4171 C   0  0  1  0  0  0  0  0  0  0  0  0
  -11.8784   -8.8328    6.3124 O   0  0  0  0  0  0  0  0  0  0  0  0
  -10.0761   -9.7085    7.6716 C   0  0  0  0  0  0  0  0  0  0  0  0
   -8.7009   -9.0958    7.8923 C   0  0  2  0  0  0  0  0  0  0  0  0
   -6.7278   -6.5886   12.0653 N   0  0  0  0  0  0  0  0  0  0  0  0
   -6.9893   -6.1238   10.8140 C   0  0  1  0  0  0  0  0  0  0  0  0
   -6.7256   -4.8273   10.5248 N   0  0  0  0  0  0  0  0  0  0  0  0
   -7.5046   -6.9308    9.8469 N   0  0  0  0  0  0  0  0  0  0  0  0
   -7.7855   -8.2409   10.0843 C   0  0  2  0  0  0  0  0  0  0  0  0
   -7.5392   -8.7691   11.3387 C   0  0  1  0  0  0  0  0  0  0  0  0
   -6.9787   -7.8772   12.3855 C   0  0  0  0  0  0  0  0  0  0  0  0
   -6.7441   -8.3070   13.5372 O   0  0  0  0  0  0  0  0  0  0  0  0
   -7.9024  -10.0633   11.3175 N   0  0  0  0  0  0  0  0  0  0  0  0
   -8.3594  -10.3365   10.0730 C   0  0  0  0  0  0  0  0  0  0  0  0
   -8.2867   -9.2233    9.3208 N   0  0  1  0  0  0  0  0  0  0  0  0
  1  2  1  0  0  0  0
  3  1  1  1  0  0  0
  3  4  1  0  0  0  0
  3  5  1  0  0  0  0
  5  6  1  6  0  0  0
  5  7  1  0  0  0  0
  7  8  1  0  0  0  0
  8  4  1  1  0  0  0
  8 19  1  0  0  0  0
  9 15  1  0  0  0  0
  9 10  1  0  0  0  0
 10 11  1  6  0  0  0
 10 12  1  0  0  0  0
 13 12  1  6  0  0  0
 13 14  1  0  0  0  0
 13 19  1  0  0  0  0
 14 15  1  1  0  0  0
 14 17  1  0  0  0  0
 15 16  2  0  0  0  0
 17 18  1  0  0  0  0
 19 18  1  1  0  0  0
M  END
>  <CHROM.1>
178.40154143,-13.58866025,-8.72978296,-7.88813874,9.44429190,-3.10711862
0.88224270,3.06562767

>  <Name>
ligand

>  <RI>
0

>  <Rbt.Current_Directory>
/home/itssahil/PROJECTS/Mol_Feturizer/New_Systems/rnas/3SKI

>  <Rbt.Executable>
rbdock ($Id: //depot/dev/client3/rdock/2013.1/src/exe/rbdock.cxx#4 $)

>  <Rbt.Library>
libRbt.so (2013.1, Build901 2013/11/27)

>  <Rbt.Parameter_File>
/export/apps/rDock/src/rDock_2013.1_src/data/scripts/dock_solv.prm

>  <Rbt.Receptor>
prm/pocket_docking_6.prm

>  <SCORE>
-17.4413

>  <SCORE.INTER>
-14.5643

>  <SCORE.INTER.CONST>
1

>  <SCORE.INTER.POLAR>
0

>  <SCORE.INTER.ROT>
2

>  <SCORE.INTER.SOLV>
9.17919

>  <SCORE.INTER.VDW>
-17.7026

>  <SCORE.INTER.norm>
-0.766542

>  <SCORE.INTRA>
-2.87702

>  <SCORE.INTRA.DIHEDRAL>
-5.04456

>  <SCORE.INTRA.DIHEDRAL.0>
6.26853

>  <SCORE.INTRA.POLAR>
0

>  <SCORE.INTRA.POLAR.0>
0

>  <SCORE.INTRA.REPUL>
0

>  <SCORE.INTRA.REPUL.0>
0

>  <SCORE.INTRA.SOLV>
0.0508534

>  <SCORE.INTRA.SOLV.lig_0>
-38.4926

>  <SCORE.INTRA.VDW>
-0.380162

>  <SCORE.INTRA.VDW.0>
-0.59057

>  <SCORE.INTRA.norm>
-0.151422

>  <SCORE.RESTR>
0

>  <SCORE.RESTR.CAVITY>
0

>  <SCORE.RESTR.norm>
0

>  <SCORE.SYSTEM>
0

>  <SCORE.SYSTEM.CONST>
0

>  <SCORE.SYSTEM.DIHEDRAL>
0

>  <SCORE.SYSTEM.SOLV>
0

>  <SCORE.SYSTEM.norm>
0

>  <SCORE.heavy>
19

>  <SCORE.norm>
-0.917963

>  <RMSD>
6.308

$$$$
ligand
 OpenBabel11021811483D
libRbt.so/2013.1/901 2013/11/27
 19 21  0  0  0  0  0  0  0  0999 V2000
   -6.5850   -0.3124    9.9615 C   0  0  0  0  0  0  0  0  0  0  0  0
   -7.2221    0.1955   11.1432 O   0  0  0  0  0  0  0  0  0  0  0  0
   -5.5312   -1.3584   10.3317 C   0  0  1  0  0  0  0  0  0  0  0  0
   -6.1459   -2.5026   10.9546 O   0  0  0  0  0  0  0  0  0  0  0  0
   -4.8015   -1.8589    9.0976 C   0  0  1  0  0  0  0  0  0  0  0  0
   -3.4902   -1.2884    9.0053 O   0  0  0  0  0  0  0  0  0  0  0  0
   -4.7159   -3.3619    9.2513 C   0  0  0  0  0  0  0  0  0  0  0  0
   -5.7091   -3.7262   10.3450 C   0  0  2  0  0  0  0  0  0  0  0  0
   -8.5762   -8.1247   10.5057 N   0  0  0  0  0  0  0  0  0  0  0  0
   -7.4750   -7.7767   11.2244 C   0  0  1  0  0  0  0  0  0  0  0  0
   -6.9840   -8.6463   12.1391 N   0  0  0  0  0  0  0  0  0  0  0  0
   -6.8542   -6.5793   11.0427 N   0  0  0  0  0  0  0  0  0  0  0  0
   -7.3051   -5.6709   10.1356 C   0  0  2  0  0  0  0  0  0  0  0  0
   -8.4210   -5.9708    9.3753 C   0  0  1  0  0  0  0  0  0  0  0  0
   -9.0903   -7.2800    9.5847 C   0  0  0  0  0  0  0  0  0  0  0  0
  -10.1062   -7.5947    8.9253 O   0  0  0  0  0  0  0  0  0  0  0  0
   -8.6628   -4.9219    8.5699 N   0  0  0  0  0  0  0  0  0  0  0  0
   -7.7126   -3.9907    8.8195 C   0  0  0  0  0  0  0  0  0  0  0  0
   -6.8838   -4.4497    9.7750 N   0  0  1  0  0  0  0  0  0  0  0  0
  1  2  1  0  0  0  0
  3  1  1  6  0  0  0
  3  4  1  0  0  0  0
  3  5  1  0  0  0  0
  5  6  1  1  0  0  0
  5  7  1  0  0  0  0
  7  8  1  0  0  0  0
  8  4  1  6  0  0  0
  8 19  1  0  0  0  0
  9 15  1  0  0  0  0
  9 10  1  0  0  0  0
 10 11  1  6  0  0  0
 10 12  1  0  0  0  0
 13 12  1  6  0  0  0
 13 14  1  0  0  0  0
 13 19  1  0  0  0  0
 14 15  1  1  0  0  0
 14 17  1  0  0  0  0
 15 16  2  0  0  0  0
 17 18  1  0  0  0  0
 19 18  1  1  0  0  0
M  END
>  <CHROM.1>
63.75983881,-118.97023598,-6.93338202,-4.39476662,10.01762714,1.10906850
-0.34263472,-0.21687463

>  <Name>
ligand

>  <RI>
0

>  <Rbt.Current_Directory>
/home/itssahil/PROJECTS/Mol_Feturizer/New_Systems/rnas/3SKI

>  <Rbt.Executable>
rbdock ($Id: //depot/dev/client3/rdock/2013.1/src/exe/rbdock.cxx#4 $)

>  <Rbt.Library>
libRbt.so (2013.1, Build901 2013/11/27)

>  <Rbt.Parameter_File>
/export/apps/rDock/src/rDock_2013.1_src/data/scripts/dock_solv.prm

>  <Rbt.Receptor>
prm/pocket_docking_2.prm

>  <SCORE>
-13.7447

>  <SCORE.INTER>
-10.6673

>  <SCORE.INTER.CONST>
1

>  <SCORE.INTER.POLAR>
0

>  <SCORE.INTER.ROT>
2

>  <SCORE.INTER.SOLV>
12.7838

>  <SCORE.INTER.VDW>
-16.3061

>  <SCORE.INTER.norm>
-0.561438

>  <SCORE.INTRA>
-3.10267

>  <SCORE.INTRA.DIHEDRAL>
-5.01406

>  <SCORE.INTRA.DIHEDRAL.0>
6.26853

>  <SCORE.INTRA.POLAR>
0

>  <SCORE.INTRA.POLAR.0>
0

>  <SCORE.INTRA.REPUL>
0

>  <SCORE.INTRA.REPUL.0>
0

>  <SCORE.INTRA.SOLV>
-0.246161

>  <SCORE.INTRA.SOLV.lig_0>
-38.4926

>  <SCORE.INTRA.VDW>
-0.472558

>  <SCORE.INTRA.VDW.0>
-0.59057

>  <SCORE.INTRA.norm>
-0.163298

>  <SCORE.RESTR>
0.0252679

>  <SCORE.RESTR.CAVITY>
0.0252679

>  <SCORE.RESTR.norm>
0.00132989

>  <SCORE.SYSTEM>
0

>  <SCORE.SYSTEM.CONST>
0

>  <SCORE.SYSTEM.DIHEDRAL>
0

>  <SCORE.SYSTEM.SOLV>
0

>  <SCORE.SYSTEM.norm>
0

>  <SCORE.heavy>
19

>  <SCORE.norm>
-0.723406

>  <RMSD>
6.316

$$$$
ligand
 OpenBabel11021811483D
libRbt.so/2013.1/901 2013/11/27
 19 21  0  0  0  0  0  0  0  0999 V2000
  -10.6207   -6.1294    7.8562 C   0  0  0  0  0  0  0  0  0  0  0  0
  -11.9358   -5.7785    7.4006 O   0  0  0  0  0  0  0  0  0  0  0  0
  -10.1123   -7.3678    7.1148 C   0  0  1  0  0  0  0  0  0  0  0  0
   -8.7792   -7.7063    7.5428 O   0  0  0  0  0  0  0  0  0  0  0  0
  -10.9925   -8.5727    7.3966 C   0  0  1  0  0  0  0  0  0  0  0  0
  -11.8456   -8.8620    6.2821 O   0  0  0  0  0  0  0  0  0  0  0  0
  -10.0444   -9.7243    7.6512 C   0  0  0  0  0  0  0  0  0  0  0  0
   -8.6792   -9.0956    7.8888 C   0  0  2  0  0  0  0  0  0  0  0  0
   -6.6903   -6.6165   12.0710 N   0  0  0  0  0  0  0  0  0  0  0  0
   -6.9360   -6.1490   10.8175 C   0  0  1  0  0  0  0  0  0  0  0  0
   -6.6486   -4.8576   10.5284 N   0  0  0  0  0  0  0  0  0  0  0  0
   -7.4588   -6.9485    9.8482 N   0  0  0  0  0  0  0  0  0  0  0  0
   -7.7633   -8.2534   10.0854 C   0  0  2  0  0  0  0  0  0  0  0  0
   -7.5339   -8.7840   11.3420 C   0  0  1  0  0  0  0  0  0  0  0  0
   -6.9649   -7.9003   12.3912 C   0  0  0  0  0  0  0  0  0  0  0  0
   -6.7449   -8.3324   13.5449 O   0  0  0  0  0  0  0  0  0  0  0  0
   -7.9188  -10.0719   11.3200 N   0  0  0  0  0  0  0  0  0  0  0  0
   -8.3725  -10.3390   10.0730 C   0  0  0  0  0  0  0  0  0  0  0  0
   -8.2762   -9.2281    9.3200 N   0  0  1  0  0  0  0  0  0  0  0  0
  1  2  1  0  0  0  0
  3  1  1  1  0  0  0
  3  4  1  0  0  0  0
  3  5  1  0  0  0  0
  5  6  1  6  0  0  0
  5  7  1  0  0  0  0
  7  8  1  0  0  0  0
  8  4  1  1  0  0  0
  8 19  1  0  0  0  0
  9 15  1  0  0  0  0
  9 10  1  0  0  0  0
 10 11  1  6  0  0  0
 10 12  1  0  0  0  0
 13 12  1  6  0  0  0
 13 14  1  0  0  0  0
 13 19  1  0  0  0  0
 14 15  1  1  0  0  0
 14 17  1  0  0  0  0
 15 16  2  0  0  0  0
 17 18  1  0  0  0  0
 19 18  1  1  0  0  0
M  END
>  <CHROM.1>
178.55886570,-15.37238350,-8.71334400,-7.90631247,9.44171535,-3.09954558
0.88139481,3.05248638

>  <Name>
ligand

>  <RI>
0

>  <Rbt.Current_Directory>
/home/itssahil/PROJECTS/Mol_Feturizer/New_Systems/rnas/3SKI

>  <Rbt.Executable>
rbdock ($Id: //depot/dev/client3/rdock/2013.1/src/exe/rbdock.cxx#4 $)

>  <Rbt.Library>
libRbt.so (2013.1, Build901 2013/11/27)

>  <Rbt.Parameter_File>
/export/apps/rDock/src/rDock_2013.1_src/data/scripts/dock_solv.prm

>  <Rbt.Receptor>
prm/pocket_docking_7.prm

>  <SCORE>
-17.4647

>  <SCORE.INTER>
-14.6365

>  <SCORE.INTER.CONST>
1

>  <SCORE.INTER.POLAR>
0

>  <SCORE.INTER.ROT>
2

>  <SCORE.INTER.SOLV>
9.30316

>  <SCORE.INTER.VDW>
-17.7921

>  <SCORE.INTER.norm>
-0.770343

>  <SCORE.INTRA>
-2.8282

>  <SCORE.INTRA.DIHEDRAL>
-5.04498

>  <SCORE.INTRA.DIHEDRAL.0>
6.26853

>  <SCORE.INTRA.POLAR>
0

>  <SCORE.INTRA.POLAR.0>
0

>  <SCORE.INTRA.REPUL>
0

>  <SCORE.INTRA.REPUL.0>
0

>  <SCORE.INTRA.SOLV>
0.0501694

>  <SCORE.INTRA.SOLV.lig_0>
-38.4926

>  <SCORE.INTRA.VDW>
-0.330794

>  <SCORE.INTRA.VDW.0>
-0.59057

>  <SCORE.INTRA.norm>
-0.148853

>  <SCORE.RESTR>
0

>  <SCORE.RESTR.CAVITY>
0

>  <SCORE.RESTR.norm>
0

>  <SCORE.SYSTEM>
0

>  <SCORE.SYSTEM.CONST>
0

>  <SCORE.SYSTEM.DIHEDRAL>
0

>  <SCORE.SYSTEM.SOLV>
0

>  <SCORE.SYSTEM.norm>
0

>  <SCORE.heavy>
19

>  <SCORE.norm>
-0.919196

>  <RMSD>
6.319

$$$$
ligand
 OpenBabel11021811483D
libRbt.so/2013.1/901 2013/11/27
 19 21  0  0  0  0  0  0  0  0999 V2000
   -6.6445   -0.0931    9.9861 C   0  0  0  0  0  0  0  0  0  0  0  0
   -7.1691    0.5313   11.1672 O   0  0  0  0  0  0  0  0  0  0  0  0
   -5.6063   -1.1535   10.3598 C   0  0  1  0  0  0  0  0  0  0  0  0
   -6.2352   -2.2763   11.0070 O   0  0  0  0  0  0  0  0  0  0  0  0
   -4.9009   -1.6860    9.1250 C   0  0  1  0  0  0  0  0  0  0  0  0
   -3.5801   -1.1421    9.0090 O   0  0  0  0  0  0  0  0  0  0  0  0
   -4.8419   -3.1880    9.3004 C   0  0  0  0  0  0  0  0  0  0  0  0
   -5.8289   -3.5169   10.4109 C   0  0  2  0  0  0  0  0  0  0  0  0
   -8.5736   -7.9957   10.4066 N   0  0  0  0  0  0  0  0  0  0  0  0
   -7.4327   -7.6746   11.0741 C   0  0  1  0  0  0  0  0  0  0  0  0
   -6.8580   -8.6001   11.8785 N   0  0  0  0  0  0  0  0  0  0  0  0
   -6.8546   -6.4489   10.9491 N   0  0  0  0  0  0  0  0  0  0  0  0
   -7.3897   -5.4842   10.1526 C   0  0  2  0  0  0  0  0  0  0  0  0
   -8.5493   -5.7545    9.4487 C   0  0  1  0  0  0  0  0  0  0  0  0
   -9.1712   -7.0951    9.5955 C   0  0  0  0  0  0  0  0  0  0  0  0
  -10.2237   -7.3853    8.9838 O   0  0  0  0  0  0  0  0  0  0  0  0
   -8.8720   -4.6518    8.7507 N   0  0  0  0  0  0  0  0  0  0  0  0
   -7.9286   -3.7164    9.0100 C   0  0  0  0  0  0  0  0  0  0  0  0
   -7.0237   -4.2262    9.8654 N   0  0  1  0  0  0  0  0  0  0  0  0
  1  2  1  0  0  0  0
  3  1  1  6  0  0  0
  3  4  1  0  0  0  0
  3  5  1  0  0  0  0
  5  6  1  1  0  0  0
  5  7  1  0  0  0  0
  7  8  1  0  0  0  0
  8  4  1  6  0  0  0
  8 19  1  0  0  0  0
  9 15  1  0  0  0  0
  9 10  1  0  0  0  0
 10 11  1  6  0  0  0
 10 12  1  0  0  0  0
 13 12  1  6  0  0  0
 13 14  1  0  0  0  0
 13 19  1  0  0  0  0
 14 15  1  1  0  0  0
 14 17  1  0  0  0  0
 15 16  2  0  0  0  0
 17 18  1  0  0  0  0
 19 18  1  1  0  0  0
M  END
>  <CHROM.1>
69.05043706,-125.91877792,-7.00627000,-4.20098484,10.03286699,1.13690732
-0.26293346,-0.15387694

>  <Name>
ligand

>  <RI>
0

>  <Rbt.Current_Directory>
/home/itssahil/PROJECTS/Mol_Feturizer/New_Systems/rnas/3SKI

>  <Rbt.Executable>
rbdock ($Id: //depot/dev/client3/rdock/2013.1/src/exe/rbdock.cxx#4 $)

>  <Rbt.Library>
libRbt.so (2013.1, Build901 2013/11/27)

>  <Rbt.Parameter_File>
/export/apps/rDock/src/rDock_2013.1_src/data/scripts/dock_solv.prm

>  <Rbt.Receptor>
prm/pocket_docking_2.prm

>  <SCORE>
-14.2645

>  <SCORE.INTER>
-11.374

>  <SCORE.INTER.CONST>
1

>  <SCORE.INTER.POLAR>
0

>  <SCORE.INTER.ROT>
2

>  <SCORE.INTER.SOLV>
11.6816

>  <SCORE.INTER.VDW>
-16.4098

>  <SCORE.INTER.norm>
-0.598629

>  <SCORE.INTRA>
-3.04764

>  <SCORE.INTRA.DIHEDRAL>
-4.76594

>  <SCORE.INTRA.DIHEDRAL.0>
6.26853

>  <SCORE.INTRA.POLAR>
0

>  <SCORE.INTRA.POLAR.0>
0

>  <SCORE.INTRA.REPUL>
0

>  <SCORE.INTRA.REPUL.0>
0

>  <SCORE.INTRA.SOLV>
-0.265138

>  <SCORE.INTRA.SOLV.lig_0>
-38.4926

>  <SCORE.INTRA.VDW>
-0.532099

>  <SCORE.INTRA.VDW.0>
-0.59057

>  <SCORE.INTRA.norm>
-0.160402

>  <SCORE.RESTR>
0.157063

>  <SCORE.RESTR.CAVITY>
0.157063

>  <SCORE.RESTR.norm>
0.00826648

>  <SCORE.SYSTEM>
0

>  <SCORE.SYSTEM.CONST>
0

>  <SCORE.SYSTEM.DIHEDRAL>
0

>  <SCORE.SYSTEM.SOLV>
0

>  <SCORE.SYSTEM.norm>
0

>  <SCORE.heavy>
19

>  <SCORE.norm>
-0.750765

>  <RMSD>
6.331

$$$$
ligand
 OpenBabel11021811483D
libRbt.so/2013.1/901 2013/11/27
 19 21  0  0  0  0  0  0  0  0999 V2000
  -10.6529   -6.1469    7.8686 C   0  0  0  0  0  0  0  0  0  0  0  0
  -11.9624   -5.7827    7.4073 O   0  0  0  0  0  0  0  0  0  0  0  0
  -10.1507   -7.3859    7.1239 C   0  0  1  0  0  0  0  0  0  0  0  0
   -8.8147   -7.7252    7.5424 O   0  0  0  0  0  0  0  0  0  0  0  0
  -11.0296   -8.5901    7.4126 C   0  0  1  0  0  0  0  0  0  0  0  0
  -11.8909   -8.8792    6.3044 O   0  0  0  0  0  0  0  0  0  0  0  0
  -10.0805   -9.7423    7.6608 C   0  0  0  0  0  0  0  0  0  0  0  0
   -8.7132   -9.1143    7.8882 C   0  0  2  0  0  0  0  0  0  0  0  0
   -6.7136   -6.6290   12.0617 N   0  0  0  0  0  0  0  0  0  0  0  0
   -6.9707   -6.1610   10.8106 C   0  0  1  0  0  0  0  0  0  0  0  0
   -6.6939   -4.8672   10.5219 N   0  0  0  0  0  0  0  0  0  0  0  0
   -7.4944   -6.9624    9.8434 N   0  0  0  0  0  0  0  0  0  0  0  0
   -7.7886   -8.2697   10.0802 C   0  0  2  0  0  0  0  0  0  0  0  0
   -7.5474   -8.8009   11.3344 C   0  0  1  0  0  0  0  0  0  0  0  0
   -6.9775   -7.9151   12.3814 C   0  0  0  0  0  0  0  0  0  0  0  0
   -6.7470   -8.3477   13.5329 O   0  0  0  0  0  0  0  0  0  0  0  0
   -7.9237  -10.0913   11.3127 N   0  0  0  0  0  0  0  0  0  0  0  0
   -8.3838  -10.3593   10.0683 C   0  0  0  0  0  0  0  0  0  0  0  0
   -8.2999   -9.2466    9.3165 N   0  0  1  0  0  0  0  0  0  0  0  0
  1  2  1  0  0  0  0
  3  1  1  1  0  0  0
  3  4  1  0  0  0  0
  3  5  1  0  0  0  0
  5  6  1  6  0  0  0
  5  7  1  0  0  0  0
  7  8  1  0  0  0  0
  8  4  1  1  0  0  0
  8 19  1  0  0  0  0
  9 15  1  0  0  0  0
  9 10  1  0  0  0  0
 10 11  1  6  0  0  0
 10 12  1  0  0  0  0
 13 12  1  6  0  0  0
 13 14  1  0  0  0  0
 13 19  1  0  0  0  0
 14 15  1  1  0  0  0
 14 17  1  0  0  0  0
 15 16  2  0  0  0  0
 17 18  1  0  0  0  0
 19 18  1  1  0  0  0
M  END
>  <CHROM.1>
177.64754151,-14.92908232,-8.74076348,-7.92197482,9.44188618,-3.10543316
0.87727010,3.06087720

>  <Name>
ligand

>  <RI>
0

>  <Rbt.Current_Directory>
/home/itssahil/PROJECTS/Mol_Feturizer/New_Systems/rnas/3SKI

>  <Rbt.Executable>
rbdock ($Id: //depot/dev/client3/rdock/2013.1/src/exe/rbdock.cxx#4 $)

>  <Rbt.Library>
libRbt.so (2013.1, Build901 2013/11/27)

>  <Rbt.Parameter_File>
/export/apps/rDock/src/rDock_2013.1_src/data/scripts/dock_solv.prm

>  <Rbt.Receptor>
prm/pocket_docking_8.prm

>  <SCORE>
-17.4285

>  <SCORE.INTER>
-14.5714

>  <SCORE.INTER.CONST>
1

>  <SCORE.INTER.POLAR>
0

>  <SCORE.INTER.ROT>
2

>  <SCORE.INTER.SOLV>
9.17783

>  <SCORE.INTER.VDW>
-17.7069

>  <SCORE.INTER.norm>
-0.766916

>  <SCORE.INTRA>
-2.85705

>  <SCORE.INTRA.DIHEDRAL>
-5.03313

>  <SCORE.INTRA.DIHEDRAL.0>
6.26853

>  <SCORE.INTRA.POLAR>
0

>  <SCORE.INTRA.POLAR.0>
0

>  <SCORE.INTRA.REPUL>
0

>  <SCORE.INTRA.REPUL.0>
0

>  <SCORE.INTRA.SOLV>
0.0459992

>  <SCORE.INTRA.SOLV.lig_0>
-38.4926

>  <SCORE.INTRA.VDW>
-0.363481

>  <SCORE.INTRA.VDW.0>
-0.59057

>  <SCORE.INTRA.norm>
-0.150371

>  <SCORE.RESTR>
0

>  <SCORE.RESTR.CAVITY>
0

>  <SCORE.RESTR.norm>
0

>  <SCORE.SYSTEM>
0

>  <SCORE.SYSTEM.CONST>
0

>  <SCORE.SYSTEM.DIHEDRAL>
0

>  <SCORE.SYSTEM.SOLV>
0

>  <SCORE.SYSTEM.norm>
0

>  <SCORE.heavy>
19

>  <SCORE.norm>
-0.917287

>  <RMSD>
6.336

$$$$
ligand
 OpenBabel11021811483D
libRbt.so/2013.1/901 2013/11/27
 19 21  0  0  0  0  0  0  0  0999 V2000
  -10.6070   -6.1223    7.8793 C   0  0  0  0  0  0  0  0  0  0  0  0
  -11.9155   -5.7437    7.4268 O   0  0  0  0  0  0  0  0  0  0  0  0
  -10.1239   -7.3673    7.1321 C   0  0  1  0  0  0  0  0  0  0  0  0
   -8.7924   -7.7264    7.5481 O   0  0  0  0  0  0  0  0  0  0  0  0
  -11.0197   -8.5591    7.4204 C   0  0  1  0  0  0  0  0  0  0  0  0
  -11.8867   -8.8342    6.3131 O   0  0  0  0  0  0  0  0  0  0  0  0
  -10.0869   -9.7252    7.6655 C   0  0  0  0  0  0  0  0  0  0  0  0
   -8.7103   -9.1174    7.8917 C   0  0  2  0  0  0  0  0  0  0  0  0
   -6.7118   -6.6552   12.0794 N   0  0  0  0  0  0  0  0  0  0  0  0
   -6.9693   -6.1802   10.8311 C   0  0  1  0  0  0  0  0  0  0  0  0
   -6.6933   -4.8845   10.5499 N   0  0  0  0  0  0  0  0  0  0  0  0
   -7.4927   -6.9762    9.8593 N   0  0  0  0  0  0  0  0  0  0  0  0
   -7.7860   -8.2850   10.0885 C   0  0  2  0  0  0  0  0  0  0  0  0
   -7.5444   -8.8233   11.3396 C   0  0  1  0  0  0  0  0  0  0  0  0
   -6.9750   -7.9434   12.3917 C   0  0  0  0  0  0  0  0  0  0  0  0
   -6.7442   -8.3825   13.5406 O   0  0  0  0  0  0  0  0  0  0  0  0
   -7.9201  -10.1138   11.3104 N   0  0  0  0  0  0  0  0  0  0  0  0
   -8.3800  -10.3749   10.0645 C   0  0  0  0  0  0  0  0  0  0  0  0
   -8.2969   -9.2577    9.3192 N   0  0  1  0  0  0  0  0  0  0  0  0
  1  2  1  0  0  0  0
  3  1  1  1  0  0  0
  3  4  1  0  0  0  0
  3  5  1  0  0  0  0
  5  6  1  6  0  0  0
  5  7  1  0  0  0  0
  7  8  1  0  0  0  0
  8  4  1  1  0  0  0
  8 19  1  0  0  0  0
  9 15  1  0  0  0  0
  9 10  1  0  0  0  0
 10 11  1  6  0  0  0
 10 12  1  0  0  0  0
 13 12  1  6  0  0  0
 13 14  1  0  0  0  0
 13 19  1  0  0  0  0
 14 15  1  1  0  0  0
 14 17  1  0  0  0  0
 15 16  2  0  0  0  0
 17 18  1  0  0  0  0
 19 18  1  1  0  0  0
M  END
>  <CHROM.1>
178.02387978,-14.03033043,-8.73081546,-7.92401242,9.45141484,-3.09660248
0.87989499,3.06249567

>  <Name>
ligand

>  <RI>
0

>  <Rbt.Current_Directory>
/home/itssahil/PROJECTS/Mol_Feturizer/New_Systems/rnas/3SKI

>  <Rbt.Executable>
rbdock ($Id: //depot/dev/client3/rdock/2013.1/src/exe/rbdock.cxx#4 $)

>  <Rbt.Library>
libRbt.so (2013.1, Build901 2013/11/27)

>  <Rbt.Parameter_File>
/export/apps/rDock/src/rDock_2013.1_src/data/scripts/dock_solv.prm

>  <Rbt.Receptor>
prm/pocket_docking_7.prm

>  <SCORE>
-17.4619

>  <SCORE.INTER>
-14.5907

>  <SCORE.INTER.CONST>
1

>  <SCORE.INTER.POLAR>
0

>  <SCORE.INTER.ROT>
2

>  <SCORE.INTER.SOLV>
9.21876

>  <SCORE.INTER.VDW>
-17.7334

>  <SCORE.INTER.norm>
-0.767934

>  <SCORE.INTRA>
-2.87117

>  <SCORE.INTRA.DIHEDRAL>
-5.0395

>  <SCORE.INTRA.DIHEDRAL.0>
6.26853

>  <SCORE.INTRA.POLAR>
0

>  <SCORE.INTRA.POLAR.0>
0

>  <SCORE.INTRA.REPUL>
0

>  <SCORE.INTRA.REPUL.0>
0

>  <SCORE.INTRA.SOLV>
0.0485859

>  <SCORE.INTRA.SOLV.lig_0>
-38.4926

>  <SCORE.INTRA.VDW>
-0.375715

>  <SCORE.INTRA.VDW.0>
-0.59057

>  <SCORE.INTRA.norm>
-0.151114

>  <SCORE.RESTR>
0

>  <SCORE.RESTR.CAVITY>
0

>  <SCORE.RESTR.norm>
0

>  <SCORE.SYSTEM>
0

>  <SCORE.SYSTEM.CONST>
0

>  <SCORE.SYSTEM.DIHEDRAL>
0

>  <SCORE.SYSTEM.SOLV>
0

>  <SCORE.SYSTEM.norm>
0

>  <SCORE.heavy>
19

>  <SCORE.norm>
-0.919048

>  <RMSD>
6.340

$$$$
ligand
 OpenBabel11021811483D
libRbt.so/2013.1/901 2013/11/27
 19 21  0  0  0  0  0  0  0  0999 V2000
   -6.8393   -0.3669   10.1930 C   0  0  0  0  0  0  0  0  0  0  0  0
   -6.3132    0.8723    9.6950 O   0  0  0  0  0  0  0  0  0  0  0  0
   -5.7086   -1.3723   10.4225 C   0  0  1  0  0  0  0  0  0  0  0  0
   -6.2090   -2.5664   11.0538 O   0  0  0  0  0  0  0  0  0  0  0  0
   -5.0762   -1.7925    9.1075 C   0  0  1  0  0  0  0  0  0  0  0  0
   -3.8068   -1.1553    8.9171 O   0  0  0  0  0  0  0  0  0  0  0  0
   -4.9079   -3.2939    9.1930 C   0  0  0  0  0  0  0  0  0  0  0  0
   -5.7761   -3.7449   10.3585 C   0  0  2  0  0  0  0  0  0  0  0  0
   -8.5271   -8.2013   10.7655 N   0  0  0  0  0  0  0  0  0  0  0  0
   -7.3944   -7.8154   11.4122 C   0  0  1  0  0  0  0  0  0  0  0  0
   -6.8313   -8.6562   12.3122 N   0  0  0  0  0  0  0  0  0  0  0  0
   -6.8129   -6.6084   11.1731 N   0  0  0  0  0  0  0  0  0  0  0  0
   -7.3364   -5.7278   10.2776 C   0  0  2  0  0  0  0  0  0  0  0  0
   -8.4873   -6.0667    9.5894 C   0  0  1  0  0  0  0  0  0  0  0  0
   -9.1130   -7.3859    9.8610 C   0  0  0  0  0  0  0  0  0  0  0  0
  -10.1580   -7.7354    9.2679 O   0  0  0  0  0  0  0  0  0  0  0  0
   -8.7995   -5.0390    8.7808 N   0  0  0  0  0  0  0  0  0  0  0  0
   -7.8581   -4.0826    8.9576 C   0  0  0  0  0  0  0  0  0  0  0  0
   -6.9649   -4.5048    9.8711 N   0  0  1  0  0  0  0  0  0  0  0  0
  1  2  1  0  0  0  0
  3  1  1  6  0  0  0
  3  4  1  0  0  0  0
  3  5  1  0  0  0  0
  5  6  1  1  0  0  0
  5  7  1  0  0  0  0
  7  8  1  0  0  0  0
  8  4  1  6  0  0  0
  8 19  1  0  0  0  0
  9 15  1  0  0  0  0
  9 10  1  0  0  0  0
 10 11  1  6  0  0  0
 10 12  1  0  0  0  0
 13 12  1  6  0  0  0
 13 14  1  0  0  0  0
 13 19  1  0  0  0  0
 14 15  1  1  0  0  0
 14 17  1  0  0  0  0
 15 16  2  0  0  0  0
 17 18  1  0  0  0  0
 19 18  1  1  0  0  0
M  END
>  <CHROM.1>
173.92354995,-114.91432198,-6.96112133,-4.38863407,10.05631913,1.12327066
-0.44547662,-0.32784339

>  <Name>
ligand

>  <RI>
0

>  <Rbt.Current_Directory>
/home/itssahil/PROJECTS/Mol_Feturizer/New_Systems/rnas/3SKI

>  <Rbt.Executable>
rbdock ($Id: //depot/dev/client3/rdock/2013.1/src/exe/rbdock.cxx#4 $)

>  <Rbt.Library>
libRbt.so (2013.1, Build901 2013/11/27)

>  <Rbt.Parameter_File>
/export/apps/rDock/src/rDock_2013.1_src/data/scripts/dock_solv.prm

>  <Rbt.Receptor>
prm/pocket_docking_2.prm

>  <SCORE>
-14.5869

>  <SCORE.INTER>
-11.7151

>  <SCORE.INTER.CONST>
1

>  <SCORE.INTER.POLAR>
0

>  <SCORE.INTER.ROT>
2

>  <SCORE.INTER.SOLV>
12.9017

>  <SCORE.INTER.VDW>
-17.044

>  <SCORE.INTER.norm>
-0.616586

>  <SCORE.INTRA>
-2.8968

>  <SCORE.INTRA.DIHEDRAL>
-4.94003

>  <SCORE.INTRA.DIHEDRAL.0>
6.26853

>  <SCORE.INTRA.POLAR>
0

>  <SCORE.INTRA.POLAR.0>
0

>  <SCORE.INTRA.REPUL>
0

>  <SCORE.INTRA.REPUL.0>
0

>  <SCORE.INTRA.SOLV>
-0.0374953

>  <SCORE.INTRA.SOLV.lig_0>
-38.4926

>  <SCORE.INTRA.VDW>
-0.408042

>  <SCORE.INTRA.VDW.0>
-0.59057

>  <SCORE.INTRA.norm>
-0.152463

>  <SCORE.RESTR>
0.0250223

>  <SCORE.RESTR.CAVITY>
0.0250223

>  <SCORE.RESTR.norm>
0.00131697

>  <SCORE.SYSTEM>
0

>  <SCORE.SYSTEM.CONST>
0

>  <SCORE.SYSTEM.DIHEDRAL>
0

>  <SCORE.SYSTEM.SOLV>
0

>  <SCORE.SYSTEM.norm>
0

>  <SCORE.heavy>
19

>  <SCORE.norm>
-0.767732

>  <RMSD>
6.395

$$$$
ligand
 OpenBabel11021811483D
libRbt.so/2013.1/901 2013/11/27
 19 21  0  0  0  0  0  0  0  0999 V2000
  -10.0065   -7.2388    9.5620 C   0  0  0  0  0  0  0  0  0  0  0  0
   -9.1392   -8.2484    9.0245 O   0  0  0  0  0  0  0  0  0  0  0  0
   -9.2111   -6.2573   10.4256 C   0  0  1  0  0  0  0  0  0  0  0  0
   -8.5157   -6.9526   11.4782 O   0  0  0  0  0  0  0  0  0  0  0  0
   -8.1635   -5.5297    9.6015 C   0  0  1  0  0  0  0  0  0  0  0  0
   -8.5706   -4.1853    9.3180 O   0  0  0  0  0  0  0  0  0  0  0  0
   -6.9034   -5.5363   10.4393 C   0  0  0  0  0  0  0  0  0  0  0  0
   -7.1322   -6.5744   11.5281 C   0  0  2  0  0  0  0  0  0  0  0  0
   -3.2837   -9.5704   13.4790 N   0  0  0  0  0  0  0  0  0  0  0  0
   -3.8621   -8.4520   13.9937 C   0  0  1  0  0  0  0  0  0  0  0  0
   -3.4318   -7.9780   15.1871 N   0  0  0  0  0  0  0  0  0  0  0  0
   -4.8579   -7.7975   13.3365 N   0  0  0  0  0  0  0  0  0  0  0  0
   -5.3254   -8.2301   12.1341 C   0  0  2  0  0  0  0  0  0  0  0  0
   -4.7741   -9.3622   11.5616 C   0  0  1  0  0  0  0  0  0  0  0  0
   -3.6895  -10.0683   12.2901 C   0  0  0  0  0  0  0  0  0  0  0  0
   -3.1632  -11.0999   11.8160 O   0  0  0  0  0  0  0  0  0  0  0  0
   -5.4049   -9.5806   10.3947 N   0  0  0  0  0  0  0  0  0  0  0  0
   -6.3257   -8.6004   10.2411 C   0  0  0  0  0  0  0  0  0  0  0  0
   -6.2755   -7.7761   11.3034 N   0  0  1  0  0  0  0  0  0  0  0  0
  1  2  1  0  0  0  0
  3  1  1  6  0  0  0
  3  4  1  0  0  0  0
  3  5  1  0  0  0  0
  5  6  1  1  0  0  0
  5  7  1  0  0  0  0
  7  8  1  0  0  0  0
  8  4  1  6  0  0  0
  8 19  1  0  0  0  0
  9 15  1  0  0  0  0
  9 10  1  0  0  0  0
 10 11  1  6  0  0  0
 10 12  1  0  0  0  0
 13 12  1  6  0  0  0
 13 14  1  0  0  0  0
 13 19  1  0  0  0  0
 14 15  1  1  0  0  0
 14 17  1  0  0  0  0
 15 16  2  0  0  0  0
 17 18  1  0  0  0  0
 19 18  1  1  0  0  0
M  END
>  <CHROM.1>
-56.74546382,-123.24147513,-6.27933023,-7.81468284,11.38253908,3.00008789
-0.72240583,0.56702802

>  <Name>
ligand

>  <RI>
0

>  <Rbt.Current_Directory>
/home/itssahil/PROJECTS/Mol_Feturizer/New_Systems/rnas/3SKI

>  <Rbt.Executable>
rbdock ($Id: //depot/dev/client3/rdock/2013.1/src/exe/rbdock.cxx#4 $)

>  <Rbt.Library>
libRbt.so (2013.1, Build901 2013/11/27)

>  <Rbt.Parameter_File>
/export/apps/rDock/src/rDock_2013.1_src/data/scripts/dock_solv.prm

>  <Rbt.Receptor>
prm/pocket_docking_6.prm

>  <SCORE>
-13.2027

>  <SCORE.INTER>
-10.141

>  <SCORE.INTER.CONST>
1

>  <SCORE.INTER.POLAR>
0

>  <SCORE.INTER.ROT>
2

>  <SCORE.INTER.SOLV>
10.1613

>  <SCORE.INTER.VDW>
-15.0811

>  <SCORE.INTER.norm>
-0.533735

>  <SCORE.INTRA>
-3.06171

>  <SCORE.INTRA.DIHEDRAL>
-5.02283

>  <SCORE.INTRA.DIHEDRAL.0>
6.26853

>  <SCORE.INTRA.POLAR>
0

>  <SCORE.INTRA.POLAR.0>
0

>  <SCORE.INTRA.REPUL>
0

>  <SCORE.INTRA.REPUL.0>
0

>  <SCORE.INTRA.SOLV>
0.289819

>  <SCORE.INTRA.SOLV.lig_0>
-38.4926

>  <SCORE.INTRA.VDW>
-0.695204

>  <SCORE.INTRA.VDW.0>
-0.59057

>  <SCORE.INTRA.norm>
-0.161143

>  <SCORE.RESTR>
0

>  <SCORE.RESTR.CAVITY>
0

>  <SCORE.RESTR.norm>
0

>  <SCORE.SYSTEM>
0

>  <SCORE.SYSTEM.CONST>
0

>  <SCORE.SYSTEM.DIHEDRAL>
0

>  <SCORE.SYSTEM.SOLV>
0

>  <SCORE.SYSTEM.norm>
0

>  <SCORE.heavy>
19

>  <SCORE.norm>
-0.694877

>  <RMSD>
6.424

$$$$
ligand
 OpenBabel11021811483D
libRbt.so/2013.1/901 2013/11/27
 19 21  0  0  0  0  0  0  0  0999 V2000
   -4.2487   -2.9624    9.1031 C   0  0  0  0  0  0  0  0  0  0  0  0
   -3.8038   -4.2588    9.5291 O   0  0  0  0  0  0  0  0  0  0  0  0
   -5.7777   -2.9007    9.0911 C   0  0  1  0  0  0  0  0  0  0  0  0
   -6.3331   -4.1279    8.5806 O   0  0  0  0  0  0  0  0  0  0  0  0
   -6.3276   -2.7098   10.4936 C   0  0  1  0  0  0  0  0  0  0  0  0
   -6.7660   -1.3609   10.6981 O   0  0  0  0  0  0  0  0  0  0  0  0
   -7.4918   -3.6692   10.6133 C   0  0  0  0  0  0  0  0  0  0  0  0
   -7.3513   -4.6420    9.4516 C   0  0  2  0  0  0  0  0  0  0  0  0
   -8.4781   -9.7717    9.3564 N   0  0  0  0  0  0  0  0  0  0  0  0
   -9.1080   -8.7307    8.7484 C   0  0  1  0  0  0  0  0  0  0  0  0
  -10.2005   -8.9764    7.9868 N   0  0  0  0  0  0  0  0  0  0  0  0
   -8.6693   -7.4504    8.8910 N   0  0  0  0  0  0  0  0  0  0  0  0
   -7.5785   -7.1487    9.6464 C   0  0  2  0  0  0  0  0  0  0  0  0
   -6.8981   -8.1671   10.2892 C   0  0  1  0  0  0  0  0  0  0  0  0
   -7.3861   -9.5600   10.1237 C   0  0  0  0  0  0  0  0  0  0  0  0
   -6.8010  -10.5159   10.6804 O   0  0  0  0  0  0  0  0  0  0  0  0
   -5.8693   -7.6160   10.9563 N   0  0  0  0  0  0  0  0  0  0  0  0
   -5.9125   -6.2808   10.7384 C   0  0  0  0  0  0  0  0  0  0  0  0
   -6.9570   -5.9967    9.9392 N   0  0  1  0  0  0  0  0  0  0  0  0
  1  2  1  0  0  0  0
  3  1  1  1  0  0  0
  3  4  1  0  0  0  0
  3  5  1  0  0  0  0
  5  6  1  6  0  0  0
  5  7  1  0  0  0  0
  7  8  1  0  0  0  0
  8  4  1  6  0  0  0
  8 19  1  0  0  0  0
  9 15  1  0  0  0  0
  9 10  1  0  0  0  0
 10 11  1  1  0  0  0
 10 12  1  0  0  0  0
 13 12  1  1  0  0  0
 13 14  1  0  0  0  0
 13 19  1  0  0  0  0
 14 15  1  6  0  0  0
 14 17  1  0  0  0  0
 15 16  2  0  0  0  0
 17 18  1  0  0  0  0
 19 18  1  6  0  0  0
M  END
>  <CHROM.1>
-40.36395337,-113.72454982,-6.90264468,-6.07745905,9.73059947,-1.18582135
0.35167817,3.04792123

>  <Name>
ligand

>  <RI>
0

>  <Rbt.Current_Directory>
/home/itssahil/PROJECTS/Mol_Feturizer/New_Systems/rnas/3SKI

>  <Rbt.Executable>
rbdock ($Id: //depot/dev/client3/rdock/2013.1/src/exe/rbdock.cxx#4 $)

>  <Rbt.Library>
libRbt.so (2013.1, Build901 2013/11/27)

>  <Rbt.Parameter_File>
/export/apps/rDock/src/rDock_2013.1_src/data/scripts/dock_solv.prm

>  <Rbt.Receptor>
prm/pocket_docking_4.prm

>  <SCORE>
-13.7985

>  <SCORE.INTER>
-11.3807

>  <SCORE.INTER.CONST>
1

>  <SCORE.INTER.POLAR>
0

>  <SCORE.INTER.ROT>
2

>  <SCORE.INTER.SOLV>
15.5453

>  <SCORE.INTER.VDW>
-17.7023

>  <SCORE.INTER.norm>
-0.598986

>  <SCORE.INTRA>
-2.41778

>  <SCORE.INTRA.DIHEDRAL>
-3.79025

>  <SCORE.INTRA.DIHEDRAL.0>
6.26853

>  <SCORE.INTRA.POLAR>
0

>  <SCORE.INTRA.POLAR.0>
0

>  <SCORE.INTRA.REPUL>
0

>  <SCORE.INTRA.REPUL.0>
0

>  <SCORE.INTRA.SOLV>
0.25044

>  <SCORE.INTRA.SOLV.lig_0>
-38.4926

>  <SCORE.INTRA.VDW>
-0.647872

>  <SCORE.INTRA.VDW.0>
-0.59057

>  <SCORE.INTRA.norm>
-0.127251

>  <SCORE.RESTR>
0

>  <SCORE.RESTR.CAVITY>
0

>  <SCORE.RESTR.norm>
0

>  <SCORE.SYSTEM>
0

>  <SCORE.SYSTEM.CONST>
0

>  <SCORE.SYSTEM.DIHEDRAL>
0

>  <SCORE.SYSTEM.SOLV>
0

>  <SCORE.SYSTEM.norm>
0

>  <SCORE.heavy>
19

>  <SCORE.norm>
-0.726238

>  <RMSD>
6.440

$$$$
ligand
 OpenBabel11021811483D
libRbt.so/2013.1/901 2013/11/27
 19 21  0  0  0  0  0  0  0  0999 V2000
   -6.7116   -0.4628   10.2221 C   0  0  0  0  0  0  0  0  0  0  0  0
   -6.0413    0.7027    9.7197 O   0  0  0  0  0  0  0  0  0  0  0  0
   -5.7082   -1.5930   10.4623 C   0  0  1  0  0  0  0  0  0  0  0  0
   -6.3600   -2.7376   11.0453 O   0  0  0  0  0  0  0  0  0  0  0  0
   -5.0798   -2.0517    9.1582 C   0  0  1  0  0  0  0  0  0  0  0  0
   -3.7417   -1.5561    9.0265 O   0  0  0  0  0  0  0  0  0  0  0  0
   -5.0821   -3.5641    9.2099 C   0  0  0  0  0  0  0  0  0  0  0  0
   -6.0359   -3.9412   10.3340 C   0  0  2  0  0  0  0  0  0  0  0  0
   -8.9061   -8.3258    9.9726 N   0  0  0  0  0  0  0  0  0  0  0  0
   -7.7160   -8.1133   10.5962 C   0  0  1  0  0  0  0  0  0  0  0  0
   -7.1186   -9.1425   11.2427 N   0  0  0  0  0  0  0  0  0  0  0  0
   -7.1111   -6.8943   10.5817 N   0  0  0  0  0  0  0  0  0  0  0  0
   -7.6673   -5.8281    9.9452 C   0  0  2  0  0  0  0  0  0  0  0  0
   -8.8769   -5.9852    9.2929 C   0  0  1  0  0  0  0  0  0  0  0  0
   -9.5274   -7.3200    9.3180 C   0  0  0  0  0  0  0  0  0  0  0  0
  -10.6249   -7.5105    8.7476 O   0  0  0  0  0  0  0  0  0  0  0  0
   -9.2109   -4.7986    8.7563 N   0  0  0  0  0  0  0  0  0  0  0  0
   -8.2257   -3.9225    9.0629 C   0  0  0  0  0  0  0  0  0  0  0  0
   -7.2835   -4.5525    9.7881 N   0  0  1  0  0  0  0  0  0  0  0  0
  1  2  1  0  0  0  0
  3  1  1  6  0  0  0
  3  4  1  0  0  0  0
  3  5  1  0  0  0  0
  5  6  1  1  0  0  0
  5  7  1  0  0  0  0
  7  8  1  0  0  0  0
  8  4  1  6  0  0  0
  8 19  1  0  0  0  0
  9 15  1  0  0  0  0
  9 10  1  0  0  0  0
 10 11  1  6  0  0  0
 10 12  1  0  0  0  0
 13 12  1  6  0  0  0
 13 14  1  0  0  0  0
 13 19  1  0  0  0  0
 14 15  1  1  0  0  0
 14 17  1  0  0  0  0
 15 16  2  0  0  0  0
 17 18  1  0  0  0  0
 19 18  1  1  0  0  0
M  END
>  <CHROM.1>
176.39121480,-128.77537868,-7.16868314,-4.51555723,9.81398831,1.08233326
-0.31809634,-0.18050440

>  <Name>
ligand

>  <RI>
0

>  <Rbt.Current_Directory>
/home/itssahil/PROJECTS/Mol_Feturizer/New_Systems/rnas/3SKI

>  <Rbt.Executable>
rbdock ($Id: //depot/dev/client3/rdock/2013.1/src/exe/rbdock.cxx#4 $)

>  <Rbt.Library>
libRbt.so (2013.1, Build901 2013/11/27)

>  <Rbt.Parameter_File>
/export/apps/rDock/src/rDock_2013.1_src/data/scripts/dock_solv.prm

>  <Rbt.Receptor>
prm/pocket_docking_3.prm

>  <SCORE>
-16.6272

>  <SCORE.INTER>
-13.622

>  <SCORE.INTER.CONST>
1

>  <SCORE.INTER.POLAR>
0

>  <SCORE.INTER.ROT>
2

>  <SCORE.INTER.SOLV>
11.2248

>  <SCORE.INTER.VDW>
-17.7563

>  <SCORE.INTER.norm>
-0.71695

>  <SCORE.INTRA>
-3.0052

>  <SCORE.INTRA.DIHEDRAL>
-5.01143

>  <SCORE.INTRA.DIHEDRAL.0>
6.26853

>  <SCORE.INTRA.POLAR>
0

>  <SCORE.INTRA.POLAR.0>
0

>  <SCORE.INTRA.REPUL>
0

>  <SCORE.INTRA.REPUL.0>
0

>  <SCORE.INTRA.SOLV>
-0.0242912

>  <SCORE.INTRA.SOLV.lig_0>
-38.4926

>  <SCORE.INTRA.VDW>
-0.487336

>  <SCORE.INTRA.VDW.0>
-0.59057

>  <SCORE.INTRA.norm>
-0.158168

>  <SCORE.RESTR>
0

>  <SCORE.RESTR.CAVITY>
0

>  <SCORE.RESTR.norm>
0

>  <SCORE.SYSTEM>
0

>  <SCORE.SYSTEM.CONST>
0

>  <SCORE.SYSTEM.DIHEDRAL>
0

>  <SCORE.SYSTEM.SOLV>
0

>  <SCORE.SYSTEM.norm>
0

>  <SCORE.heavy>
19

>  <SCORE.norm>
-0.875118

>  <RMSD>
6.465

$$$$
ligand
 OpenBabel11021811483D
libRbt.so/2013.1/901 2013/11/27
 19 21  0  0  0  0  0  0  0  0999 V2000
   -6.7077   -0.4735   10.2153 C   0  0  0  0  0  0  0  0  0  0  0  0
   -6.0354    0.6987    9.7314 O   0  0  0  0  0  0  0  0  0  0  0  0
   -5.7051   -1.6066   10.4451 C   0  0  1  0  0  0  0  0  0  0  0  0
   -6.3550   -2.7510   11.0308 O   0  0  0  0  0  0  0  0  0  0  0  0
   -5.0882   -2.0640    9.1350 C   0  0  1  0  0  0  0  0  0  0  0  0
   -3.7500   -1.5712    8.9937 O   0  0  0  0  0  0  0  0  0  0  0  0
   -5.0937   -3.5764    9.1835 C   0  0  0  0  0  0  0  0  0  0  0  0
   -6.0394   -3.9538   10.3143 C   0  0  2  0  0  0  0  0  0  0  0  0
   -8.9324   -8.3257    9.9831 N   0  0  0  0  0  0  0  0  0  0  0  0
   -7.7381   -8.1169   10.5997 C   0  0  1  0  0  0  0  0  0  0  0  0
   -7.1422   -9.1467   11.2466 N   0  0  0  0  0  0  0  0  0  0  0  0
   -7.1274   -6.9008   10.5778 N   0  0  0  0  0  0  0  0  0  0  0  0
   -7.6819   -5.8341    9.9406 C   0  0  2  0  0  0  0  0  0  0  0  0
   -8.8956   -5.9876    9.2952 C   0  0  1  0  0  0  0  0  0  0  0  0
   -9.5524   -7.3192    9.3283 C   0  0  0  0  0  0  0  0  0  0  0  0
  -10.6537   -7.5064    8.7644 O   0  0  0  0  0  0  0  0  0  0  0  0
   -9.2267   -4.8013    8.7563 N   0  0  0  0  0  0  0  0  0  0  0  0
   -8.2357   -3.9289    9.0547 C   0  0  0  0  0  0  0  0  0  0  0  0
   -7.2928   -4.5610    9.7770 N   0  0  1  0  0  0  0  0  0  0  0  0
  1  2  1  0  0  0  0
  3  1  1  6  0  0  0
  3  4  1  0  0  0  0
  3  5  1  0  0  0  0
  5  6  1  1  0  0  0
  5  7  1  0  0  0  0
  7  8  1  0  0  0  0
  8  4  1  6  0  0  0
  8 19  1  0  0  0  0
  9 15  1  0  0  0  0
  9 10  1  0  0  0  0
 10 11  1  6  0  0  0
 10 12  1  0  0  0  0
 13 12  1  6  0  0  0
 13 14  1  0  0  0  0
 13 19  1  0  0  0  0
 14 15  1  1  0  0  0
 14 17  1  0  0  0  0
 15 16  2  0  0  0  0
 17 18  1  0  0  0  0
 19 18  1  1  0  0  0
M  END
>  <CHROM.1>
175.42331566,-128.39294642,-7.18019992,-4.52243814,9.80817690,1.07959486
-0.31234732,-0.18191005

>  <Name>
ligand

>  <RI>
0

>  <Rbt.Current_Directory>
/home/itssahil/PROJECTS/Mol_Feturizer/New_Systems/rnas/3SKI

>  <Rbt.Executable>
rbdock ($Id: //depot/dev/client3/rdock/2013.1/src/exe/rbdock.cxx#4 $)

>  <Rbt.Library>
libRbt.so (2013.1, Build901 2013/11/27)

>  <Rbt.Parameter_File>
/export/apps/rDock/src/rDock_2013.1_src/data/scripts/dock_solv.prm

>  <Rbt.Receptor>
prm/pocket_docking_4.prm

>  <SCORE>
-16.6163

>  <SCORE.INTER>
-13.6178

>  <SCORE.INTER.CONST>
1

>  <SCORE.INTER.POLAR>
0

>  <SCORE.INTER.ROT>
2

>  <SCORE.INTER.SOLV>
11.2642

>  <SCORE.INTER.VDW>
-17.7666

>  <SCORE.INTER.norm>
-0.716726

>  <SCORE.INTRA>
-2.99853

>  <SCORE.INTRA.DIHEDRAL>
-4.98368

>  <SCORE.INTRA.DIHEDRAL.0>
6.26853

>  <SCORE.INTRA.POLAR>
0

>  <SCORE.INTRA.POLAR.0>
0

>  <SCORE.INTRA.REPUL>
0

>  <SCORE.INTRA.REPUL.0>
0

>  <SCORE.INTRA.SOLV>
-0.0291705

>  <SCORE.INTRA.SOLV.lig_0>
-38.4926

>  <SCORE.INTRA.VDW>
-0.492106

>  <SCORE.INTRA.VDW.0>
-0.59057

>  <SCORE.INTRA.norm>
-0.157818

>  <SCORE.RESTR>
0

>  <SCORE.RESTR.CAVITY>
0

>  <SCORE.RESTR.norm>
0

>  <SCORE.SYSTEM>
0

>  <SCORE.SYSTEM.CONST>
0

>  <SCORE.SYSTEM.DIHEDRAL>
0

>  <SCORE.SYSTEM.SOLV>
0

>  <SCORE.SYSTEM.norm>
0

>  <SCORE.heavy>
19

>  <SCORE.norm>
-0.874544

>  <RMSD>
6.468

$$$$
ligand
 OpenBabel11021811483D
libRbt.so/2013.1/901 2013/11/27
 19 21  0  0  0  0  0  0  0  0999 V2000
   -6.7220   -0.4865   10.2309 C   0  0  0  0  0  0  0  0  0  0  0  0
   -6.0598    0.7042    9.7794 O   0  0  0  0  0  0  0  0  0  0  0  0
   -5.7086   -1.6144   10.4378 C   0  0  1  0  0  0  0  0  0  0  0  0
   -6.3386   -2.7611   11.0404 O   0  0  0  0  0  0  0  0  0  0  0  0
   -5.1211   -2.0704    9.1139 C   0  0  1  0  0  0  0  0  0  0  0  0
   -3.7891   -1.5714    8.9398 O   0  0  0  0  0  0  0  0  0  0  0  0
   -5.1180   -3.5829    9.1643 C   0  0  0  0  0  0  0  0  0  0  0  0
   -6.0344   -3.9633   10.3180 C   0  0  2  0  0  0  0  0  0  0  0  0
   -8.9056   -8.3538   10.0481 N   0  0  0  0  0  0  0  0  0  0  0  0
   -7.6969   -8.1388   10.6338 C   0  0  1  0  0  0  0  0  0  0  0  0
   -7.0774   -9.1665   11.2614 N   0  0  0  0  0  0  0  0  0  0  0  0
   -7.0953   -6.9186   10.6000 N   0  0  0  0  0  0  0  0  0  0  0  0
   -7.6734   -5.8536    9.9811 C   0  0  2  0  0  0  0  0  0  0  0  0
   -8.9027   -6.0133    9.3673 C   0  0  1  0  0  0  0  0  0  0  0  0
   -9.5493   -7.3495    9.4132 C   0  0  0  0  0  0  0  0  0  0  0  0
  -10.6638   -7.5423    8.8776 O   0  0  0  0  0  0  0  0  0  0  0  0
   -9.2557   -4.8276    8.8412 N   0  0  0  0  0  0  0  0  0  0  0  0
   -8.2631   -3.9494    9.1165 C   0  0  0  0  0  0  0  0  0  0  0  0
   -7.2973   -4.5773    9.8117 N   0  0  1  0  0  0  0  0  0  0  0  0
  1  2  1  0  0  0  0
  3  1  1  6  0  0  0
  3  4  1  0  0  0  0
  3  5  1  0  0  0  0
  5  6  1  1  0  0  0
  5  7  1  0  0  0  0
  7  8  1  0  0  0  0
  8  4  1  6  0  0  0
  8 19  1  0  0  0  0
  9 15  1  0  0  0  0
  9 10  1  0  0  0  0
 10 11  1  6  0  0  0
 10 12  1  0  0  0  0
 13 12  1  6  0  0  0
 13 14  1  0  0  0  0
 13 19  1  0  0  0  0
 14 15  1  1  0  0  0
 14 17  1  0  0  0  0
 15 16  2  0  0  0  0
 17 18  1  0  0  0  0
 19 18  1  1  0  0  0
M  END
>  <CHROM.1>
173.17249848,-128.70017266,-7.18166370,-4.53838736,9.83928330,1.09097928
-0.28529493,-0.17386202

>  <Name>
ligand

>  <RI>
0

>  <Rbt.Current_Directory>
/home/itssahil/PROJECTS/Mol_Feturizer/New_Systems/rnas/3SKI

>  <Rbt.Executable>
rbdock ($Id: //depot/dev/client3/rdock/2013.1/src/exe/rbdock.cxx#4 $)

>  <Rbt.Library>
libRbt.so (2013.1, Build901 2013/11/27)

>  <Rbt.Parameter_File>
/export/apps/rDock/src/rDock_2013.1_src/data/scripts/dock_solv.prm

>  <Rbt.Receptor>
prm/pocket_docking_7.prm

>  <SCORE>
-16.5938

>  <SCORE.INTER>
-13.6199

>  <SCORE.INTER.CONST>
1

>  <SCORE.INTER.POLAR>
0

>  <SCORE.INTER.ROT>
2

>  <SCORE.INTER.SOLV>
11.3575

>  <SCORE.INTER.VDW>
-17.7991

>  <SCORE.INTER.norm>
-0.716836

>  <SCORE.INTRA>
-2.97391

>  <SCORE.INTRA.DIHEDRAL>
-4.89282

>  <SCORE.INTRA.DIHEDRAL.0>
6.26853

>  <SCORE.INTRA.POLAR>
0

>  <SCORE.INTRA.POLAR.0>
0

>  <SCORE.INTRA.REPUL>
0

>  <SCORE.INTRA.REPUL.0>
0

>  <SCORE.INTRA.SOLV>
-0.0406262

>  <SCORE.INTRA.SOLV.lig_0>
-38.4926

>  <SCORE.INTRA.VDW>
-0.507189

>  <SCORE.INTRA.VDW.0>
-0.59057

>  <SCORE.INTRA.norm>
-0.156522

>  <SCORE.RESTR>
0

>  <SCORE.RESTR.CAVITY>
0

>  <SCORE.RESTR.norm>
0

>  <SCORE.SYSTEM>
0

>  <SCORE.SYSTEM.CONST>
0

>  <SCORE.SYSTEM.DIHEDRAL>
0

>  <SCORE.SYSTEM.SOLV>
0

>  <SCORE.SYSTEM.norm>
0

>  <SCORE.heavy>
19

>  <SCORE.norm>
-0.873358

>  <RMSD>
6.474

$$$$
ligand
 OpenBabel11021811483D
libRbt.so/2013.1/901 2013/11/27
 19 21  0  0  0  0  0  0  0  0999 V2000
   -6.4424   -4.9666   11.0814 C   0  0  0  0  0  0  0  0  0  0  0  0
   -7.4596   -3.9828   10.8413 O   0  0  0  0  0  0  0  0  0  0  0  0
   -6.8004   -5.8167   12.3024 C   0  0  1  0  0  0  0  0  0  0  0  0
   -8.0457   -6.5100   12.0931 O   0  0  0  0  0  0  0  0  0  0  0  0
   -5.7395   -6.8713   12.5638 C   0  0  1  0  0  0  0  0  0  0  0  0
   -4.9112   -6.5072   13.6751 O   0  0  0  0  0  0  0  0  0  0  0  0
   -6.4937   -8.1490   12.8611 C   0  0  0  0  0  0  0  0  0  0  0  0
   -7.9226   -7.9072   12.3969 C   0  0  2  0  0  0  0  0  0  0  0  0
   -9.7685   -7.7900    7.4805 N   0  0  0  0  0  0  0  0  0  0  0  0
   -9.6255   -6.7806    8.3808 C   0  0  1  0  0  0  0  0  0  0  0  0
   -9.9952   -5.5264    8.0280 N   0  0  0  0  0  0  0  0  0  0  0  0
   -9.1247   -7.0021    9.6267 N   0  0  0  0  0  0  0  0  0  0  0  0
   -8.7406   -8.2428   10.0323 C   0  0  2  0  0  0  0  0  0  0  0  0
   -8.8639   -9.3084    9.1590 C   0  0  1  0  0  0  0  0  0  0  0  0
   -9.4100   -9.0527    7.8018 C   0  0  0  0  0  0  0  0  0  0  0  0
   -9.5353   -9.9830    6.9742 O   0  0  0  0  0  0  0  0  0  0  0  0
   -8.4166  -10.4087    9.7887 N   0  0  0  0  0  0  0  0  0  0  0  0
   -8.0290  -10.0365   11.0310 C   0  0  0  0  0  0  0  0  0  0  0  0
   -8.2281   -8.7141   11.1787 N   0  0  1  0  0  0  0  0  0  0  0  0
  1  2  1  0  0  0  0
  3  1  1  6  0  0  0
  3  4  1  0  0  0  0
  3  5  1  0  0  0  0
  5  6  1  1  0  0  0
  5  7  1  0  0  0  0
  7  8  1  0  0  0  0
  8  4  1  6  0  0  0
  8 19  1  0  0  0  0
  9 15  1  0  0  0  0
  9 10  1  0  0  0  0
 10 11  1  1  0  0  0
 10 12  1  0  0  0  0
 13 12  1  1  0  0  0
 13 14  1  0  0  0  0
 13 19  1  0  0  0  0
 14 15  1  6  0  0  0
 14 17  1  0  0  0  0
 15 16  2  0  0  0  0
 17 18  1  0  0  0  0
 19 18  1  6  0  0  0
M  END
>  <CHROM.1>
60.61064096,-9.65417293,-8.04509492,-7.49543103,10.41894378,0.35560779,-0.97426863
-0.07170251

>  <Name>
ligand

>  <RI>
0

>  <Rbt.Current_Directory>
/home/itssahil/PROJECTS/Mol_Feturizer/New_Systems/rnas/3SKI

>  <Rbt.Executable>
rbdock ($Id: //depot/dev/client3/rdock/2013.1/src/exe/rbdock.cxx#4 $)

>  <Rbt.Library>
libRbt.so (2013.1, Build901 2013/11/27)

>  <Rbt.Parameter_File>
/export/apps/rDock/src/rDock_2013.1_src/data/scripts/dock_solv.prm

>  <Rbt.Receptor>
prm/pocket_docking_8.prm

>  <SCORE>
-15.6843

>  <SCORE.INTER>
-12.5945

>  <SCORE.INTER.CONST>
1

>  <SCORE.INTER.POLAR>
0

>  <SCORE.INTER.ROT>
2

>  <SCORE.INTER.SOLV>
12.519

>  <SCORE.INTER.VDW>
-17.5027

>  <SCORE.INTER.norm>
-0.662869

>  <SCORE.INTRA>
-3.08976

>  <SCORE.INTRA.DIHEDRAL>
-5.05477

>  <SCORE.INTRA.DIHEDRAL.0>
6.26853

>  <SCORE.INTRA.POLAR>
0

>  <SCORE.INTRA.POLAR.0>
0

>  <SCORE.INTRA.REPUL>
0

>  <SCORE.INTRA.REPUL.0>
0

>  <SCORE.INTRA.SOLV>
0.140554

>  <SCORE.INTRA.SOLV.lig_0>
-38.4926

>  <SCORE.INTRA.VDW>
-0.632652

>  <SCORE.INTRA.VDW.0>
-0.59057

>  <SCORE.INTRA.norm>
-0.162619

>  <SCORE.RESTR>
0

>  <SCORE.RESTR.CAVITY>
0

>  <SCORE.RESTR.norm>
0

>  <SCORE.SYSTEM>
0

>  <SCORE.SYSTEM.CONST>
0

>  <SCORE.SYSTEM.DIHEDRAL>
0

>  <SCORE.SYSTEM.SOLV>
0

>  <SCORE.SYSTEM.norm>
0

>  <SCORE.heavy>
19

>  <SCORE.norm>
-0.825488

>  <RMSD>
6.519

$$$$
ligand
 OpenBabel11021811483D
libRbt.so/2013.1/901 2013/11/27
 19 21  0  0  0  0  0  0  0  0999 V2000
   -5.7570   -3.0867    9.6695 C   0  0  0  0  0  0  0  0  0  0  0  0
   -6.5509   -1.9328    9.3556 O   0  0  0  0  0  0  0  0  0  0  0  0
   -6.4977   -4.3666    9.2760 C   0  0  1  0  0  0  0  0  0  0  0  0
   -5.7470   -5.5313    9.6698 O   0  0  0  0  0  0  0  0  0  0  0  0
   -7.8480   -4.4502    9.9657 C   0  0  1  0  0  0  0  0  0  0  0  0
   -8.9126   -4.1415    9.0575 O   0  0  0  0  0  0  0  0  0  0  0  0
   -7.9699   -5.8750   10.4605 C   0  0  0  0  0  0  0  0  0  0  0  0
   -6.5676   -6.4616   10.3914 C   0  0  2  0  0  0  0  0  0  0  0  0
   -3.7432   -9.6294   13.4868 N   0  0  0  0  0  0  0  0  0  0  0  0
   -4.0897   -9.7726   12.1793 C   0  0  1  0  0  0  0  0  0  0  0  0
   -3.6816  -10.8750   11.5070 N   0  0  0  0  0  0  0  0  0  0  0  0
   -4.8391   -8.8377   11.5339 N   0  0  0  0  0  0  0  0  0  0  0  0
   -5.2765   -7.7135   12.1633 C   0  0  2  0  0  0  0  0  0  0  0  0
   -4.9553   -7.5147   13.4939 C   0  0  1  0  0  0  0  0  0  0  0  0
   -4.1354   -8.5415   14.1860 C   0  0  0  0  0  0  0  0  0  0  0  0
   -3.8141   -8.4039   15.3876 O   0  0  0  0  0  0  0  0  0  0  0  0
   -5.4937   -6.3434   13.8754 N   0  0  0  0  0  0  0  0  0  0  0  0
   -6.1423   -5.8269   12.8055 C   0  0  0  0  0  0  0  0  0  0  0  0
   -6.0097   -6.6648   11.7611 N   0  0  1  0  0  0  0  0  0  0  0  0
  1  2  1  0  0  0  0
  3  1  1  1  0  0  0
  3  4  1  0  0  0  0
  3  5  1  0  0  0  0
  5  6  1  6  0  0  0
  5  7  1  0  0  0  0
  7  8  1  0  0  0  0
  8  4  1  6  0  0  0
  8 19  1  0  0  0  0
  9 15  1  0  0  0  0
  9 10  1  0  0  0  0
 10 11  1  1  0  0  0
 10 12  1  0  0  0  0
 13 12  1  1  0  0  0
 13 14  1  0  0  0  0
 13 19  1  0  0  0  0
 14 15  1  6  0  0  0
 14 17  1  0  0  0  0
 15 16  2  0  0  0  0
 17 18  1  0  0  0  0
 19 18  1  6  0  0  0
M  END
>  <CHROM.1>
-176.12795539,-101.20370589,-5.71812187,-6.54986057,11.53543314,-2.97491798
1.12731679,-2.38164571

>  <Name>
ligand

>  <RI>
0

>  <Rbt.Current_Directory>
/home/itssahil/PROJECTS/Mol_Feturizer/New_Systems/rnas/3SKI

>  <Rbt.Executable>
rbdock ($Id: //depot/dev/client3/rdock/2013.1/src/exe/rbdock.cxx#4 $)

>  <Rbt.Library>
libRbt.so (2013.1, Build901 2013/11/27)

>  <Rbt.Parameter_File>
/export/apps/rDock/src/rDock_2013.1_src/data/scripts/dock_solv.prm

>  <Rbt.Receptor>
prm/pocket_docking_6.prm

>  <SCORE>
-15.4184

>  <SCORE.INTER>
-12.7855

>  <SCORE.INTER.CONST>
1

>  <SCORE.INTER.POLAR>
0

>  <SCORE.INTER.ROT>
2

>  <SCORE.INTER.SOLV>
15.4363

>  <SCORE.INTER.VDW>
-18.6024

>  <SCORE.INTER.norm>
-0.672919

>  <SCORE.INTRA>
-2.63296

>  <SCORE.INTRA.DIHEDRAL>
-5.0256

>  <SCORE.INTRA.DIHEDRAL.0>
6.26853

>  <SCORE.INTRA.POLAR>
0

>  <SCORE.INTRA.POLAR.0>
0

>  <SCORE.INTRA.REPUL>
0

>  <SCORE.INTRA.REPUL.0>
0

>  <SCORE.INTRA.SOLV>
0.0101202

>  <SCORE.INTRA.SOLV.lig_0>
-38.4926

>  <SCORE.INTRA.VDW>
-0.125225

>  <SCORE.INTRA.VDW.0>
-0.59057

>  <SCORE.INTRA.norm>
-0.138577

>  <SCORE.RESTR>
0

>  <SCORE.RESTR.CAVITY>
0

>  <SCORE.RESTR.norm>
0

>  <SCORE.SYSTEM>
0

>  <SCORE.SYSTEM.CONST>
0

>  <SCORE.SYSTEM.DIHEDRAL>
0

>  <SCORE.SYSTEM.SOLV>
0

>  <SCORE.SYSTEM.norm>
0

>  <SCORE.heavy>
19

>  <SCORE.norm>
-0.811496

>  <RMSD>
6.521

$$$$
ligand
 OpenBabel11021811483D
libRbt.so/2013.1/901 2013/11/27
 19 21  0  0  0  0  0  0  0  0999 V2000
   -6.5221   -4.9829   11.2240 C   0  0  0  0  0  0  0  0  0  0  0  0
   -6.3896   -5.7685   10.0301 O   0  0  0  0  0  0  0  0  0  0  0  0
   -6.8118   -5.8845   12.4261 C   0  0  1  0  0  0  0  0  0  0  0  0
   -8.0403   -6.6117   12.2333 O   0  0  0  0  0  0  0  0  0  0  0  0
   -5.7093   -6.9111   12.6171 C   0  0  1  0  0  0  0  0  0  0  0  0
   -4.8568   -6.5566   13.7131 O   0  0  0  0  0  0  0  0  0  0  0  0
   -6.4116   -8.2225   12.8946 C   0  0  0  0  0  0  0  0  0  0  0  0
   -7.8621   -8.0133   12.4850 C   0  0  2  0  0  0  0  0  0  0  0  0
   -9.8714   -7.7947    7.6365 N   0  0  0  0  0  0  0  0  0  0  0  0
   -9.7311   -6.8113    8.5657 C   0  0  1  0  0  0  0  0  0  0  0  0
  -10.1520   -5.5591    8.2678 N   0  0  0  0  0  0  0  0  0  0  0  0
   -9.1829   -7.0573    9.7868 N   0  0  0  0  0  0  0  0  0  0  0  0
   -8.7463   -8.2974   10.1375 C   0  0  2  0  0  0  0  0  0  0  0  0
   -8.8641   -9.3370    9.2327 C   0  0  1  0  0  0  0  0  0  0  0  0
   -9.4624   -9.0548    7.9030 C   0  0  0  0  0  0  0  0  0  0  0  0
   -9.5851   -9.9608    7.0486 O   0  0  0  0  0  0  0  0  0  0  0  0
   -8.3616  -10.4422    9.8099 N   0  0  0  0  0  0  0  0  0  0  0  0
   -7.9454  -10.0987   11.0513 C   0  0  0  0  0  0  0  0  0  0  0  0
   -8.1816   -8.7891   11.2503 N   0  0  1  0  0  0  0  0  0  0  0  0
  1  2  1  0  0  0  0
  3  1  1  6  0  0  0
  3  4  1  0  0  0  0
  3  5  1  0  0  0  0
  5  6  1  1  0  0  0
  5  7  1  0  0  0  0
  7  8  1  0  0  0  0
  8  4  1  6  0  0  0
  8 19  1  0  0  0  0
  9 15  1  0  0  0  0
  9 10  1  0  0  0  0
 10 11  1  1  0  0  0
 10 12  1  0  0  0  0
 13 12  1  1  0  0  0
 13 14  1  0  0  0  0
 13 19  1  0  0  0  0
 14 15  1  6  0  0  0
 14 17  1  0  0  0  0
 15 16  2  0  0  0  0
 17 18  1  0  0  0  0
 19 18  1  6  0  0  0
M  END
>  <CHROM.1>
-60.46980540,-9.62359271,-7.99015077,-7.64716158,10.46448993,0.23201324,-0.94875216
-0.13518286

>  <Name>
ligand

>  <RI>
0

>  <Rbt.Current_Directory>
/home/itssahil/PROJECTS/Mol_Feturizer/New_Systems/rnas/3SKI

>  <Rbt.Executable>
rbdock ($Id: //depot/dev/client3/rdock/2013.1/src/exe/rbdock.cxx#4 $)

>  <Rbt.Library>
libRbt.so (2013.1, Build901 2013/11/27)

>  <Rbt.Parameter_File>
/export/apps/rDock/src/rDock_2013.1_src/data/scripts/dock_solv.prm

>  <Rbt.Receptor>
prm/pocket_docking_4.prm

>  <SCORE>
-16.1867

>  <SCORE.INTER>
-13.0684

>  <SCORE.INTER.CONST>
1

>  <SCORE.INTER.POLAR>
0

>  <SCORE.INTER.ROT>
2

>  <SCORE.INTER.SOLV>
11.085

>  <SCORE.INTER.VDW>
-17.3406

>  <SCORE.INTER.norm>
-0.687812

>  <SCORE.INTRA>
-3.11825

>  <SCORE.INTRA.DIHEDRAL>
-5.05573

>  <SCORE.INTRA.DIHEDRAL.0>
6.26853

>  <SCORE.INTRA.POLAR>
0

>  <SCORE.INTRA.POLAR.0>
0

>  <SCORE.INTRA.REPUL>
0

>  <SCORE.INTRA.REPUL.0>
0

>  <SCORE.INTRA.SOLV>
0.614762

>  <SCORE.INTRA.SOLV.lig_0>
-38.4926

>  <SCORE.INTRA.VDW>
-0.897763

>  <SCORE.INTRA.VDW.0>
-0.59057

>  <SCORE.INTRA.norm>
-0.164118

>  <SCORE.RESTR>
0

>  <SCORE.RESTR.CAVITY>
0

>  <SCORE.RESTR.norm>
0

>  <SCORE.SYSTEM>
0

>  <SCORE.SYSTEM.CONST>
0

>  <SCORE.SYSTEM.DIHEDRAL>
0

>  <SCORE.SYSTEM.SOLV>
0

>  <SCORE.SYSTEM.norm>
0

>  <SCORE.heavy>
19

>  <SCORE.norm>
-0.85193

>  <RMSD>
6.533

$$$$
ligand
 OpenBabel11021811483D
libRbt.so/2013.1/901 2013/11/27
 19 21  0  0  0  0  0  0  0  0999 V2000
   -6.4311   -4.9136   11.0834 C   0  0  0  0  0  0  0  0  0  0  0  0
   -7.4540   -3.9402   10.8255 O   0  0  0  0  0  0  0  0  0  0  0  0
   -6.7972   -5.7611   12.3039 C   0  0  1  0  0  0  0  0  0  0  0  0
   -8.0424   -6.4527   12.0890 O   0  0  0  0  0  0  0  0  0  0  0  0
   -5.7393   -6.8169   12.5728 C   0  0  1  0  0  0  0  0  0  0  0  0
   -4.9166   -6.4523   13.6880 O   0  0  0  0  0  0  0  0  0  0  0  0
   -6.4972   -8.0929   12.8681 C   0  0  0  0  0  0  0  0  0  0  0  0
   -7.9231   -7.8496   12.3958 C   0  0  2  0  0  0  0  0  0  0  0  0
  -10.0265   -7.8033    7.5826 N   0  0  0  0  0  0  0  0  0  0  0  0
   -9.9216   -6.8012    8.4964 C   0  0  1  0  0  0  0  0  0  0  0  0
  -10.4128   -5.5769    8.1901 N   0  0  0  0  0  0  0  0  0  0  0  0
   -9.3397   -7.0013    9.7102 N   0  0  0  0  0  0  0  0  0  0  0  0
   -8.8325   -8.2119   10.0688 C   0  0  2  0  0  0  0  0  0  0  0  0
   -8.9117   -9.2687    9.1798 C   0  0  1  0  0  0  0  0  0  0  0  0
   -9.5474   -9.0365    7.8578 C   0  0  0  0  0  0  0  0  0  0  0  0
   -9.6375   -9.9595    7.0175 O   0  0  0  0  0  0  0  0  0  0  0  0
   -8.3418  -10.3381    9.7619 N   0  0  0  0  0  0  0  0  0  0  0  0
   -7.9223   -9.9561   10.9908 C   0  0  0  0  0  0  0  0  0  0  0  0
   -8.2233   -8.6581   11.1773 N   0  0  1  0  0  0  0  0  0  0  0  0
  1  2  1  0  0  0  0
  3  1  1  6  0  0  0
  3  4  1  0  0  0  0
  3  5  1  0  0  0  0
  5  6  1  1  0  0  0
  5  7  1  0  0  0  0
  7  8  1  0  0  0  0
  8  4  1  6  0  0  0
  8 19  1  0  0  0  0
  9 15  1  0  0  0  0
  9 10  1  0  0  0  0
 10 11  1  1  0  0  0
 10 12  1  0  0  0  0
 13 12  1  1  0  0  0
 13 14  1  0  0  0  0
 13 19  1  0  0  0  0
 14 15  1  6  0  0  0
 14 17  1  0  0  0  0
 15 16  2  0  0  0  0
 17 18  1  0  0  0  0
 19 18  1  6  0  0  0
M  END
>  <CHROM.1>
59.84503539,-15.68066281,-8.11551079,-7.46014229,10.44791352,0.40802305,-0.92421455
-0.00068356

>  <Name>
ligand

>  <RI>
0

>  <Rbt.Current_Directory>
/home/itssahil/PROJECTS/Mol_Feturizer/New_Systems/rnas/3SKI

>  <Rbt.Executable>
rbdock ($Id: //depot/dev/client3/rdock/2013.1/src/exe/rbdock.cxx#4 $)

>  <Rbt.Library>
libRbt.so (2013.1, Build901 2013/11/27)

>  <Rbt.Parameter_File>
/export/apps/rDock/src/rDock_2013.1_src/data/scripts/dock_solv.prm

>  <Rbt.Receptor>
prm/pocket_docking_5.prm

>  <SCORE>
-15.6563

>  <SCORE.INTER>
-12.5864

>  <SCORE.INTER.CONST>
1

>  <SCORE.INTER.POLAR>
0

>  <SCORE.INTER.ROT>
2

>  <SCORE.INTER.SOLV>
11.3413

>  <SCORE.INTER.VDW>
-17.1047

>  <SCORE.INTER.norm>
-0.662439

>  <SCORE.INTRA>
-3.06992

>  <SCORE.INTRA.DIHEDRAL>
-5.05174

>  <SCORE.INTRA.DIHEDRAL.0>
6.26853

>  <SCORE.INTRA.POLAR>
0

>  <SCORE.INTRA.POLAR.0>
0

>  <SCORE.INTRA.REPUL>
0

>  <SCORE.INTRA.REPUL.0>
0

>  <SCORE.INTRA.SOLV>
-0.111114

>  <SCORE.INTRA.SOLV.lig_0>
-38.4926

>  <SCORE.INTRA.VDW>
-0.488496

>  <SCORE.INTRA.VDW.0>
-0.59057

>  <SCORE.INTRA.norm>
-0.161575

>  <SCORE.RESTR>
0

>  <SCORE.RESTR.CAVITY>
0

>  <SCORE.RESTR.norm>
0

>  <SCORE.SYSTEM>
0

>  <SCORE.SYSTEM.CONST>
0

>  <SCORE.SYSTEM.DIHEDRAL>
0

>  <SCORE.SYSTEM.SOLV>
0

>  <SCORE.SYSTEM.norm>
0

>  <SCORE.heavy>
19

>  <SCORE.norm>
-0.824014

>  <RMSD>
6.545

$$$$
ligand
 OpenBabel11021811483D
libRbt.so/2013.1/901 2013/11/27
 19 21  0  0  0  0  0  0  0  0999 V2000
  -11.2952   -9.1849    7.0574 C   0  0  0  0  0  0  0  0  0  0  0  0
  -10.1163  -10.0017    7.1147 O   0  0  0  0  0  0  0  0  0  0  0  0
  -11.0891   -7.8946    7.8541 C   0  0  1  0  0  0  0  0  0  0  0  0
  -10.8099   -8.1884    9.2363 O   0  0  0  0  0  0  0  0  0  0  0  0
   -9.9091   -7.1039    7.3172 C   0  0  1  0  0  0  0  0  0  0  0  0
  -10.3483   -5.9771    6.5485 O   0  0  0  0  0  0  0  0  0  0  0  0
   -9.1332   -6.6460    8.5331 C   0  0  0  0  0  0  0  0  0  0  0  0
   -9.6470   -7.4835    9.6951 C   0  0  2  0  0  0  0  0  0  0  0  0
   -5.5729   -8.3055   12.9074 N   0  0  0  0  0  0  0  0  0  0  0  0
   -6.3445   -7.1969   12.7462 C   0  0  1  0  0  0  0  0  0  0  0  0
   -6.0816   -6.0977   13.4922 N   0  0  0  0  0  0  0  0  0  0  0  0
   -7.3694   -7.1656   11.8514 N   0  0  0  0  0  0  0  0  0  0  0  0
   -7.6742   -8.2413   11.0760 C   0  0  2  0  0  0  0  0  0  0  0  0
   -6.9230   -9.3965   11.1961 C   0  0  1  0  0  0  0  0  0  0  0  0
   -5.8086   -9.4182   12.1776 C   0  0  0  0  0  0  0  0  0  0  0  0
   -5.1041  -10.4416   12.3270 O   0  0  0  0  0  0  0  0  0  0  0  0
   -7.4225  -10.3020   10.3372 N   0  0  0  0  0  0  0  0  0  0  0  0
   -8.4596   -9.7198    9.6909 C   0  0  0  0  0  0  0  0  0  0  0  0
   -8.6117   -8.4614   10.1423 N   0  0  1  0  0  0  0  0  0  0  0  0
  1  2  1  0  0  0  0
  3  1  1  6  0  0  0
  3  4  1  0  0  0  0
  3  5  1  0  0  0  0
  5  6  1  1  0  0  0
  5  7  1  0  0  0  0
  7  8  1  0  0  0  0
  8  4  1  6  0  0  0
  8 19  1  0  0  0  0
  9 15  1  0  0  0  0
  9 10  1  0  0  0  0
 10 11  1  6  0  0  0
 10 12  1  0  0  0  0
 13 12  1  6  0  0  0
 13 14  1  0  0  0  0
 13 19  1  0  0  0  0
 14 15  1  1  0  0  0
 14 17  1  0  0  0  0
 15 16  2  0  0  0  0
 17 18  1  0  0  0  0
 19 18  1  1  0  0  0
M  END
>  <CHROM.1>
-60.11792871,-151.78349386,-8.35196092,-8.27554504,9.99978759,-3.04703687
-0.83540699,0.23723852

>  <Name>
ligand

>  <RI>
0

>  <Rbt.Current_Directory>
/home/itssahil/PROJECTS/Mol_Feturizer/New_Systems/rnas/3SKI

>  <Rbt.Executable>
rbdock ($Id: //depot/dev/client3/rdock/2013.1/src/exe/rbdock.cxx#4 $)

>  <Rbt.Library>
libRbt.so (2013.1, Build901 2013/11/27)

>  <Rbt.Parameter_File>
/export/apps/rDock/src/rDock_2013.1_src/data/scripts/dock_solv.prm

>  <Rbt.Receptor>
prm/pocket_docking_7.prm

>  <SCORE>
-13.9955

>  <SCORE.INTER>
-10.919

>  <SCORE.INTER.CONST>
1

>  <SCORE.INTER.POLAR>
0

>  <SCORE.INTER.ROT>
2

>  <SCORE.INTER.SOLV>
15.4924

>  <SCORE.INTER.VDW>
-17.3768

>  <SCORE.INTER.norm>
-0.574683

>  <SCORE.INTRA>
-3.07655

>  <SCORE.INTRA.DIHEDRAL>
-5.04707

>  <SCORE.INTRA.DIHEDRAL.0>
6.26853

>  <SCORE.INTRA.POLAR>
0

>  <SCORE.INTRA.POLAR.0>
0

>  <SCORE.INTRA.REPUL>
0

>  <SCORE.INTRA.REPUL.0>
0

>  <SCORE.INTRA.SOLV>
0.295489

>  <SCORE.INTRA.SOLV.lig_0>
-38.4926

>  <SCORE.INTRA.VDW>
-0.700757

>  <SCORE.INTRA.VDW.0>
-0.59057

>  <SCORE.INTRA.norm>
-0.161924

>  <SCORE.RESTR>
0

>  <SCORE.RESTR.CAVITY>
0

>  <SCORE.RESTR.norm>
0

>  <SCORE.SYSTEM>
0

>  <SCORE.SYSTEM.CONST>
0

>  <SCORE.SYSTEM.DIHEDRAL>
0

>  <SCORE.SYSTEM.SOLV>
0

>  <SCORE.SYSTEM.norm>
0

>  <SCORE.heavy>
19

>  <SCORE.norm>
-0.736607

>  <RMSD>
6.567

$$$$
ligand
 OpenBabel11021811483D
libRbt.so/2013.1/901 2013/11/27
 19 21  0  0  0  0  0  0  0  0999 V2000
   -6.5280   -4.9998   11.2302 C   0  0  0  0  0  0  0  0  0  0  0  0
   -6.3835   -5.7879   10.0393 O   0  0  0  0  0  0  0  0  0  0  0  0
   -6.8039   -5.9012   12.4357 C   0  0  1  0  0  0  0  0  0  0  0  0
   -8.0298   -6.6352   12.2531 O   0  0  0  0  0  0  0  0  0  0  0  0
   -5.6945   -6.9215   12.6200 C   0  0  1  0  0  0  0  0  0  0  0  0
   -4.8357   -6.5609   13.7091 O   0  0  0  0  0  0  0  0  0  0  0  0
   -6.3876   -8.2363   12.9046 C   0  0  0  0  0  0  0  0  0  0  0  0
   -7.8422   -8.0354   12.5056 C   0  0  2  0  0  0  0  0  0  0  0  0
   -9.9533   -7.8509    7.6990 N   0  0  0  0  0  0  0  0  0  0  0  0
   -9.8192   -6.8675    8.6292 C   0  0  1  0  0  0  0  0  0  0  0  0
  -10.2774   -5.6253    8.3447 N   0  0  0  0  0  0  0  0  0  0  0  0
   -9.2406   -7.1037    9.8381 N   0  0  0  0  0  0  0  0  0  0  0  0
   -8.7659   -8.3336   10.1751 C   0  0  2  0  0  0  0  0  0  0  0  0
   -8.8757   -9.3727    9.2687 C   0  0  1  0  0  0  0  0  0  0  0  0
   -9.5074   -9.1011    7.9524 C   0  0  0  0  0  0  0  0  0  0  0  0
   -9.6243  -10.0070    7.0970 O   0  0  0  0  0  0  0  0  0  0  0  0
   -8.3339  -10.4669    9.8314 N   0  0  0  0  0  0  0  0  0  0  0  0
   -7.9017  -10.1173   11.0655 C   0  0  0  0  0  0  0  0  0  0  0  0
   -8.1668   -8.8148   11.2744 N   0  0  1  0  0  0  0  0  0  0  0  0
  1  2  1  0  0  0  0
  3  1  1  6  0  0  0
  3  4  1  0  0  0  0
  3  5  1  0  0  0  0
  5  6  1  1  0  0  0
  5  7  1  0  0  0  0
  7  8  1  0  0  0  0
  8  4  1  6  0  0  0
  8 19  1  0  0  0  0
  9 15  1  0  0  0  0
  9 10  1  0  0  0  0
 10 11  1  1  0  0  0
 10 12  1  0  0  0  0
 13 12  1  1  0  0  0
 13 14  1  0  0  0  0
 13 19  1  0  0  0  0
 14 15  1  6  0  0  0
 14 17  1  0  0  0  0
 15 16  2  0  0  0  0
 17 18  1  0  0  0  0
 19 18  1  6  0  0  0
M  END
>  <CHROM.1>
-61.19115096,-11.00346835,-8.00462504,-7.67761166,10.49341465,0.26195100
-0.92917783,-0.10437930

>  <Name>
ligand

>  <RI>
0

>  <Rbt.Current_Directory>
/home/itssahil/PROJECTS/Mol_Feturizer/New_Systems/rnas/3SKI

>  <Rbt.Executable>
rbdock ($Id: //depot/dev/client3/rdock/2013.1/src/exe/rbdock.cxx#4 $)

>  <Rbt.Library>
libRbt.so (2013.1, Build901 2013/11/27)

>  <Rbt.Parameter_File>
/export/apps/rDock/src/rDock_2013.1_src/data/scripts/dock_solv.prm

>  <Rbt.Receptor>
prm/pocket_docking_8.prm

>  <SCORE>
-16.1478

>  <SCORE.INTER>
-13.016

>  <SCORE.INTER.CONST>
1

>  <SCORE.INTER.POLAR>
0

>  <SCORE.INTER.ROT>
2

>  <SCORE.INTER.SOLV>
10.7892

>  <SCORE.INTER.VDW>
-17.2071

>  <SCORE.INTER.norm>
-0.685054

>  <SCORE.INTRA>
-3.13176

>  <SCORE.INTRA.DIHEDRAL>
-5.05051

>  <SCORE.INTRA.DIHEDRAL.0>
6.26853

>  <SCORE.INTRA.POLAR>
0

>  <SCORE.INTRA.POLAR.0>
0

>  <SCORE.INTRA.REPUL>
0

>  <SCORE.INTRA.REPUL.0>
0

>  <SCORE.INTRA.SOLV>
0.491375

>  <SCORE.INTRA.SOLV.lig_0>
-38.4926

>  <SCORE.INTRA.VDW>
-0.85219

>  <SCORE.INTRA.VDW.0>
-0.59057

>  <SCORE.INTRA.norm>
-0.164829

>  <SCORE.RESTR>
0

>  <SCORE.RESTR.CAVITY>
0

>  <SCORE.RESTR.norm>
0

>  <SCORE.SYSTEM>
0

>  <SCORE.SYSTEM.CONST>
0

>  <SCORE.SYSTEM.DIHEDRAL>
0

>  <SCORE.SYSTEM.SOLV>
0

>  <SCORE.SYSTEM.norm>
0

>  <SCORE.heavy>
19

>  <SCORE.norm>
-0.849884

>  <RMSD>
6.569

$$$$
ligand
 OpenBabel11021811483D
libRbt.so/2013.1/901 2013/11/27
 19 21  0  0  0  0  0  0  0  0999 V2000
   -6.4368   -4.9538   11.0745 C   0  0  0  0  0  0  0  0  0  0  0  0
   -7.4658   -3.9863   10.8189 O   0  0  0  0  0  0  0  0  0  0  0  0
   -6.7936   -5.8011   12.2978 C   0  0  1  0  0  0  0  0  0  0  0  0
   -8.0369   -6.4981   12.0897 O   0  0  0  0  0  0  0  0  0  0  0  0
   -5.7301   -6.8522   12.5631 C   0  0  1  0  0  0  0  0  0  0  0  0
   -4.9036   -6.4827   13.6739 O   0  0  0  0  0  0  0  0  0  0  0  0
   -6.4814   -8.1309   12.8637 C   0  0  0  0  0  0  0  0  0  0  0  0
   -7.9105   -7.8941   12.3978 C   0  0  2  0  0  0  0  0  0  0  0  0
  -10.0088   -7.8550    7.5823 N   0  0  0  0  0  0  0  0  0  0  0  0
   -9.9003   -6.8502    8.4928 C   0  0  1  0  0  0  0  0  0  0  0  0
  -10.3856   -5.6248    8.1817 N   0  0  0  0  0  0  0  0  0  0  0  0
   -9.3205   -7.0487    9.7079 N   0  0  0  0  0  0  0  0  0  0  0  0
   -8.8192   -8.2604   10.0711 C   0  0  2  0  0  0  0  0  0  0  0  0
   -8.9022   -9.3199    9.1858 C   0  0  1  0  0  0  0  0  0  0  0  0
   -9.5354   -9.0894    7.8623 C   0  0  0  0  0  0  0  0  0  0  0  0
   -9.6289  -10.0149    7.0252 O   0  0  0  0  0  0  0  0  0  0  0  0
   -8.3377  -10.3898    9.7721 N   0  0  0  0  0  0  0  0  0  0  0  0
   -7.9177  -10.0055   11.0002 C   0  0  0  0  0  0  0  0  0  0  0  0
   -8.2130   -8.7054   11.1818 N   0  0  1  0  0  0  0  0  0  0  0  0
  1  2  1  0  0  0  0
  3  1  1  6  0  0  0
  3  4  1  0  0  0  0
  3  5  1  0  0  0  0
  5  6  1  1  0  0  0
  5  7  1  0  0  0  0
  7  8  1  0  0  0  0
  8  4  1  6  0  0  0
  8 19  1  0  0  0  0
  9 15  1  0  0  0  0
  9 10  1  0  0  0  0
 10 11  1  1  0  0  0
 10 12  1  0  0  0  0
 13 12  1  1  0  0  0
 13 14  1  0  0  0  0
 13 19  1  0  0  0  0
 14 15  1  6  0  0  0
 14 17  1  0  0  0  0
 15 16  2  0  0  0  0
 17 18  1  0  0  0  0
 19 18  1  6  0  0  0
M  END
>  <CHROM.1>
59.75750392,-15.07536989,-8.10575751,-7.50590875,10.44682923,0.40957062,-0.92519497
-0.00347256

>  <Name>
ligand

>  <RI>
0

>  <Rbt.Current_Directory>
/home/itssahil/PROJECTS/Mol_Feturizer/New_Systems/rnas/3SKI

>  <Rbt.Executable>
rbdock ($Id: //depot/dev/client3/rdock/2013.1/src/exe/rbdock.cxx#4 $)

>  <Rbt.Library>
libRbt.so (2013.1, Build901 2013/11/27)

>  <Rbt.Parameter_File>
/export/apps/rDock/src/rDock_2013.1_src/data/scripts/dock_solv.prm

>  <Rbt.Receptor>
prm/pocket_docking_5.prm

>  <SCORE>
-15.737

>  <SCORE.INTER>
-12.6524

>  <SCORE.INTER.CONST>
1

>  <SCORE.INTER.POLAR>
0

>  <SCORE.INTER.ROT>
2

>  <SCORE.INTER.SOLV>
11.3774

>  <SCORE.INTER.VDW>
-17.1607

>  <SCORE.INTER.norm>
-0.665916

>  <SCORE.INTRA>
-3.08455

>  <SCORE.INTRA.DIHEDRAL>
-5.05205

>  <SCORE.INTRA.DIHEDRAL.0>
6.26853

>  <SCORE.INTRA.POLAR>
0

>  <SCORE.INTRA.POLAR.0>
0

>  <SCORE.INTRA.REPUL>
0

>  <SCORE.INTRA.REPUL.0>
0

>  <SCORE.INTRA.SOLV>
-0.0784446

>  <SCORE.INTRA.SOLV.lig_0>
-38.4926

>  <SCORE.INTRA.VDW>
-0.519301

>  <SCORE.INTRA.VDW.0>
-0.59057

>  <SCORE.INTRA.norm>
-0.162345

>  <SCORE.RESTR>
0

>  <SCORE.RESTR.CAVITY>
0

>  <SCORE.RESTR.norm>
0

>  <SCORE.SYSTEM>
0

>  <SCORE.SYSTEM.CONST>
0

>  <SCORE.SYSTEM.DIHEDRAL>
0

>  <SCORE.SYSTEM.SOLV>
0

>  <SCORE.SYSTEM.norm>
0

>  <SCORE.heavy>
19

>  <SCORE.norm>
-0.828261

>  <RMSD>
6.570

$$$$
ligand
 OpenBabel11021811483D
libRbt.so/2013.1/901 2013/11/27
 19 21  0  0  0  0  0  0  0  0999 V2000
   -5.2770   -7.8801   12.4018 C   0  0  0  0  0  0  0  0  0  0  0  0
   -6.2028   -8.9626   12.2251 O   0  0  0  0  0  0  0  0  0  0  0  0
   -5.7981   -6.6154   11.7156 C   0  0  1  0  0  0  0  0  0  0  0  0
   -5.9790   -6.8394   10.3042 O   0  0  0  0  0  0  0  0  0  0  0  0
   -7.1464   -6.2038   12.2799 C   0  0  1  0  0  0  0  0  0  0  0  0
   -7.0177   -5.0798   13.1594 O   0  0  0  0  0  0  0  0  0  0  0  0
   -8.0013   -5.8456   11.0837 C   0  0  0  0  0  0  0  0  0  0  0  0
   -7.2787   -6.4125    9.8704 C   0  0  2  0  0  0  0  0  0  0  0  0
  -11.3120   -7.9114    6.8572 N   0  0  0  0  0  0  0  0  0  0  0  0
  -10.8920   -6.6614    7.1908 C   0  0  1  0  0  0  0  0  0  0  0  0
  -11.5678   -5.5902    6.7115 N   0  0  0  0  0  0  0  0  0  0  0  0
   -9.8135   -6.4630    7.9967 N   0  0  0  0  0  0  0  0  0  0  0  0
   -9.1011   -7.5042    8.5065 C   0  0  2  0  0  0  0  0  0  0  0  0
   -9.4825   -8.7984    8.2018 C   0  0  1  0  0  0  0  0  0  0  0  0
  -10.6600   -9.0011    7.3197 C   0  0  0  0  0  0  0  0  0  0  0  0
  -11.0404  -10.1525    7.0107 O   0  0  0  0  0  0  0  0  0  0  0  0
   -8.6258   -9.6337    8.8146 N   0  0  0  0  0  0  0  0  0  0  0  0
   -7.7332   -8.8746    9.4923 C   0  0  0  0  0  0  0  0  0  0  0  0
   -8.0251   -7.5747    9.3040 N   0  0  1  0  0  0  0  0  0  0  0  0
  1  2  1  0  0  0  0
  3  1  1  1  0  0  0
  3  4  1  0  0  0  0
  3  5  1  0  0  0  0
  5  6  1  1  0  0  0
  5  7  1  0  0  0  0
  7  8  1  0  0  0  0
  8  4  1  1  0  0  0
  8 19  1  0  0  0  0
  9 15  1  0  0  0  0
  9 10  1  0  0  0  0
 10 11  1  1  0  0  0
 10 12  1  0  0  0  0
 13 12  1  1  0  0  0
 13 14  1  0  0  0  0
 13 19  1  0  0  0  0
 14 15  1  6  0  0  0
 14 17  1  0  0  0  0
 15 16  2  0  0  0  0
 17 18  1  0  0  0  0
 19 18  1  6  0  0  0
M  END
>  <CHROM.1>
-59.71324832,-161.79243944,-8.42070451,-7.46805199,9.56487906,-0.37200841
0.77266862,-2.87457881

>  <Name>
ligand

>  <RI>
0

>  <Rbt.Current_Directory>
/home/itssahil/PROJECTS/Mol_Feturizer/New_Systems/rnas/3SKI

>  <Rbt.Executable>
rbdock ($Id: //depot/dev/client3/rdock/2013.1/src/exe/rbdock.cxx#4 $)

>  <Rbt.Library>
libRbt.so (2013.1, Build901 2013/11/27)

>  <Rbt.Parameter_File>
/export/apps/rDock/src/rDock_2013.1_src/data/scripts/dock_solv.prm

>  <Rbt.Receptor>
prm/pocket_docking_6.prm

>  <SCORE>
-12.9409

>  <SCORE.INTER>
-9.90351

>  <SCORE.INTER.CONST>
1

>  <SCORE.INTER.POLAR>
0

>  <SCORE.INTER.ROT>
2

>  <SCORE.INTER.SOLV>
12.6327

>  <SCORE.INTER.VDW>
-15.7466

>  <SCORE.INTER.norm>
-0.521237

>  <SCORE.INTRA>
-3.03738

>  <SCORE.INTRA.DIHEDRAL>
-5.05018

>  <SCORE.INTRA.DIHEDRAL.0>
6.26853

>  <SCORE.INTRA.POLAR>
0

>  <SCORE.INTRA.POLAR.0>
0

>  <SCORE.INTRA.REPUL>
0

>  <SCORE.INTRA.REPUL.0>
0

>  <SCORE.INTRA.SOLV>
0.286498

>  <SCORE.INTRA.SOLV.lig_0>
-38.4926

>  <SCORE.INTRA.VDW>
-0.655536

>  <SCORE.INTRA.VDW.0>
-0.59057

>  <SCORE.INTRA.norm>
-0.159862

>  <SCORE.RESTR>
0

>  <SCORE.RESTR.CAVITY>
0

>  <SCORE.RESTR.norm>
0

>  <SCORE.SYSTEM>
0

>  <SCORE.SYSTEM.CONST>
0

>  <SCORE.SYSTEM.DIHEDRAL>
0

>  <SCORE.SYSTEM.SOLV>
0

>  <SCORE.SYSTEM.norm>
0

>  <SCORE.heavy>
19

>  <SCORE.norm>
-0.681099

>  <RMSD>
6.574

$$$$
ligand
 OpenBabel11021811483D
libRbt.so/2013.1/901 2013/11/27
 19 21  0  0  0  0  0  0  0  0999 V2000
   -6.5387   -5.0203   11.3309 C   0  0  0  0  0  0  0  0  0  0  0  0
   -6.3847   -5.7732   10.1186 O   0  0  0  0  0  0  0  0  0  0  0  0
   -6.7286   -5.9614   12.5225 C   0  0  1  0  0  0  0  0  0  0  0  0
   -7.9370   -6.7317   12.3759 O   0  0  0  0  0  0  0  0  0  0  0  0
   -5.5789   -6.9479   12.6279 C   0  0  1  0  0  0  0  0  0  0  0  0
   -4.6828   -6.5865   13.6863 O   0  0  0  0  0  0  0  0  0  0  0  0
   -6.2146   -8.2924   12.9076 C   0  0  0  0  0  0  0  0  0  0  0  0
   -7.6920   -8.1308   12.5810 C   0  0  2  0  0  0  0  0  0  0  0  0
   -9.9319   -7.8650    7.8370 N   0  0  0  0  0  0  0  0  0  0  0  0
   -9.7752   -6.8983    8.7810 C   0  0  1  0  0  0  0  0  0  0  0  0
  -10.2439   -5.6525    8.5316 N   0  0  0  0  0  0  0  0  0  0  0  0
   -9.1637   -7.1549    9.9694 N   0  0  0  0  0  0  0  0  0  0  0  0
   -8.6773   -8.3893   10.2710 C   0  0  2  0  0  0  0  0  0  0  0  0
   -8.8089   -9.4121    9.3492 C   0  0  1  0  0  0  0  0  0  0  0  0
   -9.4764   -9.1184    8.0554 C   0  0  0  0  0  0  0  0  0  0  0  0
   -9.6141  -10.0090    7.1871 O   0  0  0  0  0  0  0  0  0  0  0  0
   -8.2496  -10.5147    9.8770 N   0  0  0  0  0  0  0  0  0  0  0  0
   -7.7852  -10.1863   11.1053 C   0  0  0  0  0  0  0  0  0  0  0  0
   -8.0477   -8.8886   11.3450 N   0  0  1  0  0  0  0  0  0  0  0  0
  1  2  1  0  0  0  0
  3  1  1  6  0  0  0
  3  4  1  0  0  0  0
  3  5  1  0  0  0  0
  5  6  1  1  0  0  0
  5  7  1  0  0  0  0
  7  8  1  0  0  0  0
  8  4  1  6  0  0  0
  8 19  1  0  0  0  0
  9 15  1  0  0  0  0
  9 10  1  0  0  0  0
 10 11  1  1  0  0  0
 10 12  1  0  0  0  0
 13 12  1  1  0  0  0
 13 14  1  0  0  0  0
 13 19  1  0  0  0  0
 14 15  1  6  0  0  0
 14 17  1  0  0  0  0
 15 16  2  0  0  0  0
 17 18  1  0  0  0  0
 19 18  1  6  0  0  0
M  END
>  <CHROM.1>
-62.87903511,-8.86797217,-7.92938651,-7.71874119,10.57631054,0.29316780,-0.90594101
-0.06747679

>  <Name>
ligand

>  <RI>
0

>  <Rbt.Current_Directory>
/home/itssahil/PROJECTS/Mol_Feturizer/New_Systems/rnas/3SKI

>  <Rbt.Executable>
rbdock ($Id: //depot/dev/client3/rdock/2013.1/src/exe/rbdock.cxx#4 $)

>  <Rbt.Library>
libRbt.so (2013.1, Build901 2013/11/27)

>  <Rbt.Parameter_File>
/export/apps/rDock/src/rDock_2013.1_src/data/scripts/dock_solv.prm

>  <Rbt.Receptor>
prm/pocket_docking_5.prm

>  <SCORE>
-16.1107

>  <SCORE.INTER>
-13.0232

>  <SCORE.INTER.CONST>
1

>  <SCORE.INTER.POLAR>
0

>  <SCORE.INTER.ROT>
2

>  <SCORE.INTER.SOLV>
10.5074

>  <SCORE.INTER.VDW>
-17.1179

>  <SCORE.INTER.norm>
-0.685431

>  <SCORE.INTRA>
-3.08755

>  <SCORE.INTRA.DIHEDRAL>
-5.02812

>  <SCORE.INTRA.DIHEDRAL.0>
6.26853

>  <SCORE.INTRA.POLAR>
0

>  <SCORE.INTRA.POLAR.0>
0

>  <SCORE.INTRA.REPUL>
0

>  <SCORE.INTRA.REPUL.0>
0

>  <SCORE.INTRA.SOLV>
0.610982

>  <SCORE.INTRA.SOLV.lig_0>
-38.4926

>  <SCORE.INTRA.VDW>
-0.878978

>  <SCORE.INTRA.VDW.0>
-0.59057

>  <SCORE.INTRA.norm>
-0.162503

>  <SCORE.RESTR>
0

>  <SCORE.RESTR.CAVITY>
0

>  <SCORE.RESTR.norm>
0

>  <SCORE.SYSTEM>
0

>  <SCORE.SYSTEM.CONST>
0

>  <SCORE.SYSTEM.DIHEDRAL>
0

>  <SCORE.SYSTEM.SOLV>
0

>  <SCORE.SYSTEM.norm>
0

>  <SCORE.heavy>
19

>  <SCORE.norm>
-0.847934

>  <RMSD>
6.578

$$$$
ligand
 OpenBabel11021811483D
libRbt.so/2013.1/901 2013/11/27
 19 21  0  0  0  0  0  0  0  0999 V2000
   -5.7476   -2.9930    9.8586 C   0  0  0  0  0  0  0  0  0  0  0  0
   -6.6364   -2.0175    9.2942 O   0  0  0  0  0  0  0  0  0  0  0  0
   -6.0839   -4.3894    9.3305 C   0  0  1  0  0  0  0  0  0  0  0  0
   -5.2539   -5.3852    9.9587 O   0  0  0  0  0  0  0  0  0  0  0  0
   -7.5267   -4.7544    9.6318 C   0  0  1  0  0  0  0  0  0  0  0  0
   -8.3421   -4.6518    8.4578 O   0  0  0  0  0  0  0  0  0  0  0  0
   -7.4943   -6.1825   10.1313 C   0  0  0  0  0  0  0  0  0  0  0  0
   -6.0390   -6.4733   10.4677 C   0  0  2  0  0  0  0  0  0  0  0  0
   -3.9062   -9.2852   14.3584 N   0  0  0  0  0  0  0  0  0  0  0  0
   -3.8856   -9.5014   13.0156 C   0  0  1  0  0  0  0  0  0  0  0  0
   -3.2365  -10.5878   12.5337 N   0  0  0  0  0  0  0  0  0  0  0  0
   -4.5045   -8.6554   12.1477 N   0  0  0  0  0  0  0  0  0  0  0  0
   -5.1721   -7.5512   12.5796 C   0  0  2  0  0  0  0  0  0  0  0  0
   -5.2272   -7.2809   13.9350 C   0  0  1  0  0  0  0  0  0  0  0  0
   -4.5460   -8.2110   14.8712 C   0  0  0  0  0  0  0  0  0  0  0  0
   -4.5627   -8.0061   16.1057 O   0  0  0  0  0  0  0  0  0  0  0  0
   -5.9301   -6.1468   14.0990 N   0  0  0  0  0  0  0  0  0  0  0  0
   -6.3103   -5.7234   12.8709 C   0  0  0  0  0  0  0  0  0  0  0  0
   -5.8476   -6.5822   11.9442 N   0  0  1  0  0  0  0  0  0  0  0  0
  1  2  1  0  0  0  0
  3  1  1  1  0  0  0
  3  4  1  0  0  0  0
  3  5  1  0  0  0  0
  5  6  1  6  0  0  0
  5  7  1  0  0  0  0
  7  8  1  0  0  0  0
  8  4  1  1  0  0  0
  8 19  1  0  0  0  0
  9 15  1  0  0  0  0
  9 10  1  0  0  0  0
 10 11  1  1  0  0  0
 10 12  1  0  0  0  0
 13 12  1  1  0  0  0
 13 14  1  0  0  0  0
 13 19  1  0  0  0  0
 14 15  1  6  0  0  0
 14 17  1  0  0  0  0
 15 16  2  0  0  0  0
 17 18  1  0  0  0  0
 19 18  1  6  0  0  0
M  END
>  <CHROM.1>
-176.23038370,-108.60177275,-5.62160474,-6.47210639,11.80789059,2.75991125
1.17219914,-1.93386221

>  <Name>
ligand

>  <RI>
0

>  <Rbt.Current_Directory>
/home/itssahil/PROJECTS/Mol_Feturizer/New_Systems/rnas/3SKI

>  <Rbt.Executable>
rbdock ($Id: //depot/dev/client3/rdock/2013.1/src/exe/rbdock.cxx#4 $)

>  <Rbt.Library>
libRbt.so (2013.1, Build901 2013/11/27)

>  <Rbt.Parameter_File>
/export/apps/rDock/src/rDock_2013.1_src/data/scripts/dock_solv.prm

>  <Rbt.Receptor>
prm/pocket_docking_8.prm

>  <SCORE>
-15.1698

>  <SCORE.INTER>
-12.4205

>  <SCORE.INTER.CONST>
1

>  <SCORE.INTER.POLAR>
0

>  <SCORE.INTER.ROT>
2

>  <SCORE.INTER.SOLV>
16.2225

>  <SCORE.INTER.VDW>
-18.6211

>  <SCORE.INTER.norm>
-0.653708

>  <SCORE.INTRA>
-2.74933

>  <SCORE.INTRA.DIHEDRAL>
-5.02332

>  <SCORE.INTRA.DIHEDRAL.0>
6.26853

>  <SCORE.INTRA.POLAR>
0

>  <SCORE.INTRA.POLAR.0>
0

>  <SCORE.INTRA.REPUL>
0

>  <SCORE.INTRA.REPUL.0>
0

>  <SCORE.INTRA.SOLV>
0.0100569

>  <SCORE.INTRA.SOLV.lig_0>
-38.4926

>  <SCORE.INTRA.VDW>
-0.242696

>  <SCORE.INTRA.VDW.0>
-0.59057

>  <SCORE.INTRA.norm>
-0.144701

>  <SCORE.RESTR>
0

>  <SCORE.RESTR.CAVITY>
0

>  <SCORE.RESTR.norm>
0

>  <SCORE.SYSTEM>
0

>  <SCORE.SYSTEM.CONST>
0

>  <SCORE.SYSTEM.DIHEDRAL>
0

>  <SCORE.SYSTEM.SOLV>
0

>  <SCORE.SYSTEM.norm>
0

>  <SCORE.heavy>
19

>  <SCORE.norm>
-0.798409

>  <RMSD>
6.579

$$$$
ligand
 OpenBabel11021811483D
libRbt.so/2013.1/901 2013/11/27
 19 21  0  0  0  0  0  0  0  0999 V2000
   -6.3984   -5.0249   11.1185 C   0  0  0  0  0  0  0  0  0  0  0  0
   -7.4391   -4.0643   10.8848 O   0  0  0  0  0  0  0  0  0  0  0  0
   -6.7256   -5.8774   12.3465 C   0  0  1  0  0  0  0  0  0  0  0  0
   -7.9733   -6.5741   12.1653 O   0  0  0  0  0  0  0  0  0  0  0  0
   -5.6558   -6.9290   12.5820 C   0  0  1  0  0  0  0  0  0  0  0  0
   -4.8031   -6.5638   13.6742 O   0  0  0  0  0  0  0  0  0  0  0  0
   -6.3992   -8.2094   12.8952 C   0  0  0  0  0  0  0  0  0  0  0  0
   -7.8391   -7.9712   12.4645 C   0  0  2  0  0  0  0  0  0  0  0  0
  -10.0340   -7.9083    7.6926 N   0  0  0  0  0  0  0  0  0  0  0  0
   -9.9020   -6.9065    8.6032 C   0  0  1  0  0  0  0  0  0  0  0  0
  -10.3871   -5.6778    8.3053 N   0  0  0  0  0  0  0  0  0  0  0  0
   -9.2988   -7.1113    9.8059 N   0  0  0  0  0  0  0  0  0  0  0  0
   -8.7965   -8.3265   10.1558 C   0  0  2  0  0  0  0  0  0  0  0  0
   -8.9029   -9.3831    9.2695 C   0  0  1  0  0  0  0  0  0  0  0  0
   -9.5616   -9.1458    7.9597 C   0  0  0  0  0  0  0  0  0  0  0  0
   -9.6767  -10.0685    7.1222 O   0  0  0  0  0  0  0  0  0  0  0  0
   -8.3322  -10.4575    9.8415 N   0  0  0  0  0  0  0  0  0  0  0  0
   -7.8855  -10.0787   11.0618 C   0  0  0  0  0  0  0  0  0  0  0  0
   -8.1704   -8.7777   11.2528 N   0  0  1  0  0  0  0  0  0  0  0  0
  1  2  1  0  0  0  0
  3  1  1  6  0  0  0
  3  4  1  0  0  0  0
  3  5  1  0  0  0  0
  5  6  1  1  0  0  0
  5  7  1  0  0  0  0
  7  8  1  0  0  0  0
  8  4  1  6  0  0  0
  8 19  1  0  0  0  0
  9 15  1  0  0  0  0
  9 10  1  0  0  0  0
 10 11  1  1  0  0  0
 10 12  1  0  0  0  0
 13 12  1  1  0  0  0
 13 14  1  0  0  0  0
 13 19  1  0  0  0  0
 14 15  1  6  0  0  0
 14 17  1  0  0  0  0
 15 16  2  0  0  0  0
 17 18  1  0  0  0  0
 19 18  1  6  0  0  0
M  END
>  <CHROM.1>
59.26548015,-14.68433210,-8.07637417,-7.57415315,10.51765955,0.40647402,-0.90497564
-0.00313082

>  <Name>
ligand

>  <RI>
0

>  <Rbt.Current_Directory>
/home/itssahil/PROJECTS/Mol_Feturizer/New_Systems/rnas/3SKI

>  <Rbt.Executable>
rbdock ($Id: //depot/dev/client3/rdock/2013.1/src/exe/rbdock.cxx#4 $)

>  <Rbt.Library>
libRbt.so (2013.1, Build901 2013/11/27)

>  <Rbt.Parameter_File>
/export/apps/rDock/src/rDock_2013.1_src/data/scripts/dock_solv.prm

>  <Rbt.Receptor>
prm/pocket_docking_7.prm

>  <SCORE>
-15.713

>  <SCORE.INTER>
-12.6375

>  <SCORE.INTER.CONST>
1

>  <SCORE.INTER.POLAR>
0

>  <SCORE.INTER.ROT>
2

>  <SCORE.INTER.SOLV>
11.0651

>  <SCORE.INTER.VDW>
-17.0467

>  <SCORE.INTER.norm>
-0.665129

>  <SCORE.INTRA>
-3.07555

>  <SCORE.INTRA.DIHEDRAL>
-5.05075

>  <SCORE.INTRA.DIHEDRAL.0>
6.26853

>  <SCORE.INTRA.POLAR>
0

>  <SCORE.INTRA.POLAR.0>
0

>  <SCORE.INTRA.REPUL>
0

>  <SCORE.INTRA.REPUL.0>
0

>  <SCORE.INTRA.SOLV>
-0.0432405

>  <SCORE.INTRA.SOLV.lig_0>
-38.4926

>  <SCORE.INTRA.VDW>
-0.528557

>  <SCORE.INTRA.VDW.0>
-0.59057

>  <SCORE.INTRA.norm>
-0.161871

>  <SCORE.RESTR>
0

>  <SCORE.RESTR.CAVITY>
0

>  <SCORE.RESTR.norm>
0

>  <SCORE.SYSTEM>
0

>  <SCORE.SYSTEM.CONST>
0

>  <SCORE.SYSTEM.DIHEDRAL>
0

>  <SCORE.SYSTEM.SOLV>
0

>  <SCORE.SYSTEM.norm>
0

>  <SCORE.heavy>
19

>  <SCORE.norm>
-0.827

>  <RMSD>
6.609

$$$$
ligand
 OpenBabel11021811483D
libRbt.so/2013.1/901 2013/11/27
 19 21  0  0  0  0  0  0  0  0999 V2000
   -6.4449   -4.9580   11.0747 C   0  0  0  0  0  0  0  0  0  0  0  0
   -7.4677   -3.9901   10.7966 O   0  0  0  0  0  0  0  0  0  0  0  0
   -6.8240   -5.7983   12.2961 C   0  0  1  0  0  0  0  0  0  0  0  0
   -8.0689   -6.4880   12.0736 O   0  0  0  0  0  0  0  0  0  0  0  0
   -5.7712   -6.8553   12.5799 C   0  0  1  0  0  0  0  0  0  0  0  0
   -4.9576   -6.4870   13.7006 O   0  0  0  0  0  0  0  0  0  0  0  0
   -6.5349   -8.1280   12.8750 C   0  0  0  0  0  0  0  0  0  0  0  0
   -7.9559   -7.8836   12.3886 C   0  0  2  0  0  0  0  0  0  0  0  0
  -10.1947   -7.9128    7.6368 N   0  0  0  0  0  0  0  0  0  0  0  0
  -10.1174   -6.9136    8.5564 C   0  0  1  0  0  0  0  0  0  0  0  0
  -10.6816   -5.7150    8.2753 N   0  0  0  0  0  0  0  0  0  0  0  0
   -9.4914   -7.0916    9.7517 N   0  0  0  0  0  0  0  0  0  0  0  0
   -8.9105   -8.2761   10.0847 C   0  0  2  0  0  0  0  0  0  0  0  0
   -8.9585   -9.3287    9.1886 C   0  0  1  0  0  0  0  0  0  0  0  0
   -9.6430   -9.1207    7.8871 C   0  0  0  0  0  0  0  0  0  0  0  0
   -9.7077  -10.0407    7.0412 O   0  0  0  0  0  0  0  0  0  0  0  0
   -8.3162  -10.3706    9.7447 N   0  0  0  0  0  0  0  0  0  0  0  0
   -7.8828   -9.9762   10.9649 C   0  0  0  0  0  0  0  0  0  0  0  0
   -8.2471   -8.6975   11.1716 N   0  0  1  0  0  0  0  0  0  0  0  0
  1  2  1  0  0  0  0
  3  1  1  6  0  0  0
  3  4  1  0  0  0  0
  3  5  1  0  0  0  0
  5  6  1  1  0  0  0
  5  7  1  0  0  0  0
  7  8  1  0  0  0  0
  8  4  1  6  0  0  0
  8 19  1  0  0  0  0
  9 15  1  0  0  0  0
  9 10  1  0  0  0  0
 10 11  1  1  0  0  0
 10 12  1  0  0  0  0
 13 12  1  1  0  0  0
 13 14  1  0  0  0  0
 13 19  1  0  0  0  0
 14 15  1  6  0  0  0
 14 17  1  0  0  0  0
 15 16  2  0  0  0  0
 17 18  1  0  0  0  0
 19 18  1  6  0  0  0
M  END
>  <CHROM.1>
59.41168509,-19.60321324,-8.18090281,-7.51983812,10.45946092,0.43626736,-0.89601530
0.03422504

>  <Name>
ligand

>  <RI>
0

>  <Rbt.Current_Directory>
/home/itssahil/PROJECTS/Mol_Feturizer/New_Systems/rnas/3SKI

>  <Rbt.Executable>
rbdock ($Id: //depot/dev/client3/rdock/2013.1/src/exe/rbdock.cxx#4 $)

>  <Rbt.Library>
libRbt.so (2013.1, Build901 2013/11/27)

>  <Rbt.Parameter_File>
/export/apps/rDock/src/rDock_2013.1_src/data/scripts/dock_solv.prm

>  <Rbt.Receptor>
prm/pocket_docking_5.prm

>  <SCORE>
-15.7423

>  <SCORE.INTER>
-12.7284

>  <SCORE.INTER.CONST>
1

>  <SCORE.INTER.POLAR>
0

>  <SCORE.INTER.ROT>
2

>  <SCORE.INTER.SOLV>
10.6859

>  <SCORE.INTER.VDW>
-16.9809

>  <SCORE.INTER.norm>
-0.669918

>  <SCORE.INTRA>
-3.01381

>  <SCORE.INTRA.DIHEDRAL>
-5.04847

>  <SCORE.INTRA.DIHEDRAL.0>
6.26853

>  <SCORE.INTRA.POLAR>
0

>  <SCORE.INTRA.POLAR.0>
0

>  <SCORE.INTRA.REPUL>
0

>  <SCORE.INTRA.REPUL.0>
0

>  <SCORE.INTRA.SOLV>
-0.162942

>  <SCORE.INTRA.SOLV.lig_0>
-38.4926

>  <SCORE.INTRA.VDW>
-0.408105

>  <SCORE.INTRA.VDW.0>
-0.59057

>  <SCORE.INTRA.norm>
-0.158622

>  <SCORE.RESTR>
0

>  <SCORE.RESTR.CAVITY>
0

>  <SCORE.RESTR.norm>
0

>  <SCORE.SYSTEM>
0

>  <SCORE.SYSTEM.CONST>
0

>  <SCORE.SYSTEM.DIHEDRAL>
0

>  <SCORE.SYSTEM.SOLV>
0

>  <SCORE.SYSTEM.norm>
0

>  <SCORE.heavy>
19

>  <SCORE.norm>
-0.82854

>  <RMSD>
6.619

$$$$
ligand
 OpenBabel11021811483D
libRbt.so/2013.1/901 2013/11/27
 19 21  0  0  0  0  0  0  0  0999 V2000
   -9.0991   -4.3735    9.3166 C   0  0  0  0  0  0  0  0  0  0  0  0
   -9.4728   -5.7530    9.4488 O   0  0  0  0  0  0  0  0  0  0  0  0
   -7.7810   -4.1058   10.0464 C   0  0  1  0  0  0  0  0  0  0  0  0
   -7.7811   -4.7311   11.3441 O   0  0  0  0  0  0  0  0  0  0  0  0
   -6.6040   -4.6760    9.2749 C   0  0  1  0  0  0  0  0  0  0  0  0
   -5.8739   -3.6404    8.6055 O   0  0  0  0  0  0  0  0  0  0  0  0
   -5.7302   -5.3603   10.3036 C   0  0  0  0  0  0  0  0  0  0  0  0
   -6.5897   -5.5039   11.5511 C   0  0  2  0  0  0  0  0  0  0  0  0
   -8.5123   -9.8859    9.3845 N   0  0  0  0  0  0  0  0  0  0  0  0
   -8.3074   -8.6596    8.8328 C   0  0  1  0  0  0  0  0  0  0  0  0
   -8.6248   -8.4619    7.5312 N   0  0  0  0  0  0  0  0  0  0  0  0
   -7.7961   -7.6279    9.5582 N   0  0  0  0  0  0  0  0  0  0  0  0
   -7.4628   -7.7725   10.8695 C   0  0  2  0  0  0  0  0  0  0  0  0
   -7.6501   -8.9974   11.4841 C   0  0  1  0  0  0  0  0  0  0  0  0
   -8.2070  -10.1155   10.6807 C   0  0  0  0  0  0  0  0  0  0  0  0
   -8.3893  -11.2438   11.1902 O   0  0  0  0  0  0  0  0  0  0  0  0
   -7.2434   -8.8826   12.7603 N   0  0  0  0  0  0  0  0  0  0  0  0
   -6.8177   -7.6100   12.9380 C   0  0  0  0  0  0  0  0  0  0  0  0
   -6.9530   -6.9331   11.7831 N   0  0  1  0  0  0  0  0  0  0  0  0
  1  2  1  0  0  0  0
  3  1  1  6  0  0  0
  3  4  1  0  0  0  0
  3  5  1  0  0  0  0
  5  6  1  1  0  0  0
  5  7  1  0  0  0  0
  7  8  1  0  0  0  0
  8  4  1  6  0  0  0
  8 19  1  0  0  0  0
  9 15  1  0  0  0  0
  9 10  1  0  0  0  0
 10 11  1  1  0  0  0
 10 12  1  0  0  0  0
 13 12  1  1  0  0  0
 13 14  1  0  0  0  0
 13 19  1  0  0  0  0
 14 15  1  6  0  0  0
 14 17  1  0  0  0  0
 15 16  2  0  0  0  0
 17 18  1  0  0  0  0
 19 18  1  6  0  0  0
M  END
>  <CHROM.1>
-44.67561472,68.99814326,-7.63858787,-7.01422713,10.33465810,1.19445550,-1.09581287
-0.52228067

>  <Name>
ligand

>  <RI>
0

>  <Rbt.Current_Directory>
/home/itssahil/PROJECTS/Mol_Feturizer/New_Systems/rnas/3SKI

>  <Rbt.Executable>
rbdock ($Id: //depot/dev/client3/rdock/2013.1/src/exe/rbdock.cxx#4 $)

>  <Rbt.Library>
libRbt.so (2013.1, Build901 2013/11/27)

>  <Rbt.Parameter_File>
/export/apps/rDock/src/rDock_2013.1_src/data/scripts/dock_solv.prm

>  <Rbt.Receptor>
prm/pocket_docking_7.prm

>  <SCORE>
-12.5313

>  <SCORE.INTER>
-10.1831

>  <SCORE.INTER.CONST>
1

>  <SCORE.INTER.POLAR>
0

>  <SCORE.INTER.ROT>
2

>  <SCORE.INTER.SOLV>
16.3928

>  <SCORE.INTER.VDW>
-17.1863

>  <SCORE.INTER.norm>
-0.535951

>  <SCORE.INTRA>
-2.34822

>  <SCORE.INTRA.DIHEDRAL>
-4.24818

>  <SCORE.INTRA.DIHEDRAL.0>
6.26853

>  <SCORE.INTRA.POLAR>
0

>  <SCORE.INTRA.POLAR.0>
0

>  <SCORE.INTRA.REPUL>
0

>  <SCORE.INTRA.REPUL.0>
0

>  <SCORE.INTRA.SOLV>
1.80928

>  <SCORE.INTRA.SOLV.lig_0>
-38.4926

>  <SCORE.INTRA.VDW>
-1.12877

>  <SCORE.INTRA.VDW.0>
-0.59057

>  <SCORE.INTRA.norm>
-0.12359

>  <SCORE.RESTR>
0

>  <SCORE.RESTR.CAVITY>
0

>  <SCORE.RESTR.norm>
0

>  <SCORE.SYSTEM>
0

>  <SCORE.SYSTEM.CONST>
0

>  <SCORE.SYSTEM.DIHEDRAL>
0

>  <SCORE.SYSTEM.SOLV>
0

>  <SCORE.SYSTEM.norm>
0

>  <SCORE.heavy>
19

>  <SCORE.norm>
-0.659541

>  <RMSD>
6.619

$$$$
ligand
 OpenBabel11021811483D
libRbt.so/2013.1/901 2013/11/27
 19 21  0  0  0  0  0  0  0  0999 V2000
   -6.5036   -4.9358   11.1035 C   0  0  0  0  0  0  0  0  0  0  0  0
   -7.5724   -4.0223   10.8146 O   0  0  0  0  0  0  0  0  0  0  0  0
   -6.8465   -5.7874   12.3279 C   0  0  1  0  0  0  0  0  0  0  0  0
   -8.0799   -6.5023   12.1220 O   0  0  0  0  0  0  0  0  0  0  0  0
   -5.7677   -6.8229   12.5923 C   0  0  1  0  0  0  0  0  0  0  0  0
   -4.9450   -6.4409   13.7017 O   0  0  0  0  0  0  0  0  0  0  0  0
   -6.5000   -8.1121   12.8948 C   0  0  0  0  0  0  0  0  0  0  0  0
   -7.9330   -7.8961   12.4307 C   0  0  2  0  0  0  0  0  0  0  0  0
  -10.2111   -7.9467    7.6977 N   0  0  0  0  0  0  0  0  0  0  0  0
  -10.1368   -6.9472    8.6174 C   0  0  1  0  0  0  0  0  0  0  0  0
  -10.7161   -5.7546    8.3417 N   0  0  0  0  0  0  0  0  0  0  0  0
   -9.4990   -7.1192    9.8072 N   0  0  0  0  0  0  0  0  0  0  0  0
   -8.9026   -8.2976   10.1346 C   0  0  2  0  0  0  0  0  0  0  0  0
   -8.9468   -9.3501    9.2383 C   0  0  1  0  0  0  0  0  0  0  0  0
   -9.6443   -9.1487    7.9427 C   0  0  0  0  0  0  0  0  0  0  0  0
   -9.7062  -10.0689    7.0968 O   0  0  0  0  0  0  0  0  0  0  0  0
   -8.2887  -10.3853    9.7883 N   0  0  0  0  0  0  0  0  0  0  0  0
   -7.8494   -9.9870   11.0051 C   0  0  0  0  0  0  0  0  0  0  0  0
   -8.2256   -8.7125   11.2156 N   0  0  1  0  0  0  0  0  0  0  0  0
  1  2  1  0  0  0  0
  3  1  1  6  0  0  0
  3  4  1  0  0  0  0
  3  5  1  0  0  0  0
  5  6  1  1  0  0  0
  5  7  1  0  0  0  0
  7  8  1  0  0  0  0
  8  4  1  6  0  0  0
  8 19  1  0  0  0  0
  9 15  1  0  0  0  0
  9 10  1  0  0  0  0
 10 11  1  1  0  0  0
 10 12  1  0  0  0  0
 13 12  1  1  0  0  0
 13 14  1  0  0  0  0
 13 19  1  0  0  0  0
 14 15  1  6  0  0  0
 14 17  1  0  0  0  0
 15 16  2  0  0  0  0
 17 18  1  0  0  0  0
 19 18  1  6  0  0  0
M  END
>  <CHROM.1>
57.29342619,-18.88834920,-8.18723361,-7.53031334,10.50020280,0.46059587,-0.88695116
0.05534001

>  <Name>
ligand

>  <RI>
0

>  <Rbt.Current_Directory>
/home/itssahil/PROJECTS/Mol_Feturizer/New_Systems/rnas/3SKI

>  <Rbt.Executable>
rbdock ($Id: //depot/dev/client3/rdock/2013.1/src/exe/rbdock.cxx#4 $)

>  <Rbt.Library>
libRbt.so (2013.1, Build901 2013/11/27)

>  <Rbt.Parameter_File>
/export/apps/rDock/src/rDock_2013.1_src/data/scripts/dock_solv.prm

>  <Rbt.Receptor>
prm/pocket_docking_7.prm

>  <SCORE>
-15.7061

>  <SCORE.INTER>
-12.695

>  <SCORE.INTER.CONST>
1

>  <SCORE.INTER.POLAR>
0

>  <SCORE.INTER.ROT>
2

>  <SCORE.INTER.SOLV>
10.5966

>  <SCORE.INTER.VDW>
-16.9289

>  <SCORE.INTER.norm>
-0.668158

>  <SCORE.INTRA>
-3.01109

>  <SCORE.INTRA.DIHEDRAL>
-5.0244

>  <SCORE.INTRA.DIHEDRAL.0>
6.26853

>  <SCORE.INTRA.POLAR>
0

>  <SCORE.INTRA.POLAR.0>
0

>  <SCORE.INTRA.REPUL>
0

>  <SCORE.INTRA.REPUL.0>
0

>  <SCORE.INTRA.SOLV>
-0.146216

>  <SCORE.INTRA.SOLV.lig_0>
-38.4926

>  <SCORE.INTRA.VDW>
-0.425779

>  <SCORE.INTRA.VDW.0>
-0.59057

>  <SCORE.INTRA.norm>
-0.158478

>  <SCORE.RESTR>
0

>  <SCORE.RESTR.CAVITY>
0

>  <SCORE.RESTR.norm>
0

>  <SCORE.SYSTEM>
0

>  <SCORE.SYSTEM.CONST>
0

>  <SCORE.SYSTEM.DIHEDRAL>
0

>  <SCORE.SYSTEM.SOLV>
0

>  <SCORE.SYSTEM.norm>
0

>  <SCORE.heavy>
19

>  <SCORE.norm>
-0.826636

>  <RMSD>
6.634

$$$$
ligand
 OpenBabel11021811483D
libRbt.so/2013.1/901 2013/11/27
 19 21  0  0  0  0  0  0  0  0999 V2000
   -5.2201   -5.0311    9.3604 C   0  0  0  0  0  0  0  0  0  0  0  0
   -4.3247   -4.1211    8.7044 O   0  0  0  0  0  0  0  0  0  0  0  0
   -6.4301   -4.2789    9.9189 C   0  0  1  0  0  0  0  0  0  0  0  0
   -7.4378   -4.1095    8.9035 O   0  0  0  0  0  0  0  0  0  0  0  0
   -7.0707   -5.0468   11.0616 C   0  0  1  0  0  0  0  0  0  0  0  0
   -6.7425   -4.4601   12.3271 O   0  0  0  0  0  0  0  0  0  0  0  0
   -8.5626   -4.9795   10.8172 C   0  0  0  0  0  0  0  0  0  0  0  0
   -8.7286   -4.5226    9.3753 C   0  0  2  0  0  0  0  0  0  0  0  0
   -8.8299   -9.7239    8.6476 N   0  0  0  0  0  0  0  0  0  0  0  0
   -8.2029   -8.9912    9.6070 C   0  0  1  0  0  0  0  0  0  0  0  0
   -7.4738   -9.6307   10.5522 N   0  0  0  0  0  0  0  0  0  0  0  0
   -8.2877   -7.6333    9.6361 N   0  0  0  0  0  0  0  0  0  0  0  0
   -9.0050   -6.9420    8.7093 C   0  0  2  0  0  0  0  0  0  0  0  0
   -9.6634   -7.6345    7.7091 C   0  0  1  0  0  0  0  0  0  0  0  0
   -9.5643   -9.1162    7.6898 C   0  0  0  0  0  0  0  0  0  0  0  0
  -10.1468   -9.7873    6.8087 O   0  0  0  0  0  0  0  0  0  0  0  0
  -10.2955   -6.7352    6.9352 N   0  0  0  0  0  0  0  0  0  0  0  0
  -10.0305   -5.5075    7.4397 C   0  0  0  0  0  0  0  0  0  0  0  0
   -9.2418   -5.6351    8.5224 N   0  0  1  0  0  0  0  0  0  0  0  0
  1  2  1  0  0  0  0
  3  1  1  6  0  0  0
  3  4  1  0  0  0  0
  3  5  1  0  0  0  0
  5  6  1  1  0  0  0
  5  7  1  0  0  0  0
  7  8  1  0  0  0  0
  8  4  1  6  0  0  0
  8 19  1  0  0  0  0
  9 15  1  0  0  0  0
  9 10  1  0  0  0  0
 10 11  1  6  0  0  0
 10 12  1  0  0  0  0
 13 12  1  6  0  0  0
 13 14  1  0  0  0  0
 13 19  1  0  0  0  0
 14 15  1  1  0  0  0
 14 17  1  0  0  0  0
 15 16  2  0  0  0  0
 17 18  1  0  0  0  0
 19 18  1  1  0  0  0
M  END
>  <CHROM.1>
84.53151167,87.80315409,-8.10632973,-6.47150662,9.11505527,-0.71494142,0.77098240
2.93380249

>  <Name>
ligand

>  <RI>
0

>  <Rbt.Current_Directory>
/home/itssahil/PROJECTS/Mol_Feturizer/New_Systems/rnas/3SKI

>  <Rbt.Executable>
rbdock ($Id: //depot/dev/client3/rdock/2013.1/src/exe/rbdock.cxx#4 $)

>  <Rbt.Library>
libRbt.so (2013.1, Build901 2013/11/27)

>  <Rbt.Parameter_File>
/export/apps/rDock/src/rDock_2013.1_src/data/scripts/dock_solv.prm

>  <Rbt.Receptor>
prm/blind_docking_60.prm

>  <SCORE>
-14.1858

>  <SCORE.INTER>
-12.1538

>  <SCORE.INTER.CONST>
1

>  <SCORE.INTER.POLAR>
0

>  <SCORE.INTER.ROT>
2

>  <SCORE.INTER.SOLV>
15.9142

>  <SCORE.INTER.VDW>
-18.3406

>  <SCORE.INTER.norm>
-0.639676

>  <SCORE.INTRA>
-2.03193

>  <SCORE.INTRA.DIHEDRAL>
-3.14829

>  <SCORE.INTRA.DIHEDRAL.0>
6.26853

>  <SCORE.INTRA.POLAR>
0

>  <SCORE.INTRA.POLAR.0>
0

>  <SCORE.INTRA.REPUL>
0

>  <SCORE.INTRA.REPUL.0>
0

>  <SCORE.INTRA.SOLV>
-0.290002

>  <SCORE.INTRA.SOLV.lig_0>
-38.4926

>  <SCORE.INTRA.VDW>
-0.312783

>  <SCORE.INTRA.VDW.0>
-0.59057

>  <SCORE.INTRA.norm>
-0.106944

>  <SCORE.RESTR>
0

>  <SCORE.RESTR.CAVITY>
0

>  <SCORE.RESTR.norm>
0

>  <SCORE.SYSTEM>
0

>  <SCORE.SYSTEM.CONST>
0

>  <SCORE.SYSTEM.DIHEDRAL>
0

>  <SCORE.SYSTEM.SOLV>
0

>  <SCORE.SYSTEM.norm>
0

>  <SCORE.heavy>
19

>  <SCORE.norm>
-0.74662

>  <RMSD>
6.657

$$$$
ligand
 OpenBabel11021811483D
libRbt.so/2013.1/901 2013/11/27
 19 21  0  0  0  0  0  0  0  0999 V2000
   -5.8767   -7.5215   13.4946 C   0  0  0  0  0  0  0  0  0  0  0  0
   -5.9148   -6.5068   12.4801 O   0  0  0  0  0  0  0  0  0  0  0  0
   -6.5154   -8.8137   12.9805 C   0  0  1  0  0  0  0  0  0  0  0  0
   -7.8818   -8.5847   12.5859 O   0  0  0  0  0  0  0  0  0  0  0  0
   -5.7793   -9.3389   11.7606 C   0  0  1  0  0  0  0  0  0  0  0  0
   -4.9550  -10.4616   12.0977 O   0  0  0  0  0  0  0  0  0  0  0  0
   -6.8534   -9.7468   10.7758 C   0  0  0  0  0  0  0  0  0  0  0  0
   -8.1408   -9.1071   11.2746 C   0  0  2  0  0  0  0  0  0  0  0  0
  -10.4860   -7.8923    6.7339 N   0  0  0  0  0  0  0  0  0  0  0  0
  -10.2411   -9.1099    7.2887 C   0  0  1  0  0  0  0  0  0  0  0  0
  -10.6315  -10.2252    6.6273 N   0  0  0  0  0  0  0  0  0  0  0  0
   -9.6104   -9.2329    8.4884 N   0  0  0  0  0  0  0  0  0  0  0  0
   -9.1957   -8.1450    9.1926 C   0  0  2  0  0  0  0  0  0  0  0  0
   -9.4171   -6.8807    8.6770 C   0  0  1  0  0  0  0  0  0  0  0  0
  -10.1082   -6.7603    7.3680 C   0  0  0  0  0  0  0  0  0  0  0  0
  -10.3364   -5.6383    6.8630 O   0  0  0  0  0  0  0  0  0  0  0  0
   -8.9259   -5.9881    9.5541 N   0  0  0  0  0  0  0  0  0  0  0  0
   -8.4036   -6.6832   10.5914 C   0  0  0  0  0  0  0  0  0  0  0  0
   -8.5682   -7.9999   10.3691 N   0  0  1  0  0  0  0  0  0  0  0  0
  1  2  1  0  0  0  0
  3  1  1  6  0  0  0
  3  4  1  0  0  0  0
  3  5  1  0  0  0  0
  5  6  1  1  0  0  0
  5  7  1  0  0  0  0
  7  8  1  0  0  0  0
  8  4  1  1  0  0  0
  8 19  1  0  0  0  0
  9 15  1  0  0  0  0
  9 10  1  0  0  0  0
 10 11  1  6  0  0  0
 10 12  1  0  0  0  0
 13 12  1  6  0  0  0
 13 14  1  0  0  0  0
 13 19  1  0  0  0  0
 14 15  1  1  0  0  0
 14 17  1  0  0  0  0
 15 16  2  0  0  0  0
 17 18  1  0  0  0  0
 19 18  1  1  0  0  0
M  END
>  <CHROM.1>
-58.79063912,-162.62238882,-8.24796471,-8.14150104,10.01815978,0.03462830
-0.90947343,0.21679100

>  <Name>
ligand

>  <RI>
0

>  <Rbt.Current_Directory>
/home/itssahil/PROJECTS/Mol_Feturizer/New_Systems/rnas/3SKI

>  <Rbt.Executable>
rbdock ($Id: //depot/dev/client3/rdock/2013.1/src/exe/rbdock.cxx#4 $)

>  <Rbt.Library>
libRbt.so (2013.1, Build901 2013/11/27)

>  <Rbt.Parameter_File>
/export/apps/rDock/src/rDock_2013.1_src/data/scripts/dock_solv.prm

>  <Rbt.Receptor>
prm/pocket_docking_8.prm

>  <SCORE>
-13.6958

>  <SCORE.INTER>
-10.6581

>  <SCORE.INTER.CONST>
1

>  <SCORE.INTER.POLAR>
0

>  <SCORE.INTER.ROT>
2

>  <SCORE.INTER.SOLV>
18.4043

>  <SCORE.INTER.VDW>
-18.1735

>  <SCORE.INTER.norm>
-0.560954

>  <SCORE.INTRA>
-3.03771

>  <SCORE.INTRA.DIHEDRAL>
-5.04536

>  <SCORE.INTRA.DIHEDRAL.0>
6.26853

>  <SCORE.INTRA.POLAR>
0

>  <SCORE.INTRA.POLAR.0>
0

>  <SCORE.INTRA.REPUL>
0

>  <SCORE.INTRA.REPUL.0>
0

>  <SCORE.INTRA.SOLV>
0.284978

>  <SCORE.INTRA.SOLV.lig_0>
-38.4926

>  <SCORE.INTRA.VDW>
-0.657525

>  <SCORE.INTRA.VDW.0>
-0.59057

>  <SCORE.INTRA.norm>
-0.15988

>  <SCORE.RESTR>
0

>  <SCORE.RESTR.CAVITY>
0

>  <SCORE.RESTR.norm>
0

>  <SCORE.SYSTEM>
0

>  <SCORE.SYSTEM.CONST>
0

>  <SCORE.SYSTEM.DIHEDRAL>
0

>  <SCORE.SYSTEM.SOLV>
0

>  <SCORE.SYSTEM.norm>
0

>  <SCORE.heavy>
19

>  <SCORE.norm>
-0.720834

>  <RMSD>
6.674

$$$$
ligand
 OpenBabel11021811483D
libRbt.so/2013.1/901 2013/11/27
 19 21  0  0  0  0  0  0  0  0999 V2000
   -9.2832   -5.7186   10.5697 C   0  0  0  0  0  0  0  0  0  0  0  0
  -10.6088   -6.0082   10.1017 O   0  0  0  0  0  0  0  0  0  0  0  0
   -8.2677   -6.6510    9.9054 C   0  0  1  0  0  0  0  0  0  0  0  0
   -6.9296   -6.3369   10.3365 O   0  0  0  0  0  0  0  0  0  0  0  0
   -8.5300   -8.0992   10.2789 C   0  0  1  0  0  0  0  0  0  0  0  0
   -9.1485   -8.8082    9.1981 O   0  0  0  0  0  0  0  0  0  0  0  0
   -7.1753   -8.6942   10.5965 C   0  0  0  0  0  0  0  0  0  0  0  0
   -6.2323   -7.5129   10.7728 C   0  0  2  0  0  0  0  0  0  0  0  0
   -3.1898   -9.3485   14.6415 N   0  0  0  0  0  0  0  0  0  0  0  0
   -3.3084   -9.7690   13.3534 C   0  0  1  0  0  0  0  0  0  0  0  0
   -2.5607  -10.8163   12.9313 N   0  0  0  0  0  0  0  0  0  0  0  0
   -4.1624   -9.1657   12.4822 N   0  0  0  0  0  0  0  0  0  0  0  0
   -4.9376   -8.1116   12.8557 C   0  0  2  0  0  0  0  0  0  0  0  0
   -4.8597   -7.6411   14.1540 C   0  0  1  0  0  0  0  0  0  0  0  0
   -3.9224   -8.3070   15.0941 C   0  0  0  0  0  0  0  0  0  0  0  0
   -3.8121   -7.9141   16.2771 O   0  0  0  0  0  0  0  0  0  0  0  0
   -5.7088   -6.6050   14.2666 N   0  0  0  0  0  0  0  0  0  0  0  0
   -6.3078   -6.4383   13.0642 C   0  0  0  0  0  0  0  0  0  0  0  0
   -5.8367   -7.3593   12.2040 N   0  0  1  0  0  0  0  0  0  0  0  0
  1  2  1  0  0  0  0
  3  1  1  1  0  0  0
  3  4  1  0  0  0  0
  3  5  1  0  0  0  0
  5  6  1  6  0  0  0
  5  7  1  0  0  0  0
  7  8  1  0  0  0  0
  8  4  1  1  0  0  0
  8 19  1  0  0  0  0
  9 15  1  0  0  0  0
  9 10  1  0  0  0  0
 10 11  1  1  0  0  0
 10 12  1  0  0  0  0
 13 12  1  1  0  0  0
 13 14  1  0  0  0  0
 13 19  1  0  0  0  0
 14 15  1  6  0  0  0
 14 17  1  0  0  0  0
 15 16  2  0  0  0  0
 17 18  1  0  0  0  0
 19 18  1  6  0  0  0
M  END
>  <CHROM.1>
178.08317644,-164.67677678,-6.12375902,-7.83752305,12.21042778,2.85734365
0.67847990,-2.28565759

>  <Name>
ligand

>  <RI>
0

>  <Rbt.Current_Directory>
/home/itssahil/PROJECTS/Mol_Feturizer/New_Systems/rnas/3SKI

>  <Rbt.Executable>
rbdock ($Id: //depot/dev/client3/rdock/2013.1/src/exe/rbdock.cxx#4 $)

>  <Rbt.Library>
libRbt.so (2013.1, Build901 2013/11/27)

>  <Rbt.Parameter_File>
/export/apps/rDock/src/rDock_2013.1_src/data/scripts/dock_solv.prm

>  <Rbt.Receptor>
prm/pocket_docking_6.prm

>  <SCORE>
-12.3627

>  <SCORE.INTER>
-9.41619

>  <SCORE.INTER.CONST>
1

>  <SCORE.INTER.POLAR>
0

>  <SCORE.INTER.ROT>
2

>  <SCORE.INTER.SOLV>
12.2285

>  <SCORE.INTER.VDW>
-15.287

>  <SCORE.INTER.norm>
-0.495589

>  <SCORE.INTRA>
-2.94647

>  <SCORE.INTRA.DIHEDRAL>
-5.03982

>  <SCORE.INTRA.DIHEDRAL.0>
6.26853

>  <SCORE.INTRA.POLAR>
0

>  <SCORE.INTRA.POLAR.0>
0

>  <SCORE.INTRA.REPUL>
0

>  <SCORE.INTRA.REPUL.0>
0

>  <SCORE.INTRA.SOLV>
-0.0207517

>  <SCORE.INTRA.SOLV.lig_0>
-38.4926

>  <SCORE.INTRA.VDW>
-0.416181

>  <SCORE.INTRA.VDW.0>
-0.59057

>  <SCORE.INTRA.norm>
-0.155077

>  <SCORE.RESTR>
0

>  <SCORE.RESTR.CAVITY>
0

>  <SCORE.RESTR.norm>
0

>  <SCORE.SYSTEM>
0

>  <SCORE.SYSTEM.CONST>
0

>  <SCORE.SYSTEM.DIHEDRAL>
0

>  <SCORE.SYSTEM.SOLV>
0

>  <SCORE.SYSTEM.norm>
0

>  <SCORE.heavy>
19

>  <SCORE.norm>
-0.650666

>  <RMSD>
6.730

$$$$
ligand
 OpenBabel11021811483D
libRbt.so/2013.1/901 2013/11/27
 19 21  0  0  0  0  0  0  0  0999 V2000
   -5.8351   -7.5056   13.4700 C   0  0  0  0  0  0  0  0  0  0  0  0
   -4.4472   -7.6982   13.7815 O   0  0  0  0  0  0  0  0  0  0  0  0
   -6.4548   -8.8112   12.9669 C   0  0  1  0  0  0  0  0  0  0  0  0
   -7.8544   -8.6322   12.6769 O   0  0  0  0  0  0  0  0  0  0  0  0
   -5.7873   -9.2737   11.6838 C   0  0  1  0  0  0  0  0  0  0  0  0
   -4.8949  -10.3675   11.9303 O   0  0  0  0  0  0  0  0  0  0  0  0
   -6.9117   -9.7035   10.7668 C   0  0  0  0  0  0  0  0  0  0  0  0
   -8.1853   -9.1329   11.3733 C   0  0  2  0  0  0  0  0  0  0  0  0
  -10.5425   -7.8872    6.8472 N   0  0  0  0  0  0  0  0  0  0  0  0
  -10.1634   -9.1028    7.3255 C   0  0  1  0  0  0  0  0  0  0  0  0
  -10.3951  -10.2066    6.5758 N   0  0  0  0  0  0  0  0  0  0  0  0
   -9.5541   -9.2346    8.5352 N   0  0  0  0  0  0  0  0  0  0  0  0
   -9.2961   -8.1581    9.3265 C   0  0  2  0  0  0  0  0  0  0  0  0
   -9.6588   -6.8963    8.8913 C   0  0  1  0  0  0  0  0  0  0  0  0
  -10.3247   -6.7665    7.5702 C   0  0  0  0  0  0  0  0  0  0  0  0
  -10.6768   -5.6470    7.1357 O   0  0  0  0  0  0  0  0  0  0  0  0
   -9.3052   -6.0163    9.8442 N   0  0  0  0  0  0  0  0  0  0  0  0
   -8.7282   -6.7159   10.8492 C   0  0  0  0  0  0  0  0  0  0  0  0
   -8.7226   -8.0233   10.5314 N   0  0  1  0  0  0  0  0  0  0  0  0
  1  2  1  0  0  0  0
  3  1  1  6  0  0  0
  3  4  1  0  0  0  0
  3  5  1  0  0  0  0
  5  6  1  1  0  0  0
  5  7  1  0  0  0  0
  7  8  1  0  0  0  0
  8  4  1  1  0  0  0
  8 19  1  0  0  0  0
  9 15  1  0  0  0  0
  9 10  1  0  0  0  0
 10 11  1  6  0  0  0
 10 12  1  0  0  0  0
 13 12  1  6  0  0  0
 13 14  1  0  0  0  0
 13 19  1  0  0  0  0
 14 15  1  1  0  0  0
 14 17  1  0  0  0  0
 15 16  2  0  0  0  0
 17 18  1  0  0  0  0
 19 18  1  1  0  0  0
M  END
>  <CHROM.1>
178.88283317,-170.51057440,-8.22705125,-8.21124937,10.17746381,0.19938902
-0.84954382,0.44612447

>  <Name>
ligand

>  <RI>
0

>  <Rbt.Current_Directory>
/home/itssahil/PROJECTS/Mol_Feturizer/New_Systems/rnas/3SKI

>  <Rbt.Executable>
rbdock ($Id: //depot/dev/client3/rdock/2013.1/src/exe/rbdock.cxx#4 $)

>  <Rbt.Library>
libRbt.so (2013.1, Build901 2013/11/27)

>  <Rbt.Parameter_File>
/export/apps/rDock/src/rDock_2013.1_src/data/scripts/dock_solv.prm

>  <Rbt.Receptor>
prm/pocket_docking_6.prm

>  <SCORE>
-13.7781

>  <SCORE.INTER>
-10.8787

>  <SCORE.INTER.CONST>
1

>  <SCORE.INTER.POLAR>
0

>  <SCORE.INTER.ROT>
2

>  <SCORE.INTER.SOLV>
18.7202

>  <SCORE.INTER.VDW>
-18.4259

>  <SCORE.INTER.norm>
-0.572564

>  <SCORE.INTRA>
-2.89942

>  <SCORE.INTRA.DIHEDRAL>
-5.05287

>  <SCORE.INTRA.DIHEDRAL.0>
6.26853

>  <SCORE.INTRA.POLAR>
0

>  <SCORE.INTRA.POLAR.0>
0

>  <SCORE.INTRA.REPUL>
0

>  <SCORE.INTRA.REPUL.0>
0

>  <SCORE.INTRA.SOLV>
-0.0184844

>  <SCORE.INTRA.SOLV.lig_0>
-38.4926

>  <SCORE.INTRA.VDW>
-0.36374

>  <SCORE.INTRA.VDW.0>
-0.59057

>  <SCORE.INTRA.norm>
-0.152601

>  <SCORE.RESTR>
0

>  <SCORE.RESTR.CAVITY>
0

>  <SCORE.RESTR.norm>
0

>  <SCORE.SYSTEM>
0

>  <SCORE.SYSTEM.CONST>
0

>  <SCORE.SYSTEM.DIHEDRAL>
0

>  <SCORE.SYSTEM.SOLV>
0

>  <SCORE.SYSTEM.norm>
0

>  <SCORE.heavy>
19

>  <SCORE.norm>
-0.725165

>  <RMSD>
6.742

$$$$
ligand
 OpenBabel11021811483D
libRbt.so/2013.1/901 2013/11/27
 19 21  0  0  0  0  0  0  0  0999 V2000
   -6.5088   -1.8538    9.7308 C   0  0  0  0  0  0  0  0  0  0  0  0
   -7.0142   -0.9888   10.7587 O   0  0  0  0  0  0  0  0  0  0  0  0
   -6.3517   -3.2797   10.2635 C   0  0  1  0  0  0  0  0  0  0  0  0
   -7.6303   -3.8274   10.6382 O   0  0  0  0  0  0  0  0  0  0  0  0
   -5.7650   -4.1966    9.2047 C   0  0  1  0  0  0  0  0  0  0  0  0
   -4.3836   -4.4728    9.4678 O   0  0  0  0  0  0  0  0  0  0  0  0
   -6.5807   -5.4698    9.2649 C   0  0  0  0  0  0  0  0  0  0  0  0
   -7.8304   -5.1267   10.0625 C   0  0  2  0  0  0  0  0  0  0  0  0
  -10.8473   -7.9140    6.7880 N   0  0  0  0  0  0  0  0  0  0  0  0
   -9.7298   -8.2838    7.4695 C   0  0  1  0  0  0  0  0  0  0  0  0
   -9.2629   -9.5475    7.3320 N   0  0  0  0  0  0  0  0  0  0  0  0
   -9.0690   -7.4138    8.2811 N   0  0  0  0  0  0  0  0  0  0  0  0
   -9.4945   -6.1327    8.4525 C   0  0  2  0  0  0  0  0  0  0  0  0
  -10.6254   -5.7003    7.7838 C   0  0  1  0  0  0  0  0  0  0  0  0
  -11.3382   -6.6602    6.9028 C   0  0  0  0  0  0  0  0  0  0  0  0
  -12.3691   -6.3180    6.2813 O   0  0  0  0  0  0  0  0  0  0  0  0
  -10.8362   -4.4163    8.1219 N   0  0  0  0  0  0  0  0  0  0  0  0
   -9.8525   -4.0552    8.9787 C   0  0  0  0  0  0  0  0  0  0  0  0
   -9.0335   -5.1038    9.1791 N   0  0  1  0  0  0  0  0  0  0  0  0
  1  2  1  0  0  0  0
  3  1  1  6  0  0  0
  3  4  1  0  0  0  0
  3  5  1  0  0  0  0
  5  6  1  1  0  0  0
  5  7  1  0  0  0  0
  7  8  1  0  0  0  0
  8  4  1  6  0  0  0
  8 19  1  0  0  0  0
  9 15  1  0  0  0  0
  9 10  1  0  0  0  0
 10 11  1  6  0  0  0
 10 12  1  0  0  0  0
 13 12  1  6  0  0  0
 13 14  1  0  0  0  0
 13 19  1  0  0  0  0
 14 15  1  1  0  0  0
 14 17  1  0  0  0  0
 15 16  2  0  0  0  0
 17 18  1  0  0  0  0
 19 18  1  1  0  0  0
M  END
>  <CHROM.1>
63.37404757,178.08685173,-8.59770566,-5.23971497,8.71680249,0.82577227,-0.31118562
0.31843840

>  <Name>
ligand

>  <RI>
0

>  <Rbt.Current_Directory>
/home/itssahil/PROJECTS/Mol_Feturizer/New_Systems/rnas/3SKI

>  <Rbt.Executable>
rbdock ($Id: //depot/dev/client3/rdock/2013.1/src/exe/rbdock.cxx#4 $)

>  <Rbt.Library>
libRbt.so (2013.1, Build901 2013/11/27)

>  <Rbt.Parameter_File>
/export/apps/rDock/src/rDock_2013.1_src/data/scripts/dock_solv.prm

>  <Rbt.Receptor>
prm/pocket_docking_6.prm

>  <SCORE>
-14.2575

>  <SCORE.INTER>
-11.2706

>  <SCORE.INTER.CONST>
1

>  <SCORE.INTER.POLAR>
0

>  <SCORE.INTER.ROT>
2

>  <SCORE.INTER.SOLV>
19.2045

>  <SCORE.INTER.VDW>
-18.8485

>  <SCORE.INTER.norm>
-0.593187

>  <SCORE.INTRA>
-2.98697

>  <SCORE.INTRA.DIHEDRAL>
-5.02552

>  <SCORE.INTRA.DIHEDRAL.0>
6.26853

>  <SCORE.INTRA.POLAR>
0

>  <SCORE.INTRA.POLAR.0>
0

>  <SCORE.INTRA.REPUL>
0

>  <SCORE.INTRA.REPUL.0>
0

>  <SCORE.INTRA.SOLV>
-0.255288

>  <SCORE.INTRA.SOLV.lig_0>
-38.4926

>  <SCORE.INTRA.VDW>
-0.346563

>  <SCORE.INTRA.VDW.0>
-0.59057

>  <SCORE.INTRA.norm>
-0.157209

>  <SCORE.RESTR>
0

>  <SCORE.RESTR.CAVITY>
0

>  <SCORE.RESTR.norm>
0

>  <SCORE.SYSTEM>
0

>  <SCORE.SYSTEM.CONST>
0

>  <SCORE.SYSTEM.DIHEDRAL>
0

>  <SCORE.SYSTEM.SOLV>
0

>  <SCORE.SYSTEM.norm>
0

>  <SCORE.heavy>
19

>  <SCORE.norm>
-0.750396

>  <RMSD>
6.754

$$$$
ligand
 OpenBabel11021811483D
libRbt.so/2013.1/901 2013/11/27
 19 21  0  0  0  0  0  0  0  0999 V2000
   -7.9583   -8.1131   10.2553 C   0  0  0  0  0  0  0  0  0  0  0  0
   -8.2899   -8.8025   11.4697 O   0  0  0  0  0  0  0  0  0  0  0  0
   -8.8759   -8.5662    9.1174 C   0  0  1  0  0  0  0  0  0  0  0  0
  -10.2342   -8.1549    9.3638 O   0  0  0  0  0  0  0  0  0  0  0  0
   -8.4536   -7.9479    7.7963 C   0  0  1  0  0  0  0  0  0  0  0  0
   -7.7765   -8.9039    6.9709 O   0  0  0  0  0  0  0  0  0  0  0  0
   -9.7317   -7.4848    7.1315 C   0  0  0  0  0  0  0  0  0  0  0  0
  -10.7944   -7.4924    8.2206 C   0  0  2  0  0  0  0  0  0  0  0  0
  -13.8184   -3.3773    6.9899 N   0  0  0  0  0  0  0  0  0  0  0  0
  -13.7034   -4.5869    6.3783 C   0  0  1  0  0  0  0  0  0  0  0  0
  -14.4500   -4.8416    5.2776 N   0  0  0  0  0  0  0  0  0  0  0  0
  -12.8541   -5.5431    6.8435 N   0  0  0  0  0  0  0  0  0  0  0  0
  -12.0802   -5.3376    7.9436 C   0  0  2  0  0  0  0  0  0  0  0  0
  -12.1545   -4.1257    8.6063 C   0  0  1  0  0  0  0  0  0  0  0  0
  -13.0868   -3.0915    8.0895 C   0  0  0  0  0  0  0  0  0  0  0  0
  -13.1938   -1.9817    8.6578 O   0  0  0  0  0  0  0  0  0  0  0  0
  -11.3076   -4.1756    9.6491 N   0  0  0  0  0  0  0  0  0  0  0  0
  -10.7134   -5.3917    9.6318 C   0  0  0  0  0  0  0  0  0  0  0  0
  -11.1853   -6.0998    8.5896 N   0  0  1  0  0  0  0  0  0  0  0  0
  1  2  1  0  0  0  0
  3  1  1  1  0  0  0
  3  4  1  0  0  0  0
  3  5  1  0  0  0  0
  5  6  1  6  0  0  0
  5  7  1  0  0  0  0
  7  8  1  0  0  0  0
  8  4  1  1  0  0  0
  8 19  1  0  0  0  0
  9 15  1  0  0  0  0
  9 10  1  0  0  0  0
 10 11  1  6  0  0  0
 10 12  1  0  0  0  0
 13 12  1  6  0  0  0
 13 14  1  0  0  0  0
 13 19  1  0  0  0  0
 14 15  1  1  0  0  0
 14 17  1  0  0  0  0
 15 16  2  0  0  0  0
 17 18  1  0  0  0  0
 19 18  1  1  0  0  0
M  END
>  <CHROM.1>
66.56829611,-158.36764080,-11.02137160,-6.06490795,8.29208787,-0.13064773
-0.80116879,1.01744107

>  <Name>
ligand

>  <RI>
0

>  <Rbt.Current_Directory>
/home/itssahil/PROJECTS/Mol_Feturizer/New_Systems/rnas/3SKI

>  <Rbt.Executable>
rbdock ($Id: //depot/dev/client3/rdock/2013.1/src/exe/rbdock.cxx#4 $)

>  <Rbt.Library>
libRbt.so (2013.1, Build901 2013/11/27)

>  <Rbt.Parameter_File>
/export/apps/rDock/src/rDock_2013.1_src/data/scripts/dock_solv.prm

>  <Rbt.Receptor>
prm/blind_docking_60.prm

>  <SCORE>
-14.828

>  <SCORE.INTER>
-11.7328

>  <SCORE.INTER.CONST>
1

>  <SCORE.INTER.POLAR>
0

>  <SCORE.INTER.ROT>
2

>  <SCORE.INTER.SOLV>
7.67275

>  <SCORE.INTER.VDW>
-15.3128

>  <SCORE.INTER.norm>
-0.617516

>  <SCORE.INTRA>
-3.09524

>  <SCORE.INTRA.DIHEDRAL>
-4.89213

>  <SCORE.INTRA.DIHEDRAL.0>
6.26853

>  <SCORE.INTRA.POLAR>
0

>  <SCORE.INTRA.POLAR.0>
0

>  <SCORE.INTRA.REPUL>
0

>  <SCORE.INTRA.REPUL.0>
0

>  <SCORE.INTRA.SOLV>
-0.259699

>  <SCORE.INTRA.SOLV.lig_0>
-38.4926

>  <SCORE.INTRA.VDW>
-0.519326

>  <SCORE.INTRA.VDW.0>
-0.59057

>  <SCORE.INTRA.norm>
-0.162907

>  <SCORE.RESTR>
0

>  <SCORE.RESTR.CAVITY>
0

>  <SCORE.RESTR.norm>
0

>  <SCORE.SYSTEM>
0

>  <SCORE.SYSTEM.CONST>
0

>  <SCORE.SYSTEM.DIHEDRAL>
0

>  <SCORE.SYSTEM.SOLV>
0

>  <SCORE.SYSTEM.norm>
0

>  <SCORE.heavy>
19

>  <SCORE.norm>
-0.780424

>  <RMSD>
6.868

$$$$
ligand
 OpenBabel11021811483D
libRbt.so/2013.1/901 2013/11/27
 19 21  0  0  0  0  0  0  0  0999 V2000
   -8.5392   -8.2953    8.2601 C   0  0  0  0  0  0  0  0  0  0  0  0
   -9.0973   -9.4377    7.5940 O   0  0  0  0  0  0  0  0  0  0  0  0
   -9.0349   -8.2265    9.7062 C   0  0  1  0  0  0  0  0  0  0  0  0
   -8.5631   -9.3590   10.4611 O   0  0  0  0  0  0  0  0  0  0  0  0
   -8.5192   -6.9788   10.4015 C   0  0  1  0  0  0  0  0  0  0  0  0
   -9.5494   -5.9898   10.5205 O   0  0  0  0  0  0  0  0  0  0  0  0
   -8.0582   -7.4311   11.7700 C   0  0  0  0  0  0  0  0  0  0  0  0
   -7.9586   -8.9477   11.6961 C   0  0  2  0  0  0  0  0  0  0  0  0
   -3.5246   -9.0551   14.5104 N   0  0  0  0  0  0  0  0  0  0  0  0
   -4.7368   -8.5190   14.8160 C   0  0  1  0  0  0  0  0  0  0  0  0
   -4.9013   -7.9013   16.0099 N   0  0  0  0  0  0  0  0  0  0  0  0
   -5.7843   -8.5850   13.9498 N   0  0  0  0  0  0  0  0  0  0  0  0
   -5.6718   -9.1919   12.7372 C   0  0  2  0  0  0  0  0  0  0  0  0
   -4.4621   -9.7544   12.3719 C   0  0  1  0  0  0  0  0  0  0  0  0
   -3.3275   -9.6772   13.3271 C   0  0  0  0  0  0  0  0  0  0  0  0
   -2.2151  -10.1761   13.0447 O   0  0  0  0  0  0  0  0  0  0  0  0
   -4.6113  -10.2892   11.1476 N   0  0  0  0  0  0  0  0  0  0  0  0
   -5.8864  -10.0584   10.7562 C   0  0  0  0  0  0  0  0  0  0  0  0
   -6.5325   -9.3877   11.7273 N   0  0  1  0  0  0  0  0  0  0  0  0
  1  2  1  0  0  0  0
  3  1  1  6  0  0  0
  3  4  1  0  0  0  0
  3  5  1  0  0  0  0
  5  6  1  1  0  0  0
  5  7  1  0  0  0  0
  7  8  1  0  0  0  0
  8  4  1  6  0  0  0
  8 19  1  0  0  0  0
  9 15  1  0  0  0  0
  9 10  1  0  0  0  0
 10 11  1  6  0  0  0
 10 12  1  0  0  0  0
 13 12  1  6  0  0  0
 13 14  1  0  0  0  0
 13 19  1  0  0  0  0
 14 15  1  1  0  0  0
 14 17  1  0  0  0  0
 15 16  2  0  0  0  0
 17 18  1  0  0  0  0
 19 18  1  1  0  0  0
M  END
>  <CHROM.1>
64.43165720,-178.92553112,-6.43249470,-8.78536906,11.76506443,-2.62173222
-0.56993958,1.05578705

>  <Name>
ligand

>  <RI>
0

>  <Rbt.Current_Directory>
/home/itssahil/PROJECTS/Mol_Feturizer/New_Systems/rnas/3SKI

>  <Rbt.Executable>
rbdock ($Id: //depot/dev/client3/rdock/2013.1/src/exe/rbdock.cxx#4 $)

>  <Rbt.Library>
libRbt.so (2013.1, Build901 2013/11/27)

>  <Rbt.Parameter_File>
/export/apps/rDock/src/rDock_2013.1_src/data/scripts/dock_solv.prm

>  <Rbt.Receptor>
prm/pocket_docking_6.prm

>  <SCORE>
-14.9684

>  <SCORE.INTER>
-11.961

>  <SCORE.INTER.CONST>
1

>  <SCORE.INTER.POLAR>
0

>  <SCORE.INTER.ROT>
2

>  <SCORE.INTER.SOLV>
15.1484

>  <SCORE.INTER.VDW>
-17.9568

>  <SCORE.INTER.norm>
-0.629525

>  <SCORE.INTRA>
-3.00776

>  <SCORE.INTRA.DIHEDRAL>
-4.99261

>  <SCORE.INTRA.DIHEDRAL.0>
6.26853

>  <SCORE.INTRA.POLAR>
0

>  <SCORE.INTRA.POLAR.0>
0

>  <SCORE.INTRA.REPUL>
0

>  <SCORE.INTRA.REPUL.0>
0

>  <SCORE.INTRA.SOLV>
-0.258084

>  <SCORE.INTRA.SOLV.lig_0>
-38.4926

>  <SCORE.INTRA.VDW>
-0.382408

>  <SCORE.INTRA.VDW.0>
-0.59057

>  <SCORE.INTRA.norm>
-0.158303

>  <SCORE.RESTR>
0.000352573

>  <SCORE.RESTR.CAVITY>
0.000352573

>  <SCORE.RESTR.norm>
1.85565e-05

>  <SCORE.SYSTEM>
0

>  <SCORE.SYSTEM.CONST>
0

>  <SCORE.SYSTEM.DIHEDRAL>
0

>  <SCORE.SYSTEM.SOLV>
0

>  <SCORE.SYSTEM.norm>
0

>  <SCORE.heavy>
19

>  <SCORE.norm>
-0.787809

>  <RMSD>
6.911

$$$$
ligand
 OpenBabel11021811483D
libRbt.so/2013.1/901 2013/11/27
 19 21  0  0  0  0  0  0  0  0999 V2000
   -5.0335    2.5261    6.7988 C   0  0  0  0  0  0  0  0  0  0  0  0
   -5.0272    3.4015    5.6614 O   0  0  0  0  0  0  0  0  0  0  0  0
   -3.6122    2.0586    7.1198 C   0  0  1  0  0  0  0  0  0  0  0  0
   -3.5480    1.4949    8.4438 O   0  0  0  0  0  0  0  0  0  0  0  0
   -3.1605    0.9796    6.1515 C   0  0  1  0  0  0  0  0  0  0  0  0
   -2.2415    1.5039    5.1850 O   0  0  0  0  0  0  0  0  0  0  0  0
   -2.4907   -0.0800    6.9993 C   0  0  0  0  0  0  0  0  0  0  0  0
   -2.9018    0.2135    8.4347 C   0  0  2  0  0  0  0  0  0  0  0  0
   -7.4160   -0.6701   10.9712 N   0  0  0  0  0  0  0  0  0  0  0  0
   -6.8043    0.5061   10.6669 C   0  0  1  0  0  0  0  0  0  0  0  0
   -7.3880    1.6685   11.0440 N   0  0  0  0  0  0  0  0  0  0  0  0
   -5.6199    0.5415    9.9976 N   0  0  0  0  0  0  0  0  0  0  0  0
   -4.9906   -0.5968    9.5981 C   0  0  2  0  0  0  0  0  0  0  0  0
   -5.5657   -1.8226    9.8808 C   0  0  1  0  0  0  0  0  0  0  0  0
   -6.8592   -1.8472   10.6100 C   0  0  0  0  0  0  0  0  0  0  0  0
   -7.4217   -2.9310   10.8837 O   0  0  0  0  0  0  0  0  0  0  0  0
   -4.7619   -2.7778    9.3818 N   0  0  0  0  0  0  0  0  0  0  0  0
   -3.7047   -2.1589    8.8061 C   0  0  0  0  0  0  0  0  0  0  0  0
   -3.8451   -0.8275    8.9395 N   0  0  1  0  0  0  0  0  0  0  0  0
  1  2  1  0  0  0  0
  3  1  1  6  0  0  0
  3  4  1  0  0  0  0
  3  5  1  0  0  0  0
  5  6  1  6  0  0  0
  5  7  1  0  0  0  0
  7  8  1  0  0  0  0
  8  4  1  6  0  0  0
  8 19  1  0  0  0  0
  9 15  1  0  0  0  0
  9 10  1  0  0  0  0
 10 11  1  1  0  0  0
 10 12  1  0  0  0  0
 13 12  1  1  0  0  0
 13 14  1  0  0  0  0
 13 19  1  0  0  0  0
 14 15  1  6  0  0  0
 14 17  1  0  0  0  0
 15 16  2  0  0  0  0
 17 18  1  0  0  0  0
 19 18  1  6  0  0  0
M  END
>  <CHROM.1>
164.20772803,-14.80647869,-4.84432414,0.12299640,8.64942786,0.85896830,0.65364236
-0.45050589

>  <Name>
ligand

>  <RI>
0

>  <Rbt.Current_Directory>
/home/itssahil/PROJECTS/Mol_Feturizer/New_Systems/rnas/3SKI

>  <Rbt.Executable>
rbdock ($Id: //depot/dev/client3/rdock/2013.1/src/exe/rbdock.cxx#4 $)

>  <Rbt.Library>
libRbt.so (2013.1, Build901 2013/11/27)

>  <Rbt.Parameter_File>
/export/apps/rDock/src/rDock_2013.1_src/data/scripts/dock_solv.prm

>  <Rbt.Receptor>
prm/pocket_docking_8.prm

>  <SCORE>
-9.19402

>  <SCORE.INTER>
-6.65052

>  <SCORE.INTER.CONST>
1

>  <SCORE.INTER.POLAR>
0

>  <SCORE.INTER.ROT>
2

>  <SCORE.INTER.SOLV>
27.4334

>  <SCORE.INTER.VDW>
-18.5115

>  <SCORE.INTER.norm>
-0.350028

>  <SCORE.INTRA>
-2.5435

>  <SCORE.INTRA.DIHEDRAL>
-4.20606

>  <SCORE.INTRA.DIHEDRAL.0>
6.26853

>  <SCORE.INTRA.POLAR>
0

>  <SCORE.INTRA.POLAR.0>
0

>  <SCORE.INTRA.REPUL>
0

>  <SCORE.INTRA.REPUL.0>
0

>  <SCORE.INTRA.SOLV>
-0.0233329

>  <SCORE.INTRA.SOLV.lig_0>
-38.4926

>  <SCORE.INTRA.VDW>
-0.428801

>  <SCORE.INTRA.VDW.0>
-0.59057

>  <SCORE.INTRA.norm>
-0.133868

>  <SCORE.RESTR>
0

>  <SCORE.RESTR.CAVITY>
0

>  <SCORE.RESTR.norm>
0

>  <SCORE.SYSTEM>
0

>  <SCORE.SYSTEM.CONST>
0

>  <SCORE.SYSTEM.DIHEDRAL>
0

>  <SCORE.SYSTEM.SOLV>
0

>  <SCORE.SYSTEM.norm>
0

>  <SCORE.heavy>
19

>  <SCORE.norm>
-0.483896

>  <RMSD>
6.922

$$$$
ligand
 OpenBabel11021811483D
libRbt.so/2013.1/901 2013/11/27
 19 21  0  0  0  0  0  0  0  0999 V2000
   -8.6328   -8.3597    8.2426 C   0  0  0  0  0  0  0  0  0  0  0  0
   -9.2254   -9.5011    7.6052 O   0  0  0  0  0  0  0  0  0  0  0  0
   -9.1147   -8.2477    9.6907 C   0  0  1  0  0  0  0  0  0  0  0  0
   -8.6701   -9.3784   10.4645 O   0  0  0  0  0  0  0  0  0  0  0  0
   -8.5572   -7.0022   10.3571 C   0  0  1  0  0  0  0  0  0  0  0  0
   -9.5571   -5.9813   10.4639 O   0  0  0  0  0  0  0  0  0  0  0  0
   -8.0986   -7.4408   11.7309 C   0  0  0  0  0  0  0  0  0  0  0  0
   -8.0441   -8.9608   11.6865 C   0  0  2  0  0  0  0  0  0  0  0  0
   -3.5700   -9.0783   14.4365 N   0  0  0  0  0  0  0  0  0  0  0  0
   -4.7608   -8.4930   14.7361 C   0  0  1  0  0  0  0  0  0  0  0  0
   -4.8877   -7.8190   15.9037 N   0  0  0  0  0  0  0  0  0  0  0  0
   -5.8237   -8.5653   13.8893 N   0  0  0  0  0  0  0  0  0  0  0  0
   -5.7488   -9.2280   12.7032 C   0  0  2  0  0  0  0  0  0  0  0  0
   -4.5623   -9.8421   12.3452 C   0  0  1  0  0  0  0  0  0  0  0  0
   -3.4106   -9.7574   13.2790 C   0  0  0  0  0  0  0  0  0  0  0  0
   -2.3181  -10.3015   13.0025 O   0  0  0  0  0  0  0  0  0  0  0  0
   -4.7470  -10.4253   11.1481 N   0  0  0  0  0  0  0  0  0  0  0  0
   -6.0209  -10.1735   10.7660 C   0  0  0  0  0  0  0  0  0  0  0  0
   -6.6312   -9.4417   11.7159 N   0  0  1  0  0  0  0  0  0  0  0  0
  1  2  1  0  0  0  0
  3  1  1  6  0  0  0
  3  4  1  0  0  0  0
  3  5  1  0  0  0  0
  5  6  1  1  0  0  0
  5  7  1  0  0  0  0
  7  8  1  0  0  0  0
  8  4  1  6  0  0  0
  8 19  1  0  0  0  0
  9 15  1  0  0  0  0
  9 10  1  0  0  0  0
 10 11  1  6  0  0  0
 10 12  1  0  0  0  0
 13 12  1  6  0  0  0
 13 14  1  0  0  0  0
 13 19  1  0  0  0  0
 14 15  1  1  0  0  0
 14 17  1  0  0  0  0
 15 16  2  0  0  0  0
 17 18  1  0  0  0  0
 19 18  1  1  0  0  0
M  END
>  <CHROM.1>
64.20562766,179.61714632,-6.50665114,-8.82389885,11.73170228,-2.65649153
-0.58968139,1.00266231

>  <Name>
ligand

>  <RI>
0

>  <Rbt.Current_Directory>
/home/itssahil/PROJECTS/Mol_Feturizer/New_Systems/rnas/3SKI

>  <Rbt.Executable>
rbdock ($Id: //depot/dev/client3/rdock/2013.1/src/exe/rbdock.cxx#4 $)

>  <Rbt.Library>
libRbt.so (2013.1, Build901 2013/11/27)

>  <Rbt.Parameter_File>
/export/apps/rDock/src/rDock_2013.1_src/data/scripts/dock_solv.prm

>  <Rbt.Receptor>
prm/pocket_docking_6.prm

>  <SCORE>
-14.9303

>  <SCORE.INTER>
-11.945

>  <SCORE.INTER.CONST>
1

>  <SCORE.INTER.POLAR>
0

>  <SCORE.INTER.ROT>
2

>  <SCORE.INTER.SOLV>
14.9502

>  <SCORE.INTER.VDW>
-17.88

>  <SCORE.INTER.norm>
-0.628682

>  <SCORE.INTRA>
-2.99504

>  <SCORE.INTRA.DIHEDRAL>
-5.00111

>  <SCORE.INTRA.DIHEDRAL.0>
6.26853

>  <SCORE.INTRA.POLAR>
0

>  <SCORE.INTRA.POLAR.0>
0

>  <SCORE.INTRA.REPUL>
0

>  <SCORE.INTRA.REPUL.0>
0

>  <SCORE.INTRA.SOLV>
-0.257789

>  <SCORE.INTRA.SOLV.lig_0>
-38.4926

>  <SCORE.INTRA.VDW>
-0.365592

>  <SCORE.INTRA.VDW.0>
-0.59057

>  <SCORE.INTRA.norm>
-0.157634

>  <SCORE.RESTR>
0.00967724

>  <SCORE.RESTR.CAVITY>
0.00967724

>  <SCORE.RESTR.norm>
0.000509329

>  <SCORE.SYSTEM>
0

>  <SCORE.SYSTEM.CONST>
0

>  <SCORE.SYSTEM.DIHEDRAL>
0

>  <SCORE.SYSTEM.SOLV>
0

>  <SCORE.SYSTEM.norm>
0

>  <SCORE.heavy>
19

>  <SCORE.norm>
-0.785807

>  <RMSD>
6.932

$$$$
ligand
 OpenBabel11021811483D
libRbt.so/2013.1/901 2013/11/27
 19 21  0  0  0  0  0  0  0  0999 V2000
   -5.0030   -4.5364    9.0340 C   0  0  0  0  0  0  0  0  0  0  0  0
   -4.0083   -3.7077    9.6537 O   0  0  0  0  0  0  0  0  0  0  0  0
   -6.3956   -4.1817    9.5600 C   0  0  1  0  0  0  0  0  0  0  0  0
   -7.4123   -4.5853    8.6227 O   0  0  0  0  0  0  0  0  0  0  0  0
   -6.6837   -4.8967   10.8683 C   0  0  1  0  0  0  0  0  0  0  0  0
   -6.5743   -4.0014   11.9819 O   0  0  0  0  0  0  0  0  0  0  0  0
   -8.0977   -5.4220   10.7476 C   0  0  0  0  0  0  0  0  0  0  0  0
   -8.4480   -5.3398    9.2690 C   0  0  2  0  0  0  0  0  0  0  0  0
  -11.5069   -8.7883    6.7504 N   0  0  0  0  0  0  0  0  0  0  0  0
  -11.7900   -7.5328    7.1906 C   0  0  1  0  0  0  0  0  0  0  0  0
  -13.0294   -7.0271    6.9854 N   0  0  0  0  0  0  0  0  0  0  0  0
  -10.8599   -6.7766    7.8349 N   0  0  0  0  0  0  0  0  0  0  0  0
   -9.6012   -7.2377    8.0685 C   0  0  2  0  0  0  0  0  0  0  0  0
   -9.2565   -8.5082    7.6439 C   0  0  1  0  0  0  0  0  0  0  0  0
  -10.2801   -9.3223    6.9404 C   0  0  0  0  0  0  0  0  0  0  0  0
  -10.0146  -10.4751    6.5321 O   0  0  0  0  0  0  0  0  0  0  0  0
   -7.9737   -8.7209    7.9851 N   0  0  0  0  0  0  0  0  0  0  0  0
   -7.5310   -7.6076    8.6151 C   0  0  0  0  0  0  0  0  0  0  0  0
   -8.5259   -6.7032    8.6661 N   0  0  1  0  0  0  0  0  0  0  0  0
  1  2  1  0  0  0  0
  3  1  1  6  0  0  0
  3  4  1  0  0  0  0
  3  5  1  0  0  0  0
  5  6  1  1  0  0  0
  5  7  1  0  0  0  0
  7  8  1  0  0  0  0
  8  4  1  6  0  0  0
  8 19  1  0  0  0  0
  9 15  1  0  0  0  0
  9 10  1  0  0  0  0
 10 11  1  1  0  0  0
 10 12  1  0  0  0  0
 13 12  1  1  0  0  0
 13 14  1  0  0  0  0
 13 19  1  0  0  0  0
 14 15  1  6  0  0  0
 14 17  1  0  0  0  0
 15 16  2  0  0  0  0
 17 18  1  0  0  0  0
 19 18  1  6  0  0  0
M  END
>  <CHROM.1>
157.25665958,-120.77749739,-8.50349154,-6.53574571,8.61424916,-0.80186980
0.10403370,-2.61164802

>  <Name>
ligand

>  <RI>
0

>  <Rbt.Current_Directory>
/home/itssahil/PROJECTS/Mol_Feturizer/New_Systems/rnas/3SKI

>  <Rbt.Executable>
rbdock ($Id: //depot/dev/client3/rdock/2013.1/src/exe/rbdock.cxx#4 $)

>  <Rbt.Library>
libRbt.so (2013.1, Build901 2013/11/27)

>  <Rbt.Parameter_File>
/export/apps/rDock/src/rDock_2013.1_src/data/scripts/dock_solv.prm

>  <Rbt.Receptor>
prm/pocket_docking_6.prm

>  <SCORE>
-16.303

>  <SCORE.INTER>
-14.0376

>  <SCORE.INTER.CONST>
1

>  <SCORE.INTER.POLAR>
0

>  <SCORE.INTER.ROT>
2

>  <SCORE.INTER.SOLV>
13.1005

>  <SCORE.INTER.VDW>
-18.6586

>  <SCORE.INTER.norm>
-0.738819

>  <SCORE.INTRA>
-2.26545

>  <SCORE.INTRA.DIHEDRAL>
-3.41186

>  <SCORE.INTRA.DIHEDRAL.0>
6.26853

>  <SCORE.INTRA.POLAR>
0

>  <SCORE.INTRA.POLAR.0>
0

>  <SCORE.INTRA.REPUL>
0

>  <SCORE.INTRA.REPUL.0>
0

>  <SCORE.INTRA.SOLV>
-0.124286

>  <SCORE.INTRA.SOLV.lig_0>
-38.4926

>  <SCORE.INTRA.VDW>
-0.497375

>  <SCORE.INTRA.VDW.0>
-0.59057

>  <SCORE.INTRA.norm>
-0.119234

>  <SCORE.RESTR>
0

>  <SCORE.RESTR.CAVITY>
0

>  <SCORE.RESTR.norm>
0

>  <SCORE.SYSTEM>
0

>  <SCORE.SYSTEM.CONST>
0

>  <SCORE.SYSTEM.DIHEDRAL>
0

>  <SCORE.SYSTEM.SOLV>
0

>  <SCORE.SYSTEM.norm>
0

>  <SCORE.heavy>
19

>  <SCORE.norm>
-0.858054

>  <RMSD>
6.935

$$$$
ligand
 OpenBabel11021811483D
libRbt.so/2013.1/901 2013/11/27
 19 21  0  0  0  0  0  0  0  0999 V2000
   -3.4867    0.8982    5.1252 C   0  0  0  0  0  0  0  0  0  0  0  0
   -4.4284    1.9720    4.9831 O   0  0  0  0  0  0  0  0  0  0  0  0
   -2.5796    1.1408    6.3335 C   0  0  1  0  0  0  0  0  0  0  0  0
   -3.3481    1.1606    7.5517 O   0  0  0  0  0  0  0  0  0  0  0  0
   -1.5481    0.0351    6.4728 C   0  0  1  0  0  0  0  0  0  0  0  0
   -0.2561    0.4751    6.0361 O   0  0  0  0  0  0  0  0  0  0  0  0
   -1.5185   -0.3170    7.9443 C   0  0  0  0  0  0  0  0  0  0  0  0
   -2.7725    0.3004    8.5458 C   0  0  2  0  0  0  0  0  0  0  0  0
   -7.3611   -0.7007   10.8987 N   0  0  0  0  0  0  0  0  0  0  0  0
   -6.7096    0.4813   10.7287 C   0  0  1  0  0  0  0  0  0  0  0  0
   -7.2669    1.6159   11.2144 N   0  0  0  0  0  0  0  0  0  0  0  0
   -5.5113    0.5490   10.0872 N   0  0  0  0  0  0  0  0  0  0  0  0
   -4.9071   -0.5609    9.5826 C   0  0  2  0  0  0  0  0  0  0  0  0
   -5.5230   -1.7910    9.7266 C   0  0  1  0  0  0  0  0  0  0  0  0
   -6.8313   -1.8508   10.4269 C   0  0  0  0  0  0  0  0  0  0  0  0
   -7.4303   -2.9393   10.5769 O   0  0  0  0  0  0  0  0  0  0  0  0
   -4.7372   -2.7139    9.1451 N   0  0  0  0  0  0  0  0  0  0  0  0
   -3.6511   -2.0719    8.6550 C   0  0  0  0  0  0  0  0  0  0  0  0
   -3.7556   -0.7576    8.9235 N   0  0  1  0  0  0  0  0  0  0  0  0
  1  2  1  0  0  0  0
  3  1  1  6  0  0  0
  3  4  1  0  0  0  0
  3  5  1  0  0  0  0
  5  6  1  1  0  0  0
  5  7  1  0  0  0  0
  7  8  1  0  0  0  0
  8  4  1  6  0  0  0
  8 19  1  0  0  0  0
  9 15  1  0  0  0  0
  9 10  1  0  0  0  0
 10 11  1  1  0  0  0
 10 12  1  0  0  0  0
 13 12  1  1  0  0  0
 13 14  1  0  0  0  0
 13 19  1  0  0  0  0
 14 15  1  6  0  0  0
 14 17  1  0  0  0  0
 15 16  2  0  0  0  0
 17 18  1  0  0  0  0
 19 18  1  6  0  0  0
M  END
>  <CHROM.1>
62.86775993,-67.78776359,-4.36548125,-0.22829805,8.50596812,0.59250065,0.56574349
-0.51273655

>  <Name>
ligand

>  <RI>
0

>  <Rbt.Current_Directory>
/home/itssahil/PROJECTS/Mol_Feturizer/New_Systems/rnas/3SKI

>  <Rbt.Executable>
rbdock ($Id: //depot/dev/client3/rdock/2013.1/src/exe/rbdock.cxx#4 $)

>  <Rbt.Library>
libRbt.so (2013.1, Build901 2013/11/27)

>  <Rbt.Parameter_File>
/export/apps/rDock/src/rDock_2013.1_src/data/scripts/dock_solv.prm

>  <Rbt.Receptor>
prm/pocket_docking_8.prm

>  <SCORE>
-11.7477

>  <SCORE.INTER>
-9.35349

>  <SCORE.INTER.CONST>
1

>  <SCORE.INTER.POLAR>
0

>  <SCORE.INTER.ROT>
2

>  <SCORE.INTER.SOLV>
27.5108

>  <SCORE.INTER.VDW>
-20.3393

>  <SCORE.INTER.norm>
-0.492289

>  <SCORE.INTRA>
-2.39417

>  <SCORE.INTRA.DIHEDRAL>
-5.04258

>  <SCORE.INTRA.DIHEDRAL.0>
6.26853

>  <SCORE.INTRA.POLAR>
0

>  <SCORE.INTRA.POLAR.0>
0

>  <SCORE.INTRA.REPUL>
0

>  <SCORE.INTRA.REPUL.0>
0

>  <SCORE.INTRA.SOLV>
-0.2227

>  <SCORE.INTRA.SOLV.lig_0>
-38.4926

>  <SCORE.INTRA.VDW>
0.238474

>  <SCORE.INTRA.VDW.0>
-0.59057

>  <SCORE.INTRA.norm>
-0.126009

>  <SCORE.RESTR>
0

>  <SCORE.RESTR.CAVITY>
0

>  <SCORE.RESTR.norm>
0

>  <SCORE.SYSTEM>
0

>  <SCORE.SYSTEM.CONST>
0

>  <SCORE.SYSTEM.DIHEDRAL>
0

>  <SCORE.SYSTEM.SOLV>
0

>  <SCORE.SYSTEM.norm>
0

>  <SCORE.heavy>
19

>  <SCORE.norm>
-0.618298

>  <RMSD>
6.942

$$$$
ligand
 OpenBabel11021811483D
libRbt.so/2013.1/901 2013/11/27
 19 21  0  0  0  0  0  0  0  0999 V2000
  -11.1236   -4.4306    9.5187 C   0  0  0  0  0  0  0  0  0  0  0  0
  -11.0631   -5.6796   10.2233 O   0  0  0  0  0  0  0  0  0  0  0  0
  -11.0971   -4.6692    8.0073 C   0  0  1  0  0  0  0  0  0  0  0  0
   -9.9354   -5.4340    7.6326 O   0  0  0  0  0  0  0  0  0  0  0  0
  -12.3154   -5.4560    7.5572 C   0  0  1  0  0  0  0  0  0  0  0  0
  -13.2698   -4.6058    6.9094 O   0  0  0  0  0  0  0  0  0  0  0  0
  -11.7971   -6.5015    6.5937 C   0  0  0  0  0  0  0  0  0  0  0  0
  -10.2902   -6.5478    6.8000 C   0  0  2  0  0  0  0  0  0  0  0  0
   -7.5293   -8.6910   10.7214 N   0  0  0  0  0  0  0  0  0  0  0  0
   -7.6833   -7.3838   10.3783 C   0  0  1  0  0  0  0  0  0  0  0  0
   -7.0589   -6.4325   11.1125 N   0  0  0  0  0  0  0  0  0  0  0  0
   -8.4452   -7.0111    9.3139 N   0  0  0  0  0  0  0  0  0  0  0  0
   -9.0917   -7.9266    8.5424 C   0  0  2  0  0  0  0  0  0  0  0  0
   -8.9708   -9.2712    8.8435 C   0  0  1  0  0  0  0  0  0  0  0  0
   -8.1381   -9.6644   10.0086 C   0  0  0  0  0  0  0  0  0  0  0  0
   -8.0028  -10.8677   10.3245 O   0  0  0  0  0  0  0  0  0  0  0  0
   -9.6998   -9.9594    7.9478 N   0  0  0  0  0  0  0  0  0  0  0  0
  -10.2578   -9.0615    7.1024 C   0  0  0  0  0  0  0  0  0  0  0  0
   -9.8850   -7.8209    7.4660 N   0  0  1  0  0  0  0  0  0  0  0  0
  1  2  1  0  0  0  0
  3  1  1  1  0  0  0
  3  4  1  0  0  0  0
  3  5  1  0  0  0  0
  5  6  1  6  0  0  0
  5  7  1  0  0  0  0
  7  8  1  0  0  0  0
  8  4  1  1  0  0  0
  8 19  1  0  0  0  0
  9 15  1  0  0  0  0
  9 10  1  0  0  0  0
 10 11  1  6  0  0  0
 10 12  1  0  0  0  0
 13 12  1  6  0  0  0
 13 14  1  0  0  0  0
 13 19  1  0  0  0  0
 14 15  1  1  0  0  0
 14 17  1  0  0  0  0
 15 16  2  0  0  0  0
 17 18  1  0  0  0  0
 19 18  1  1  0  0  0
M  END
>  <CHROM.1>
-55.90074135,-11.75520127,-9.81528339,-7.17861695,8.68982891,-2.71002039
0.79432117,-2.68917972

>  <Name>
ligand

>  <RI>
0

>  <Rbt.Current_Directory>
/home/itssahil/PROJECTS/Mol_Feturizer/New_Systems/rnas/3SKI

>  <Rbt.Executable>
rbdock ($Id: //depot/dev/client3/rdock/2013.1/src/exe/rbdock.cxx#4 $)

>  <Rbt.Library>
libRbt.so (2013.1, Build901 2013/11/27)

>  <Rbt.Parameter_File>
/export/apps/rDock/src/rDock_2013.1_src/data/scripts/dock_solv.prm

>  <Rbt.Receptor>
prm/pocket_docking_8.prm

>  <SCORE>
-16.7012

>  <SCORE.INTER>
-13.6023

>  <SCORE.INTER.CONST>
1

>  <SCORE.INTER.POLAR>
0

>  <SCORE.INTER.ROT>
2

>  <SCORE.INTER.SOLV>
8.92544

>  <SCORE.INTER.VDW>
-16.9767

>  <SCORE.INTER.norm>
-0.715912

>  <SCORE.INTRA>
-3.09891

>  <SCORE.INTRA.DIHEDRAL>
-4.99265

>  <SCORE.INTRA.DIHEDRAL.0>
6.26853

>  <SCORE.INTRA.POLAR>
0

>  <SCORE.INTRA.POLAR.0>
0

>  <SCORE.INTRA.REPUL>
0

>  <SCORE.INTRA.REPUL.0>
0

>  <SCORE.INTRA.SOLV>
0.596705

>  <SCORE.INTRA.SOLV.lig_0>
-38.4926

>  <SCORE.INTRA.VDW>
-0.90094

>  <SCORE.INTRA.VDW.0>
-0.59057

>  <SCORE.INTRA.norm>
-0.163101

>  <SCORE.RESTR>
0

>  <SCORE.RESTR.CAVITY>
0

>  <SCORE.RESTR.norm>
0

>  <SCORE.SYSTEM>
0

>  <SCORE.SYSTEM.CONST>
0

>  <SCORE.SYSTEM.DIHEDRAL>
0

>  <SCORE.SYSTEM.SOLV>
0

>  <SCORE.SYSTEM.norm>
0

>  <SCORE.heavy>
19

>  <SCORE.norm>
-0.879013

>  <RMSD>
6.954

$$$$
ligand
 OpenBabel11021811483D
libRbt.so/2013.1/901 2013/11/27
 19 21  0  0  0  0  0  0  0  0999 V2000
   -7.6433  -10.1180   10.4973 C   0  0  0  0  0  0  0  0  0  0  0  0
   -8.6587  -10.8467   11.2032 O   0  0  0  0  0  0  0  0  0  0  0  0
   -7.8482   -8.6118   10.6734 C   0  0  1  0  0  0  0  0  0  0  0  0
   -7.8102   -8.2520   12.0677 O   0  0  0  0  0  0  0  0  0  0  0  0
   -6.7500   -7.8263    9.9784 C   0  0  1  0  0  0  0  0  0  0  0  0
   -7.2223   -7.2490    8.7548 O   0  0  0  0  0  0  0  0  0  0  0  0
   -6.3398   -6.7429   10.9519 C   0  0  0  0  0  0  0  0  0  0  0  0
   -6.9178   -7.1521   12.2987 C   0  0  2  0  0  0  0  0  0  0  0  0
   -2.8439  -10.3876   13.0249 N   0  0  0  0  0  0  0  0  0  0  0  0
   -3.6840  -10.2708   11.9615 C   0  0  1  0  0  0  0  0  0  0  0  0
   -3.5057  -11.0794   10.8899 N   0  0  0  0  0  0  0  0  0  0  0  0
   -4.6999   -9.3654   11.9516 N   0  0  0  0  0  0  0  0  0  0  0  0
   -4.9241   -8.5312   13.0030 C   0  0  2  0  0  0  0  0  0  0  0  0
   -4.1017   -8.6054   14.1127 C   0  0  1  0  0  0  0  0  0  0  0  0
   -2.9956   -9.5964   14.1100 C   0  0  0  0  0  0  0  0  0  0  0  0
   -2.2214   -9.6975   15.0879 O   0  0  0  0  0  0  0  0  0  0  0  0
   -4.5226   -7.6851   14.9976 N   0  0  0  0  0  0  0  0  0  0  0  0
   -5.5896   -7.0555   14.4523 C   0  0  0  0  0  0  0  0  0  0  0  0
   -5.8341   -7.5736   13.2349 N   0  0  1  0  0  0  0  0  0  0  0  0
  1  2  1  0  0  0  0
  3  1  1  1  0  0  0
  3  4  1  0  0  0  0
  3  5  1  0  0  0  0
  5  6  1  6  0  0  0
  5  7  1  0  0  0  0
  7  8  1  0  0  0  0
  8  4  1  6  0  0  0
  8 19  1  0  0  0  0
  9 15  1  0  0  0  0
  9 10  1  0  0  0  0
 10 11  1  1  0  0  0
 10 12  1  0  0  0  0
 13 12  1  1  0  0  0
 13 14  1  0  0  0  0
 13 19  1  0  0  0  0
 14 15  1  6  0  0  0
 14 17  1  0  0  0  0
 15 16  2  0  0  0  0
 17 18  1  0  0  0  0
 19 18  1  6  0  0  0
M  END
>  <CHROM.1>
58.82760974,62.71874727,-5.53776493,-8.78689983,12.22783674,-2.83155196,-0.64810619
0.74162438

>  <Name>
ligand

>  <RI>
0

>  <Rbt.Current_Directory>
/home/itssahil/PROJECTS/Mol_Feturizer/New_Systems/rnas/3SKI

>  <Rbt.Executable>
rbdock ($Id: //depot/dev/client3/rdock/2013.1/src/exe/rbdock.cxx#4 $)

>  <Rbt.Library>
libRbt.so (2013.1, Build901 2013/11/27)

>  <Rbt.Parameter_File>
/export/apps/rDock/src/rDock_2013.1_src/data/scripts/dock_solv.prm

>  <Rbt.Receptor>
prm/pocket_docking_6.prm

>  <SCORE>
-15.7634

>  <SCORE.INTER>
-12.2054

>  <SCORE.INTER.CONST>
1

>  <SCORE.INTER.POLAR>
0

>  <SCORE.INTER.ROT>
2

>  <SCORE.INTER.SOLV>
15.0988

>  <SCORE.INTER.VDW>
-18.1032

>  <SCORE.INTER.norm>
-0.64239

>  <SCORE.INTRA>
-3.55802

>  <SCORE.INTRA.DIHEDRAL>
-5.05871

>  <SCORE.INTRA.DIHEDRAL.0>
6.26853

>  <SCORE.INTRA.POLAR>
0

>  <SCORE.INTRA.POLAR.0>
0

>  <SCORE.INTRA.REPUL>
0

>  <SCORE.INTRA.REPUL.0>
0

>  <SCORE.INTRA.SOLV>
0.340227

>  <SCORE.INTRA.SOLV.lig_0>
-38.4926

>  <SCORE.INTRA.VDW>
-1.19878

>  <SCORE.INTRA.VDW.0>
-0.59057

>  <SCORE.INTRA.norm>
-0.187264

>  <SCORE.RESTR>
0

>  <SCORE.RESTR.CAVITY>
0

>  <SCORE.RESTR.norm>
0

>  <SCORE.SYSTEM>
0

>  <SCORE.SYSTEM.CONST>
0

>  <SCORE.SYSTEM.DIHEDRAL>
0

>  <SCORE.SYSTEM.SOLV>
0

>  <SCORE.SYSTEM.norm>
0

>  <SCORE.heavy>
19

>  <SCORE.norm>
-0.829654

>  <RMSD>
7.039

$$$$
ligand
 OpenBabel11021811483D
libRbt.so/2013.1/901 2013/11/27
 19 21  0  0  0  0  0  0  0  0999 V2000
   -6.0582   -4.6607    9.5993 C   0  0  0  0  0  0  0  0  0  0  0  0
   -5.8128   -5.9564    9.0325 O   0  0  0  0  0  0  0  0  0  0  0  0
   -7.2564   -4.7128   10.5498 C   0  0  1  0  0  0  0  0  0  0  0  0
   -8.4351   -5.1693    9.8590 O   0  0  0  0  0  0  0  0  0  0  0  0
   -7.0048   -5.6799   11.6931 C   0  0  1  0  0  0  0  0  0  0  0  0
   -6.7002   -4.9793   12.9056 O   0  0  0  0  0  0  0  0  0  0  0  0
   -8.2825   -6.4758   11.8477 C   0  0  0  0  0  0  0  0  0  0  0  0
   -9.0833   -6.2293   10.5774 C   0  0  2  0  0  0  0  0  0  0  0  0
  -11.5491   -8.6939    6.6482 N   0  0  0  0  0  0  0  0  0  0  0  0
  -11.8066   -7.4844    7.2149 C   0  0  1  0  0  0  0  0  0  0  0  0
  -12.8416   -6.7459    6.7486 N   0  0  0  0  0  0  0  0  0  0  0  0
  -11.0525   -7.0024    8.2401 N   0  0  0  0  0  0  0  0  0  0  0  0
  -10.0033   -7.7048    8.7472 C   0  0  2  0  0  0  0  0  0  0  0  0
   -9.6948   -8.9419    8.2108 C   0  0  1  0  0  0  0  0  0  0  0  0
  -10.5244   -9.4554    7.0911 C   0  0  0  0  0  0  0  0  0  0  0  0
  -10.2813  -10.5663    6.5687 O   0  0  0  0  0  0  0  0  0  0  0  0
   -8.6280   -9.4219    8.8731 N   0  0  0  0  0  0  0  0  0  0  0  0
   -8.2836   -8.5049    9.8073 C   0  0  0  0  0  0  0  0  0  0  0  0
   -9.1245   -7.4574    9.7299 N   0  0  1  0  0  0  0  0  0  0  0  0
  1  2  1  0  0  0  0
  3  1  1  6  0  0  0
  3  4  1  0  0  0  0
  3  5  1  0  0  0  0
  5  6  1  1  0  0  0
  5  7  1  0  0  0  0
  7  8  1  0  0  0  0
  8  4  1  6  0  0  0
  8 19  1  0  0  0  0
  9 15  1  0  0  0  0
  9 10  1  0  0  0  0
 10 11  1  1  0  0  0
 10 12  1  0  0  0  0
 13 12  1  1  0  0  0
 13 14  1  0  0  0  0
 13 19  1  0  0  0  0
 14 15  1  6  0  0  0
 14 17  1  0  0  0  0
 15 16  2  0  0  0  0
 17 18  1  0  0  0  0
 19 18  1  6  0  0  0
M  END
>  <CHROM.1>
-58.45035400,-80.08628489,-9.01285048,-7.10445161,9.18420954,0.78569492,-0.49368864
0.42377753

>  <Name>
ligand

>  <RI>
0

>  <Rbt.Current_Directory>
/home/itssahil/PROJECTS/Mol_Feturizer/New_Systems/rnas/3SKI

>  <Rbt.Executable>
rbdock ($Id: //depot/dev/client3/rdock/2013.1/src/exe/rbdock.cxx#4 $)

>  <Rbt.Library>
libRbt.so (2013.1, Build901 2013/11/27)

>  <Rbt.Parameter_File>
/export/apps/rDock/src/rDock_2013.1_src/data/scripts/dock_solv.prm

>  <Rbt.Receptor>
prm/pocket_docking_6.prm

>  <SCORE>
-15.5096

>  <SCORE.INTER>
-13.0262

>  <SCORE.INTER.CONST>
1

>  <SCORE.INTER.POLAR>
0

>  <SCORE.INTER.ROT>
2

>  <SCORE.INTER.SOLV>
11.2734

>  <SCORE.INTER.VDW>
-17.3753

>  <SCORE.INTER.norm>
-0.68559

>  <SCORE.INTRA>
-2.48341

>  <SCORE.INTRA.DIHEDRAL>
-5.07272

>  <SCORE.INTRA.DIHEDRAL.0>
6.26853

>  <SCORE.INTRA.POLAR>
0

>  <SCORE.INTRA.POLAR.0>
0

>  <SCORE.INTRA.REPUL>
0

>  <SCORE.INTRA.REPUL.0>
0

>  <SCORE.INTRA.SOLV>
0.245325

>  <SCORE.INTRA.SOLV.lig_0>
-38.4926

>  <SCORE.INTRA.VDW>
-0.0697081

>  <SCORE.INTRA.VDW.0>
-0.59057

>  <SCORE.INTRA.norm>
-0.130706

>  <SCORE.RESTR>
0

>  <SCORE.RESTR.CAVITY>
0

>  <SCORE.RESTR.norm>
0

>  <SCORE.SYSTEM>
0

>  <SCORE.SYSTEM.CONST>
0

>  <SCORE.SYSTEM.DIHEDRAL>
0

>  <SCORE.SYSTEM.SOLV>
0

>  <SCORE.SYSTEM.norm>
0

>  <SCORE.heavy>
19

>  <SCORE.norm>
-0.816295

>  <RMSD>
7.043

$$$$
ligand
 OpenBabel11021811483D
libRbt.so/2013.1/901 2013/11/27
 19 21  0  0  0  0  0  0  0  0999 V2000
   -6.1360   -9.4578   11.0081 C   0  0  0  0  0  0  0  0  0  0  0  0
   -5.8335   -9.5075   12.4104 O   0  0  0  0  0  0  0  0  0  0  0  0
   -6.3600   -8.0112   10.5620 C   0  0  1  0  0  0  0  0  0  0  0  0
   -6.6135   -7.9484    9.1454 O   0  0  0  0  0  0  0  0  0  0  0  0
   -7.5648   -7.4049   11.2597 C   0  0  1  0  0  0  0  0  0  0  0  0
   -7.1616   -6.5031   12.2979 O   0  0  0  0  0  0  0  0  0  0  0  0
   -8.3339   -6.6667   10.1857 C   0  0  0  0  0  0  0  0  0  0  0  0
   -7.7855   -7.1712    8.8589 C   0  0  2  0  0  0  0  0  0  0  0  0
  -12.5841   -7.3283    6.7277 N   0  0  0  0  0  0  0  0  0  0  0  0
  -11.9353   -6.2994    7.3366 C   0  0  1  0  0  0  0  0  0  0  0  0
  -12.5586   -5.1024    7.4488 N   0  0  0  0  0  0  0  0  0  0  0  0
  -10.6788   -6.4461    7.8383 N   0  0  0  0  0  0  0  0  0  0  0  0
  -10.0090   -7.6275    7.7539 C   0  0  2  0  0  0  0  0  0  0  0  0
  -10.6196   -8.7094    7.1457 C   0  0  1  0  0  0  0  0  0  0  0  0
  -11.9901   -8.5354    6.6007 C   0  0  0  0  0  0  0  0  0  0  0  0
  -12.5820   -9.4828    6.0365 O   0  0  0  0  0  0  0  0  0  0  0  0
   -9.7591   -9.7416    7.1847 N   0  0  0  0  0  0  0  0  0  0  0  0
   -8.6382   -9.3124    7.8103 C   0  0  0  0  0  0  0  0  0  0  0  0
   -8.7923   -8.0218    8.1581 N   0  0  1  0  0  0  0  0  0  0  0  0
  1  2  1  0  0  0  0
  3  1  1  1  0  0  0
  3  4  1  0  0  0  0
  3  5  1  0  0  0  0
  5  6  1  1  0  0  0
  5  7  1  0  0  0  0
  7  8  1  0  0  0  0
  8  4  1  1  0  0  0
  8 19  1  0  0  0  0
  9 15  1  0  0  0  0
  9 10  1  0  0  0  0
 10 11  1  1  0  0  0
 10 12  1  0  0  0  0
 13 12  1  1  0  0  0
 13 14  1  0  0  0  0
 13 19  1  0  0  0  0
 14 15  1  6  0  0  0
 14 17  1  0  0  0  0
 15 16  2  0  0  0  0
 17 18  1  0  0  0  0
 19 18  1  6  0  0  0
M  END
>  <CHROM.1>
177.79607587,179.22080367,-9.19274761,-7.86668926,8.79933734,-0.24296918
0.65324265,-2.63647600

>  <Name>
ligand

>  <RI>
0

>  <Rbt.Current_Directory>
/home/itssahil/PROJECTS/Mol_Feturizer/New_Systems/rnas/3SKI

>  <Rbt.Executable>
rbdock ($Id: //depot/dev/client3/rdock/2013.1/src/exe/rbdock.cxx#4 $)

>  <Rbt.Library>
libRbt.so (2013.1, Build901 2013/11/27)

>  <Rbt.Parameter_File>
/export/apps/rDock/src/rDock_2013.1_src/data/scripts/dock_solv.prm

>  <Rbt.Receptor>
prm/pocket_docking_6.prm

>  <SCORE>
-14.3816

>  <SCORE.INTER>
-11.5556

>  <SCORE.INTER.CONST>
1

>  <SCORE.INTER.POLAR>
0

>  <SCORE.INTER.ROT>
2

>  <SCORE.INTER.SOLV>
7.77373

>  <SCORE.INTER.VDW>
-15.2283

>  <SCORE.INTER.norm>
-0.608189

>  <SCORE.INTRA>
-2.82597

>  <SCORE.INTRA.DIHEDRAL>
-5.04991

>  <SCORE.INTRA.DIHEDRAL.0>
6.26853

>  <SCORE.INTRA.POLAR>
0

>  <SCORE.INTRA.POLAR.0>
0

>  <SCORE.INTRA.REPUL>
0

>  <SCORE.INTRA.REPUL.0>
0

>  <SCORE.INTRA.SOLV>
-0.0273842

>  <SCORE.INTRA.SOLV.lig_0>
-38.4926

>  <SCORE.INTRA.VDW>
-0.28732

>  <SCORE.INTRA.VDW.0>
-0.59057

>  <SCORE.INTRA.norm>
-0.148735

>  <SCORE.RESTR>
0

>  <SCORE.RESTR.CAVITY>
0

>  <SCORE.RESTR.norm>
0

>  <SCORE.SYSTEM>
0

>  <SCORE.SYSTEM.CONST>
0

>  <SCORE.SYSTEM.DIHEDRAL>
0

>  <SCORE.SYSTEM.SOLV>
0

>  <SCORE.SYSTEM.norm>
0

>  <SCORE.heavy>
19

>  <SCORE.norm>
-0.756924

>  <RMSD>
7.058

$$$$
ligand
 OpenBabel11021811483D
libRbt.so/2013.1/901 2013/11/27
 19 21  0  0  0  0  0  0  0  0999 V2000
   -6.1988   -9.5160   11.0721 C   0  0  0  0  0  0  0  0  0  0  0  0
   -5.0013  -10.0660   10.5032 O   0  0  0  0  0  0  0  0  0  0  0  0
   -6.3867   -8.0661   10.6200 C   0  0  1  0  0  0  0  0  0  0  0  0
   -6.6065   -8.0002    9.1980 O   0  0  0  0  0  0  0  0  0  0  0  0
   -7.5962   -7.4377   11.2895 C   0  0  1  0  0  0  0  0  0  0  0  0
   -7.2009   -6.5422   12.3362 O   0  0  0  0  0  0  0  0  0  0  0  0
   -8.3272   -6.6870   10.1977 C   0  0  0  0  0  0  0  0  0  0  0  0
   -7.7576   -7.2026    8.8842 C   0  0  2  0  0  0  0  0  0  0  0  0
  -12.5608   -7.3143    6.7605 N   0  0  0  0  0  0  0  0  0  0  0  0
  -11.9142   -6.3014    7.3979 C   0  0  1  0  0  0  0  0  0  0  0  0
  -12.5416   -5.1106    7.5469 N   0  0  0  0  0  0  0  0  0  0  0  0
  -10.6559   -6.4583    7.8922 N   0  0  0  0  0  0  0  0  0  0  0  0
   -9.9821   -7.6342    7.7714 C   0  0  2  0  0  0  0  0  0  0  0  0
  -10.5904   -8.6999    7.1330 C   0  0  1  0  0  0  0  0  0  0  0  0
  -11.9628   -8.5150    6.5965 C   0  0  0  0  0  0  0  0  0  0  0  0
  -12.5526   -9.4475    6.0060 O   0  0  0  0  0  0  0  0  0  0  0  0
   -9.7261   -9.7296    7.1395 N   0  0  0  0  0  0  0  0  0  0  0  0
   -8.6051   -9.3150    7.7749 C   0  0  0  0  0  0  0  0  0  0  0  0
   -8.7631   -8.0358    8.1609 N   0  0  1  0  0  0  0  0  0  0  0  0
  1  2  1  0  0  0  0
  3  1  1  1  0  0  0
  3  4  1  0  0  0  0
  3  5  1  0  0  0  0
  5  6  1  1  0  0  0
  5  7  1  0  0  0  0
  7  8  1  0  0  0  0
  8  4  1  1  0  0  0
  8 19  1  0  0  0  0
  9 15  1  0  0  0  0
  9 10  1  0  0  0  0
 10 11  1  1  0  0  0
 10 12  1  0  0  0  0
 13 12  1  1  0  0  0
 13 14  1  0  0  0  0
 13 19  1  0  0  0  0
 14 15  1  6  0  0  0
 14 17  1  0  0  0  0
 15 16  2  0  0  0  0
 17 18  1  0  0  0  0
 19 18  1  6  0  0  0
M  END
>  <CHROM.1>
65.05931638,176.64578882,-9.13342996,-7.91404501,8.70479386,-0.23127663,0.58623984
-2.55543744

>  <Name>
ligand

>  <RI>
0

>  <Rbt.Current_Directory>
/home/itssahil/PROJECTS/Mol_Feturizer/New_Systems/rnas/3SKI

>  <Rbt.Executable>
rbdock ($Id: //depot/dev/client3/rdock/2013.1/src/exe/rbdock.cxx#4 $)

>  <Rbt.Library>
libRbt.so (2013.1, Build901 2013/11/27)

>  <Rbt.Parameter_File>
/export/apps/rDock/src/rDock_2013.1_src/data/scripts/dock_solv.prm

>  <Rbt.Receptor>
prm/pocket_docking_6.prm

>  <SCORE>
-14.6281

>  <SCORE.INTER>
-11.6801

>  <SCORE.INTER.CONST>
1

>  <SCORE.INTER.POLAR>
0

>  <SCORE.INTER.ROT>
2

>  <SCORE.INTER.SOLV>
8.50328

>  <SCORE.INTER.VDW>
-15.5545

>  <SCORE.INTER.norm>
-0.614742

>  <SCORE.INTRA>
-2.948

>  <SCORE.INTRA.DIHEDRAL>
-4.97538

>  <SCORE.INTRA.DIHEDRAL.0>
6.26853

>  <SCORE.INTRA.POLAR>
0

>  <SCORE.INTRA.POLAR.0>
0

>  <SCORE.INTRA.REPUL>
0

>  <SCORE.INTRA.REPUL.0>
0

>  <SCORE.INTRA.SOLV>
-0.26207

>  <SCORE.INTRA.SOLV.lig_0>
-38.4926

>  <SCORE.INTRA.VDW>
-0.32927

>  <SCORE.INTRA.VDW.0>
-0.59057

>  <SCORE.INTRA.norm>
-0.155158

>  <SCORE.RESTR>
0

>  <SCORE.RESTR.CAVITY>
0

>  <SCORE.RESTR.norm>
0

>  <SCORE.SYSTEM>
0

>  <SCORE.SYSTEM.CONST>
0

>  <SCORE.SYSTEM.DIHEDRAL>
0

>  <SCORE.SYSTEM.SOLV>
0

>  <SCORE.SYSTEM.norm>
0

>  <SCORE.heavy>
19

>  <SCORE.norm>
-0.7699

>  <RMSD>
7.077

$$$$
ligand
 OpenBabel11021811483D
libRbt.so/2013.1/901 2013/11/27
 19 21  0  0  0  0  0  0  0  0999 V2000
   -8.1183   -8.4885    8.0650 C   0  0  0  0  0  0  0  0  0  0  0  0
   -9.1200   -9.4734    7.7706 O   0  0  0  0  0  0  0  0  0  0  0  0
   -8.2976   -7.9545    9.4879 C   0  0  1  0  0  0  0  0  0  0  0  0
   -7.9763   -8.9702   10.4575 O   0  0  0  0  0  0  0  0  0  0  0  0
   -7.3745   -6.7775    9.7498 C   0  0  1  0  0  0  0  0  0  0  0  0
   -8.0950   -5.5391    9.7220 O   0  0  0  0  0  0  0  0  0  0  0  0
   -6.7831   -7.0158   11.1222 C   0  0  0  0  0  0  0  0  0  0  0  0
   -7.0666   -8.4744   11.4506 C   0  0  2  0  0  0  0  0  0  0  0  0
   -2.6614   -9.7016   14.0356 N   0  0  0  0  0  0  0  0  0  0  0  0
   -3.6679   -8.8554   14.3836 C   0  0  1  0  0  0  0  0  0  0  0  0
   -3.5921   -8.1915   15.5615 N   0  0  0  0  0  0  0  0  0  0  0  0
   -4.7448   -8.6577   13.5753 N   0  0  0  0  0  0  0  0  0  0  0  0
   -4.8689   -9.2978   12.3810 C   0  0  2  0  0  0  0  0  0  0  0  0
   -3.8753  -10.1700   11.9744 C   0  0  1  0  0  0  0  0  0  0  0  0
   -2.7065  -10.3782   12.8667 C   0  0  0  0  0  0  0  0  0  0  0  0
   -1.7849  -11.1615   12.5456 O   0  0  0  0  0  0  0  0  0  0  0  0
   -4.2330  -10.6710   10.7793 N   0  0  0  0  0  0  0  0  0  0  0  0
   -5.4220  -10.1167   10.4459 C   0  0  0  0  0  0  0  0  0  0  0  0
   -5.8088   -9.2779   11.4243 N   0  0  1  0  0  0  0  0  0  0  0  0
  1  2  1  0  0  0  0
  3  1  1  6  0  0  0
  3  4  1  0  0  0  0
  3  5  1  0  0  0  0
  5  6  1  1  0  0  0
  5  7  1  0  0  0  0
  7  8  1  0  0  0  0
  8  4  1  6  0  0  0
  8 19  1  0  0  0  0
  9 15  1  0  0  0  0
  9 10  1  0  0  0  0
 10 11  1  6  0  0  0
 10 12  1  0  0  0  0
 13 12  1  6  0  0  0
 13 14  1  0  0  0  0
 13 19  1  0  0  0  0
 14 15  1  1  0  0  0
 14 17  1  0  0  0  0
 15 16  2  0  0  0  0
 17 18  1  0  0  0  0
 19 18  1  1  0  0  0
M  END
>  <CHROM.1>
69.06376242,-164.57064817,-5.65884386,-8.88045103,11.39975197,-2.89055964
-0.71593458,0.77302003

>  <Name>
ligand

>  <RI>
0

>  <Rbt.Current_Directory>
/home/itssahil/PROJECTS/Mol_Feturizer/New_Systems/rnas/3SKI

>  <Rbt.Executable>
rbdock ($Id: //depot/dev/client3/rdock/2013.1/src/exe/rbdock.cxx#4 $)

>  <Rbt.Library>
libRbt.so (2013.1, Build901 2013/11/27)

>  <Rbt.Parameter_File>
/export/apps/rDock/src/rDock_2013.1_src/data/scripts/dock_solv.prm

>  <Rbt.Receptor>
prm/pocket_docking_7.prm

>  <SCORE>
-15.1654

>  <SCORE.INTER>
-12.1559

>  <SCORE.INTER.CONST>
1

>  <SCORE.INTER.POLAR>
0

>  <SCORE.INTER.ROT>
2

>  <SCORE.INTER.SOLV>
10.3209

>  <SCORE.INTER.VDW>
-16.4776

>  <SCORE.INTER.norm>
-0.639783

>  <SCORE.INTRA>
-3.00949

>  <SCORE.INTRA.DIHEDRAL>
-4.75778

>  <SCORE.INTRA.DIHEDRAL.0>
6.26853

>  <SCORE.INTRA.POLAR>
0

>  <SCORE.INTRA.POLAR.0>
0

>  <SCORE.INTRA.REPUL>
0

>  <SCORE.INTRA.REPUL.0>
0

>  <SCORE.INTRA.SOLV>
-0.270258

>  <SCORE.INTRA.SOLV.lig_0>
-38.4926

>  <SCORE.INTRA.VDW>
-0.495465

>  <SCORE.INTRA.VDW.0>
-0.59057

>  <SCORE.INTRA.norm>
-0.158394

>  <SCORE.RESTR>
0

>  <SCORE.RESTR.CAVITY>
0

>  <SCORE.RESTR.norm>
0

>  <SCORE.SYSTEM>
0

>  <SCORE.SYSTEM.CONST>
0

>  <SCORE.SYSTEM.DIHEDRAL>
0

>  <SCORE.SYSTEM.SOLV>
0

>  <SCORE.SYSTEM.norm>
0

>  <SCORE.heavy>
19

>  <SCORE.norm>
-0.798177

>  <RMSD>
7.078

$$$$
ligand
 OpenBabel11021811483D
libRbt.so/2013.1/901 2013/11/27
 19 21  0  0  0  0  0  0  0  0999 V2000
   -8.5103   -8.9137    8.4963 C   0  0  0  0  0  0  0  0  0  0  0  0
   -9.0671   -7.9629    7.5765 O   0  0  0  0  0  0  0  0  0  0  0  0
   -8.6390   -8.4037    9.9334 C   0  0  1  0  0  0  0  0  0  0  0  0
   -8.1543   -9.3866   10.8682 O   0  0  0  0  0  0  0  0  0  0  0  0
   -7.8167   -7.1442   10.1416 C   0  0  1  0  0  0  0  0  0  0  0  0
   -8.6525   -5.9807   10.1763 O   0  0  0  0  0  0  0  0  0  0  0  0
   -7.1097   -7.3286   11.4668 C   0  0  0  0  0  0  0  0  0  0  0  0
   -7.2283   -8.8086   11.8000 C   0  0  2  0  0  0  0  0  0  0  0  0
   -2.5861   -9.6831   14.0974 N   0  0  0  0  0  0  0  0  0  0  0  0
   -3.6457   -8.9471   14.5284 C   0  0  1  0  0  0  0  0  0  0  0  0
   -3.5647   -8.3128   15.7221 N   0  0  0  0  0  0  0  0  0  0  0  0
   -4.7811   -8.8301   13.7872 N   0  0  0  0  0  0  0  0  0  0  0  0
   -4.9133   -9.4448   12.5805 C   0  0  2  0  0  0  0  0  0  0  0  0
   -3.8675  -10.2062   12.0910 C   0  0  1  0  0  0  0  0  0  0  0  0
   -2.6349  -10.3273   12.9105 C   0  0  0  0  0  0  0  0  0  0  0  0
   -1.6639  -11.0096   12.5132 O   0  0  0  0  0  0  0  0  0  0  0  0
   -4.2448  -10.7048   10.9009 N   0  0  0  0  0  0  0  0  0  0  0  0
   -5.4978  -10.2572   10.6519 C   0  0  0  0  0  0  0  0  0  0  0  0
   -5.9044   -9.4874   11.6778 N   0  0  1  0  0  0  0  0  0  0  0  0
  1  2  1  0  0  0  0
  3  1  1  6  0  0  0
  3  4  1  0  0  0  0
  3  5  1  0  0  0  0
  5  6  1  1  0  0  0
  5  7  1  0  0  0  0
  7  8  1  0  0  0  0
  8  4  1  6  0  0  0
  8 19  1  0  0  0  0
  9 15  1  0  0  0  0
  9 10  1  0  0  0  0
 10 11  1  6  0  0  0
 10 12  1  0  0  0  0
 13 12  1  6  0  0  0
 13 14  1  0  0  0  0
 13 19  1  0  0  0  0
 14 15  1  1  0  0  0
 14 17  1  0  0  0  0
 15 16  2  0  0  0  0
 17 18  1  0  0  0  0
 19 18  1  1  0  0  0
M  END
>  <CHROM.1>
176.60770238,-162.92755905,-5.78203109,-8.97269440,11.61575099,-2.80371096
-0.62998388,0.96581149

>  <Name>
ligand

>  <RI>
0

>  <Rbt.Current_Directory>
/home/itssahil/PROJECTS/Mol_Feturizer/New_Systems/rnas/3SKI

>  <Rbt.Executable>
rbdock ($Id: //depot/dev/client3/rdock/2013.1/src/exe/rbdock.cxx#4 $)

>  <Rbt.Library>
libRbt.so (2013.1, Build901 2013/11/27)

>  <Rbt.Parameter_File>
/export/apps/rDock/src/rDock_2013.1_src/data/scripts/dock_solv.prm

>  <Rbt.Receptor>
prm/pocket_docking_7.prm

>  <SCORE>
-15.1862

>  <SCORE.INTER>
-12.2441

>  <SCORE.INTER.CONST>
1

>  <SCORE.INTER.POLAR>
0

>  <SCORE.INTER.ROT>
2

>  <SCORE.INTER.SOLV>
9.35157

>  <SCORE.INTER.VDW>
-16.2132

>  <SCORE.INTER.norm>
-0.644424

>  <SCORE.INTRA>
-2.94216

>  <SCORE.INTRA.DIHEDRAL>
-5.01098

>  <SCORE.INTRA.DIHEDRAL.0>
6.26853

>  <SCORE.INTRA.POLAR>
0

>  <SCORE.INTRA.POLAR.0>
0

>  <SCORE.INTRA.REPUL>
0

>  <SCORE.INTRA.REPUL.0>
0

>  <SCORE.INTRA.SOLV>
-0.0276599

>  <SCORE.INTRA.SOLV.lig_0>
-38.4926

>  <SCORE.INTRA.VDW>
-0.422838

>  <SCORE.INTRA.VDW.0>
-0.59057

>  <SCORE.INTRA.norm>
-0.15485

>  <SCORE.RESTR>
0

>  <SCORE.RESTR.CAVITY>
0

>  <SCORE.RESTR.norm>
0

>  <SCORE.SYSTEM>
0

>  <SCORE.SYSTEM.CONST>
0

>  <SCORE.SYSTEM.DIHEDRAL>
0

>  <SCORE.SYSTEM.SOLV>
0

>  <SCORE.SYSTEM.norm>
0

>  <SCORE.heavy>
19

>  <SCORE.norm>
-0.799274

>  <RMSD>
7.145

$$$$
ligand
 OpenBabel11021811483D
libRbt.so/2013.1/901 2013/11/27
 19 21  0  0  0  0  0  0  0  0999 V2000
   -8.5129   -9.0116    8.4172 C   0  0  0  0  0  0  0  0  0  0  0  0
   -9.0318   -8.2633    7.3077 O   0  0  0  0  0  0  0  0  0  0  0  0
   -8.3968   -8.1190    9.6547 C   0  0  1  0  0  0  0  0  0  0  0  0
   -7.9614   -8.8836   10.7953 O   0  0  0  0  0  0  0  0  0  0  0  0
   -7.3754   -7.0162    9.4388 C   0  0  1  0  0  0  0  0  0  0  0  0
   -8.0166   -5.7575    9.1978 O   0  0  0  0  0  0  0  0  0  0  0  0
   -6.5565   -6.9590   10.7100 C   0  0  0  0  0  0  0  0  0  0  0  0
   -6.8578   -8.2494   11.4582 C   0  0  2  0  0  0  0  0  0  0  0  0
   -2.6635   -9.9342   14.1345 N   0  0  0  0  0  0  0  0  0  0  0  0
   -3.6035   -9.0134   14.4789 C   0  0  1  0  0  0  0  0  0  0  0  0
   -3.5091   -8.3936   15.6793 N   0  0  0  0  0  0  0  0  0  0  0  0
   -4.6319   -8.6982   13.6452 N   0  0  0  0  0  0  0  0  0  0  0  0
   -4.7718   -9.2896   12.4277 C   0  0  2  0  0  0  0  0  0  0  0  0
   -3.8449  -10.2334   12.0236 C   0  0  1  0  0  0  0  0  0  0  0  0
   -2.7287  -10.5696   12.9436 C   0  0  0  0  0  0  0  0  0  0  0  0
   -1.8685  -11.4211   12.6256 O   0  0  0  0  0  0  0  0  0  0  0  0
   -4.2052  -10.6658   10.8027 N   0  0  0  0  0  0  0  0  0  0  0  0
   -5.3300   -9.9996   10.4515 C   0  0  0  0  0  0  0  0  0  0  0  0
   -5.6744   -9.1592   11.4441 N   0  0  1  0  0  0  0  0  0  0  0  0
  1  2  1  0  0  0  0
  3  1  1  6  0  0  0
  3  4  1  0  0  0  0
  3  5  1  0  0  0  0
  5  6  1  1  0  0  0
  5  7  1  0  0  0  0
  7  8  1  0  0  0  0
  8  4  1  6  0  0  0
  8 19  1  0  0  0  0
  9 15  1  0  0  0  0
  9 10  1  0  0  0  0
 10 11  1  6  0  0  0
 10 12  1  0  0  0  0
 13 12  1  6  0  0  0
 13 14  1  0  0  0  0
 13 19  1  0  0  0  0
 14 15  1  1  0  0  0
 14 17  1  0  0  0  0
 15 16  2  0  0  0  0
 17 18  1  0  0  0  0
 19 18  1  1  0  0  0
M  END
>  <CHROM.1>
176.16169409,-143.85331322,-5.62533545,-8.89629095,11.38511570,-2.85216832
-0.74362854,0.85226752

>  <Name>
ligand

>  <RI>
0

>  <Rbt.Current_Directory>
/home/itssahil/PROJECTS/Mol_Feturizer/New_Systems/rnas/3SKI

>  <Rbt.Executable>
rbdock ($Id: //depot/dev/client3/rdock/2013.1/src/exe/rbdock.cxx#4 $)

>  <Rbt.Library>
libRbt.so (2013.1, Build901 2013/11/27)

>  <Rbt.Parameter_File>
/export/apps/rDock/src/rDock_2013.1_src/data/scripts/dock_solv.prm

>  <Rbt.Receptor>
prm/blind_docking_80.prm

>  <SCORE>
-14.992

>  <SCORE.INTER>
-11.9513

>  <SCORE.INTER.CONST>
1

>  <SCORE.INTER.POLAR>
0

>  <SCORE.INTER.ROT>
2

>  <SCORE.INTER.SOLV>
9.69706

>  <SCORE.INTER.VDW>
-16.1332

>  <SCORE.INTER.norm>
-0.629017

>  <SCORE.INTRA>
-3.04063

>  <SCORE.INTRA.DIHEDRAL>
-4.99612

>  <SCORE.INTRA.DIHEDRAL.0>
6.26853

>  <SCORE.INTRA.POLAR>
0

>  <SCORE.INTRA.POLAR.0>
0

>  <SCORE.INTRA.REPUL>
0

>  <SCORE.INTRA.REPUL.0>
0

>  <SCORE.INTRA.SOLV>
-0.0263216

>  <SCORE.INTRA.SOLV.lig_0>
-38.4926

>  <SCORE.INTRA.VDW>
-0.529405

>  <SCORE.INTRA.VDW.0>
-0.59057

>  <SCORE.INTRA.norm>
-0.160033

>  <SCORE.RESTR>
0

>  <SCORE.RESTR.CAVITY>
0

>  <SCORE.RESTR.norm>
0

>  <SCORE.SYSTEM>
0

>  <SCORE.SYSTEM.CONST>
0

>  <SCORE.SYSTEM.DIHEDRAL>
0

>  <SCORE.SYSTEM.SOLV>
0

>  <SCORE.SYSTEM.norm>
0

>  <SCORE.heavy>
19

>  <SCORE.norm>
-0.78905

>  <RMSD>
7.151

$$$$
ligand
 OpenBabel11021811483D
libRbt.so/2013.1/901 2013/11/27
 19 21  0  0  0  0  0  0  0  0999 V2000
   -6.8682   -4.1900    9.2504 C   0  0  0  0  0  0  0  0  0  0  0  0
   -5.7090   -3.5077    9.7515 O   0  0  0  0  0  0  0  0  0  0  0  0
   -7.8278   -4.5223   10.3951 C   0  0  1  0  0  0  0  0  0  0  0  0
   -9.0065   -5.1833    9.8963 O   0  0  0  0  0  0  0  0  0  0  0  0
   -7.1785   -5.4608   11.3970 C   0  0  1  0  0  0  0  0  0  0  0  0
   -6.7876   -4.7597   12.5842 O   0  0  0  0  0  0  0  0  0  0  0  0
   -8.2240   -6.5063   11.7190 C   0  0  0  0  0  0  0  0  0  0  0  0
   -9.2866   -6.3801   10.6371 C   0  0  2  0  0  0  0  0  0  0  0  0
  -11.6911   -8.8481    6.6723 N   0  0  0  0  0  0  0  0  0  0  0  0
  -12.0343   -7.7027    7.3206 C   0  0  1  0  0  0  0  0  0  0  0  0
  -13.1548   -7.0427    6.9426 N   0  0  0  0  0  0  0  0  0  0  0  0
  -11.2817   -7.2081    8.3409 N   0  0  0  0  0  0  0  0  0  0  0  0
  -10.1485   -7.8331    8.7612 C   0  0  2  0  0  0  0  0  0  0  0  0
   -9.7507   -9.0028    8.1392 C   0  0  1  0  0  0  0  0  0  0  0  0
  -10.5798   -9.5308    7.0259 C   0  0  0  0  0  0  0  0  0  0  0  0
  -10.2581  -10.5821    6.4283 O   0  0  0  0  0  0  0  0  0  0  0  0
   -8.6136   -9.4138    8.7270 N   0  0  0  0  0  0  0  0  0  0  0  0
   -8.3136   -8.5214    9.6995 C   0  0  0  0  0  0  0  0  0  0  0  0
   -9.2519   -7.5573    9.7199 N   0  0  1  0  0  0  0  0  0  0  0  0
  1  2  1  0  0  0  0
  3  1  1  6  0  0  0
  3  4  1  0  0  0  0
  3  5  1  0  0  0  0
  5  6  1  1  0  0  0
  5  7  1  0  0  0  0
  7  8  1  0  0  0  0
  8  4  1  6  0  0  0
  8 19  1  0  0  0  0
  9 15  1  0  0  0  0
  9 10  1  0  0  0  0
 10 11  1  1  0  0  0
 10 12  1  0  0  0  0
 13 12  1  1  0  0  0
 13 14  1  0  0  0  0
 13 19  1  0  0  0  0
 14 15  1  6  0  0  0
 14 17  1  0  0  0  0
 15 16  2  0  0  0  0
 17 18  1  0  0  0  0
 19 18  1  6  0  0  0
M  END
>  <CHROM.1>
178.83201872,-69.79054721,-9.19946883,-6.96939683,9.16009033,0.76673585,-0.60599880
0.19201119

>  <Name>
ligand

>  <RI>
0

>  <Rbt.Current_Directory>
/home/itssahil/PROJECTS/Mol_Feturizer/New_Systems/rnas/3SKI

>  <Rbt.Executable>
rbdock ($Id: //depot/dev/client3/rdock/2013.1/src/exe/rbdock.cxx#4 $)

>  <Rbt.Library>
libRbt.so (2013.1, Build901 2013/11/27)

>  <Rbt.Parameter_File>
/export/apps/rDock/src/rDock_2013.1_src/data/scripts/dock_solv.prm

>  <Rbt.Receptor>
prm/pocket_docking_7.prm

>  <SCORE>
-15.7325

>  <SCORE.INTER>
-13.4789

>  <SCORE.INTER.CONST>
1

>  <SCORE.INTER.POLAR>
0

>  <SCORE.INTER.ROT>
2

>  <SCORE.INTER.SOLV>
10.0013

>  <SCORE.INTER.VDW>
-17.253

>  <SCORE.INTER.norm>
-0.709416

>  <SCORE.INTRA>
-2.25359

>  <SCORE.INTRA.DIHEDRAL>
-5.0705

>  <SCORE.INTRA.DIHEDRAL.0>
6.26853

>  <SCORE.INTRA.POLAR>
0

>  <SCORE.INTRA.POLAR.0>
0

>  <SCORE.INTRA.REPUL>
0

>  <SCORE.INTRA.REPUL.0>
0

>  <SCORE.INTRA.SOLV>
0.00736195

>  <SCORE.INTRA.SOLV.lig_0>
-38.4926

>  <SCORE.INTRA.VDW>
0.277982

>  <SCORE.INTRA.VDW.0>
-0.59057

>  <SCORE.INTRA.norm>
-0.11861

>  <SCORE.RESTR>
0

>  <SCORE.RESTR.CAVITY>
0

>  <SCORE.RESTR.norm>
0

>  <SCORE.SYSTEM>
0

>  <SCORE.SYSTEM.CONST>
0

>  <SCORE.SYSTEM.DIHEDRAL>
0

>  <SCORE.SYSTEM.SOLV>
0

>  <SCORE.SYSTEM.norm>
0

>  <SCORE.heavy>
19

>  <SCORE.norm>
-0.828026

>  <RMSD>
7.183

$$$$
ligand
 OpenBabel11021811483D
libRbt.so/2013.1/901 2013/11/27
 19 21  0  0  0  0  0  0  0  0999 V2000
   -8.3621   -8.4548    8.5156 C   0  0  0  0  0  0  0  0  0  0  0  0
   -9.1734   -9.5324    8.0251 O   0  0  0  0  0  0  0  0  0  0  0  0
   -8.6010   -8.2461   10.0126 C   0  0  1  0  0  0  0  0  0  0  0  0
   -8.1662   -9.3962   10.7631 O   0  0  0  0  0  0  0  0  0  0  0  0
   -7.8179   -7.0521   10.5294 C   0  0  1  0  0  0  0  0  0  0  0  0
   -8.6746   -5.9223   10.7368 O   0  0  0  0  0  0  0  0  0  0  0  0
   -7.2032   -7.4984   11.8382 C   0  0  0  0  0  0  0  0  0  0  0  0
   -7.3189   -9.0156   11.8571 C   0  0  2  0  0  0  0  0  0  0  0  0
   -2.6095   -9.7914   14.0509 N   0  0  0  0  0  0  0  0  0  0  0  0
   -3.6822   -9.0959   14.5154 C   0  0  1  0  0  0  0  0  0  0  0  0
   -3.5974   -8.4816   15.7193 N   0  0  0  0  0  0  0  0  0  0  0  0
   -4.8345   -8.9997   13.7978 N   0  0  0  0  0  0  0  0  0  0  0  0
   -4.9713   -9.5957   12.5822 C   0  0  2  0  0  0  0  0  0  0  0  0
   -3.9127  -10.3159   12.0590 C   0  0  1  0  0  0  0  0  0  0  0  0
   -2.6616  -10.4148   12.8530 C   0  0  0  0  0  0  0  0  0  0  0  0
   -1.6784  -11.0599   12.4249 O   0  0  0  0  0  0  0  0  0  0  0  0
   -4.2977  -10.8036   10.8668 N   0  0  0  0  0  0  0  0  0  0  0  0
   -5.5680  -10.3896   10.6497 C   0  0  0  0  0  0  0  0  0  0  0  0
   -5.9778   -9.6516   11.6974 N   0  0  1  0  0  0  0  0  0  0  0  0
  1  2  1  0  0  0  0
  3  1  1  6  0  0  0
  3  4  1  0  0  0  0
  3  5  1  0  0  0  0
  5  6  1  1  0  0  0
  5  7  1  0  0  0  0
  7  8  1  0  0  0  0
  8  4  1  6  0  0  0
  8 19  1  0  0  0  0
  9 15  1  0  0  0  0
  9 10  1  0  0  0  0
 10 11  1  6  0  0  0
 10 12  1  0  0  0  0
 13 12  1  6  0  0  0
 13 14  1  0  0  0  0
 13 19  1  0  0  0  0
 14 15  1  1  0  0  0
 14 17  1  0  0  0  0
 15 16  2  0  0  0  0
 17 18  1  0  0  0  0
 19 18  1  1  0  0  0
M  END
>  <CHROM.1>
64.74806762,-174.77301968,-5.81477811,-9.11828066,11.70524286,-2.85014516
-0.60433605,0.90867309

>  <Name>
ligand

>  <RI>
0

>  <Rbt.Current_Directory>
/home/itssahil/PROJECTS/Mol_Feturizer/New_Systems/rnas/3SKI

>  <Rbt.Executable>
rbdock ($Id: //depot/dev/client3/rdock/2013.1/src/exe/rbdock.cxx#4 $)

>  <Rbt.Library>
libRbt.so (2013.1, Build901 2013/11/27)

>  <Rbt.Parameter_File>
/export/apps/rDock/src/rDock_2013.1_src/data/scripts/dock_solv.prm

>  <Rbt.Receptor>
prm/pocket_docking_8.prm

>  <SCORE>
-15.2089

>  <SCORE.INTER>
-12.1828

>  <SCORE.INTER.CONST>
1

>  <SCORE.INTER.POLAR>
0

>  <SCORE.INTER.ROT>
2

>  <SCORE.INTER.SOLV>
9.95083

>  <SCORE.INTER.VDW>
-16.3721

>  <SCORE.INTER.norm>
-0.641199

>  <SCORE.INTRA>
-3.02615

>  <SCORE.INTRA.DIHEDRAL>
-4.9781

>  <SCORE.INTRA.DIHEDRAL.0>
6.26853

>  <SCORE.INTRA.POLAR>
0

>  <SCORE.INTRA.POLAR.0>
0

>  <SCORE.INTRA.REPUL>
0

>  <SCORE.INTRA.REPUL.0>
0

>  <SCORE.INTRA.SOLV>
-0.257777

>  <SCORE.INTRA.SOLV.lig_0>
-38.4926

>  <SCORE.INTRA.VDW>
-0.408207

>  <SCORE.INTRA.VDW.0>
-0.59057

>  <SCORE.INTRA.norm>
-0.159271

>  <SCORE.RESTR>
0

>  <SCORE.RESTR.CAVITY>
0

>  <SCORE.RESTR.norm>
0

>  <SCORE.SYSTEM>
0

>  <SCORE.SYSTEM.CONST>
0

>  <SCORE.SYSTEM.DIHEDRAL>
0

>  <SCORE.SYSTEM.SOLV>
0

>  <SCORE.SYSTEM.norm>
0

>  <SCORE.heavy>
19

>  <SCORE.norm>
-0.80047

>  <RMSD>
7.237

$$$$
ligand
 OpenBabel11021811483D
libRbt.so/2013.1/901 2013/11/27
 19 21  0  0  0  0  0  0  0  0999 V2000
   -8.4865   -8.8922    8.5838 C   0  0  0  0  0  0  0  0  0  0  0  0
   -9.1169   -7.9031    7.7566 O   0  0  0  0  0  0  0  0  0  0  0  0
   -8.6652   -8.5428   10.0630 C   0  0  1  0  0  0  0  0  0  0  0  0
   -8.1544   -9.5973   10.9009 O   0  0  0  0  0  0  0  0  0  0  0  0
   -7.9046   -7.2783   10.4211 C   0  0  1  0  0  0  0  0  0  0  0  0
   -8.7926   -6.1619   10.5578 O   0  0  0  0  0  0  0  0  0  0  0  0
   -7.2152   -7.5712   11.7360 C   0  0  0  0  0  0  0  0  0  0  0  0
   -7.2733   -9.0818   11.9096 C   0  0  2  0  0  0  0  0  0  0  0  0
   -2.5454   -9.7507   14.0988 N   0  0  0  0  0  0  0  0  0  0  0  0
   -3.6335   -9.0806   14.5648 C   0  0  1  0  0  0  0  0  0  0  0  0
   -3.5618   -8.4656   15.7693 N   0  0  0  0  0  0  0  0  0  0  0  0
   -4.7883   -9.0103   13.8483 N   0  0  0  0  0  0  0  0  0  0  0  0
   -4.9123   -9.6082   12.6323 C   0  0  2  0  0  0  0  0  0  0  0  0
   -3.8378  -10.3033   12.1075 C   0  0  1  0  0  0  0  0  0  0  0  0
   -2.5841  -10.3740   12.9004 C   0  0  0  0  0  0  0  0  0  0  0  0
   -1.5867  -10.9958   12.4708 O   0  0  0  0  0  0  0  0  0  0  0  0
   -4.2124  -10.7986   10.9151 N   0  0  0  0  0  0  0  0  0  0  0  0
   -5.4922  -10.4139   10.6995 C   0  0  0  0  0  0  0  0  0  0  0  0
   -5.9180   -9.6865   11.7482 N   0  0  1  0  0  0  0  0  0  0  0  0
  1  2  1  0  0  0  0
  3  1  1  6  0  0  0
  3  4  1  0  0  0  0
  3  5  1  0  0  0  0
  5  6  1  1  0  0  0
  5  7  1  0  0  0  0
  7  8  1  0  0  0  0
  8  4  1  6  0  0  0
  8 19  1  0  0  0  0
  9 15  1  0  0  0  0
  9 10  1  0  0  0  0
 10 11  1  6  0  0  0
 10 12  1  0  0  0  0
 13 12  1  6  0  0  0
 13 14  1  0  0  0  0
 13 19  1  0  0  0  0
 14 15  1  1  0  0  0
 14 17  1  0  0  0  0
 15 16  2  0  0  0  0
 17 18  1  0  0  0  0
 19 18  1  1  0  0  0
M  END
>  <CHROM.1>
174.19318652,-168.40891185,-5.79371540,-9.09597864,11.71152807,-2.79953640
-0.59506804,1.01150430

>  <Name>
ligand

>  <RI>
0

>  <Rbt.Current_Directory>
/home/itssahil/PROJECTS/Mol_Feturizer/New_Systems/rnas/3SKI

>  <Rbt.Executable>
rbdock ($Id: //depot/dev/client3/rdock/2013.1/src/exe/rbdock.cxx#4 $)

>  <Rbt.Library>
libRbt.so (2013.1, Build901 2013/11/27)

>  <Rbt.Parameter_File>
/export/apps/rDock/src/rDock_2013.1_src/data/scripts/dock_solv.prm

>  <Rbt.Receptor>
prm/pocket_docking_8.prm

>  <SCORE>
-15.2345

>  <SCORE.INTER>
-12.3308

>  <SCORE.INTER.CONST>
1

>  <SCORE.INTER.POLAR>
0

>  <SCORE.INTER.ROT>
2

>  <SCORE.INTER.SOLV>
9.33526

>  <SCORE.INTER.VDW>
-16.2656

>  <SCORE.INTER.norm>
-0.64899

>  <SCORE.INTRA>
-2.90366

>  <SCORE.INTRA.DIHEDRAL>
-4.93631

>  <SCORE.INTRA.DIHEDRAL.0>
6.26853

>  <SCORE.INTRA.POLAR>
0

>  <SCORE.INTRA.POLAR.0>
0

>  <SCORE.INTRA.REPUL>
0

>  <SCORE.INTRA.REPUL.0>
0

>  <SCORE.INTRA.SOLV>
-0.0413973

>  <SCORE.INTRA.SOLV.lig_0>
-38.4926

>  <SCORE.INTRA.VDW>
-0.414808

>  <SCORE.INTRA.VDW.0>
-0.59057

>  <SCORE.INTRA.norm>
-0.152824

>  <SCORE.RESTR>
0

>  <SCORE.RESTR.CAVITY>
0

>  <SCORE.RESTR.norm>
0

>  <SCORE.SYSTEM>
0

>  <SCORE.SYSTEM.CONST>
0

>  <SCORE.SYSTEM.DIHEDRAL>
0

>  <SCORE.SYSTEM.SOLV>
0

>  <SCORE.SYSTEM.norm>
0

>  <SCORE.heavy>
19

>  <SCORE.norm>
-0.801814

>  <RMSD>
7.238

$$$$
ligand
 OpenBabel11021811483D
libRbt.so/2013.1/901 2013/11/27
 19 21  0  0  0  0  0  0  0  0999 V2000
   -8.8960   -7.8078    9.6929 C   0  0  0  0  0  0  0  0  0  0  0  0
   -7.7845   -8.4812    9.0834 O   0  0  0  0  0  0  0  0  0  0  0  0
   -8.4763   -7.1861   11.0268 C   0  0  1  0  0  0  0  0  0  0  0  0
   -7.9519   -8.1917   11.9150 O   0  0  0  0  0  0  0  0  0  0  0  0
   -7.3832   -6.1512   10.8271 C   0  0  1  0  0  0  0  0  0  0  0  0
   -7.9049   -4.8208   10.9341 O   0  0  0  0  0  0  0  0  0  0  0  0
   -6.3664   -6.4109   11.9173 C   0  0  0  0  0  0  0  0  0  0  0  0
   -6.6888   -7.7927   12.4672 C   0  0  2  0  0  0  0  0  0  0  0  0
   -2.4785  -10.4923   14.0731 N   0  0  0  0  0  0  0  0  0  0  0  0
   -3.2536   -9.6039   14.7514 C   0  0  1  0  0  0  0  0  0  0  0  0
   -2.9551   -9.3207   16.0416 N   0  0  0  0  0  0  0  0  0  0  0  0
   -4.3171   -8.9912   14.1634 N   0  0  0  0  0  0  0  0  0  0  0  0
   -4.6587   -9.2384   12.8697 C   0  0  2  0  0  0  0  0  0  0  0  0
   -3.9058  -10.1325   12.1302 C   0  0  1  0  0  0  0  0  0  0  0  0
   -2.7491  -10.7957   12.7843 C   0  0  0  0  0  0  0  0  0  0  0  0
   -2.0413  -11.6165   12.1587 O   0  0  0  0  0  0  0  0  0  0  0  0
   -4.4452  -10.2048   10.9009 N   0  0  0  0  0  0  0  0  0  0  0  0
   -5.5084   -9.3675   10.8741 C   0  0  0  0  0  0  0  0  0  0  0  0
   -5.6371   -8.7774   12.0764 N   0  0  1  0  0  0  0  0  0  0  0  0
  1  2  1  0  0  0  0
  3  1  1  6  0  0  0
  3  4  1  0  0  0  0
  3  5  1  0  0  0  0
  5  6  1  1  0  0  0
  5  7  1  0  0  0  0
  7  8  1  0  0  0  0
  8  4  1  6  0  0  0
  8 19  1  0  0  0  0
  9 15  1  0  0  0  0
  9 10  1  0  0  0  0
 10 11  1  6  0  0  0
 10 12  1  0  0  0  0
 13 12  1  6  0  0  0
 13 14  1  0  0  0  0
 13 19  1  0  0  0  0
 14 15  1  1  0  0  0
 14 17  1  0  0  0  0
 15 16  2  0  0  0  0
 17 18  1  0  0  0  0
 19 18  1  1  0  0  0
M  END
>  <CHROM.1>
-57.52287291,-139.13471141,-5.50339115,-8.66703396,12.09441569,-3.07278183
-0.73371845,0.93846198

>  <Name>
ligand

>  <RI>
0

>  <Rbt.Current_Directory>
/home/itssahil/PROJECTS/Mol_Feturizer/New_Systems/rnas/3SKI

>  <Rbt.Executable>
rbdock ($Id: //depot/dev/client3/rdock/2013.1/src/exe/rbdock.cxx#4 $)

>  <Rbt.Library>
libRbt.so (2013.1, Build901 2013/11/27)

>  <Rbt.Parameter_File>
/export/apps/rDock/src/rDock_2013.1_src/data/scripts/dock_solv.prm

>  <Rbt.Receptor>
prm/blind_docking_80.prm

>  <SCORE>
-13.6362

>  <SCORE.INTER>
-10.5157

>  <SCORE.INTER.CONST>
1

>  <SCORE.INTER.POLAR>
0

>  <SCORE.INTER.ROT>
2

>  <SCORE.INTER.SOLV>
8.277

>  <SCORE.INTER.VDW>
-14.7028

>  <SCORE.INTER.norm>
-0.553456

>  <SCORE.INTRA>
-3.12051

>  <SCORE.INTRA.DIHEDRAL>
-5.02672

>  <SCORE.INTRA.DIHEDRAL.0>
6.26853

>  <SCORE.INTRA.POLAR>
0

>  <SCORE.INTRA.POLAR.0>
0

>  <SCORE.INTRA.REPUL>
0

>  <SCORE.INTRA.REPUL.0>
0

>  <SCORE.INTRA.SOLV>
0.297129

>  <SCORE.INTRA.SOLV.lig_0>
-38.4926

>  <SCORE.INTRA.VDW>
-0.755718

>  <SCORE.INTRA.VDW.0>
-0.59057

>  <SCORE.INTRA.norm>
-0.164237

>  <SCORE.RESTR>
0

>  <SCORE.RESTR.CAVITY>
0

>  <SCORE.RESTR.norm>
0

>  <SCORE.SYSTEM>
0

>  <SCORE.SYSTEM.CONST>
0

>  <SCORE.SYSTEM.DIHEDRAL>
0

>  <SCORE.SYSTEM.SOLV>
0

>  <SCORE.SYSTEM.norm>
0

>  <SCORE.heavy>
19

>  <SCORE.norm>
-0.717693

>  <RMSD>
7.245

$$$$
ligand
 OpenBabel11021811483D
libRbt.so/2013.1/901 2013/11/27
 19 21  0  0  0  0  0  0  0  0999 V2000
   -8.5285   -8.9021    8.5149 C   0  0  0  0  0  0  0  0  0  0  0  0
   -9.0171   -7.9289    7.5799 O   0  0  0  0  0  0  0  0  0  0  0  0
   -8.6081   -8.3568    9.9425 C   0  0  1  0  0  0  0  0  0  0  0  0
   -8.1553   -9.3425   10.8904 O   0  0  0  0  0  0  0  0  0  0  0  0
   -7.7228   -7.1345   10.1104 C   0  0  1  0  0  0  0  0  0  0  0  0
   -8.5010   -5.9315   10.1335 O   0  0  0  0  0  0  0  0  0  0  0  0
   -7.0031   -7.3255   11.4278 C   0  0  0  0  0  0  0  0  0  0  0  0
   -7.1870   -8.7908   11.7946 C   0  0  2  0  0  0  0  0  0  0  0  0
   -2.6214   -9.9705   14.1090 N   0  0  0  0  0  0  0  0  0  0  0  0
   -3.6452   -9.1912   14.5502 C   0  0  1  0  0  0  0  0  0  0  0  0
   -3.5432   -8.5940   15.7614 N   0  0  0  0  0  0  0  0  0  0  0  0
   -4.7650   -8.9946   13.8024 N   0  0  0  0  0  0  0  0  0  0  0  0
   -4.9169   -9.5691   12.5783 C   0  0  2  0  0  0  0  0  0  0  0  0
   -3.9076  -10.3716   12.0778 C   0  0  1  0  0  0  0  0  0  0  0  0
   -2.6917  -10.5795   12.9047 C   0  0  0  0  0  0  0  0  0  0  0  0
   -1.7540  -11.3015   12.4978 O   0  0  0  0  0  0  0  0  0  0  0  0
   -4.2984  -10.8177   10.8713 N   0  0  0  0  0  0  0  0  0  0  0  0
   -5.5234  -10.2980   10.6233 C   0  0  0  0  0  0  0  0  0  0  0  0
   -5.8995   -9.5352   11.6659 N   0  0  1  0  0  0  0  0  0  0  0  0
  1  2  1  0  0  0  0
  3  1  1  6  0  0  0
  3  4  1  0  0  0  0
  3  5  1  0  0  0  0
  5  6  1  1  0  0  0
  5  7  1  0  0  0  0
  7  8  1  0  0  0  0
  8  4  1  6  0  0  0
  8 19  1  0  0  0  0
  9 15  1  0  0  0  0
  9 10  1  0  0  0  0
 10 11  1  6  0  0  0
 10 12  1  0  0  0  0
 13 12  1  6  0  0  0
 13 14  1  0  0  0  0
 13 19  1  0  0  0  0
 14 15  1  1  0  0  0
 14 17  1  0  0  0  0
 15 16  2  0  0  0  0
 17 18  1  0  0  0  0
 19 18  1  1  0  0  0
M  END
>  <CHROM.1>
178.34365797,-159.78727289,-5.77047960,-9.06424056,11.61133548,-2.82589273
-0.66669211,0.96649713

>  <Name>
ligand

>  <RI>
0

>  <Rbt.Current_Directory>
/home/itssahil/PROJECTS/Mol_Feturizer/New_Systems/rnas/3SKI

>  <Rbt.Executable>
rbdock ($Id: //depot/dev/client3/rdock/2013.1/src/exe/rbdock.cxx#4 $)

>  <Rbt.Library>
libRbt.so (2013.1, Build901 2013/11/27)

>  <Rbt.Parameter_File>
/export/apps/rDock/src/rDock_2013.1_src/data/scripts/dock_solv.prm

>  <Rbt.Receptor>
prm/blind_docking_80.prm

>  <SCORE>
-15.0379

>  <SCORE.INTER>
-12.078

>  <SCORE.INTER.CONST>
1

>  <SCORE.INTER.POLAR>
0

>  <SCORE.INTER.ROT>
2

>  <SCORE.INTER.SOLV>
8.83771

>  <SCORE.INTER.VDW>
-15.9313

>  <SCORE.INTER.norm>
-0.635686

>  <SCORE.INTRA>
-2.95985

>  <SCORE.INTRA.DIHEDRAL>
-5.04019

>  <SCORE.INTRA.DIHEDRAL.0>
6.26853

>  <SCORE.INTRA.POLAR>
0

>  <SCORE.INTRA.POLAR.0>
0

>  <SCORE.INTRA.REPUL>
0

>  <SCORE.INTRA.REPUL.0>
0

>  <SCORE.INTRA.SOLV>
-0.0182198

>  <SCORE.INTRA.SOLV.lig_0>
-38.4926

>  <SCORE.INTRA.VDW>
-0.430648

>  <SCORE.INTRA.VDW.0>
-0.59057

>  <SCORE.INTRA.norm>
-0.155782

>  <SCORE.RESTR>
0

>  <SCORE.RESTR.CAVITY>
0

>  <SCORE.RESTR.norm>
0

>  <SCORE.SYSTEM>
0

>  <SCORE.SYSTEM.CONST>
0

>  <SCORE.SYSTEM.DIHEDRAL>
0

>  <SCORE.SYSTEM.SOLV>
0

>  <SCORE.SYSTEM.norm>
0

>  <SCORE.heavy>
19

>  <SCORE.norm>
-0.791468

>  <RMSD>
7.269

$$$$
ligand
 OpenBabel11021811483D
libRbt.so/2013.1/901 2013/11/27
 19 21  0  0  0  0  0  0  0  0999 V2000
  -10.8068   -9.3477    7.1144 C   0  0  0  0  0  0  0  0  0  0  0  0
  -10.8264  -10.7472    7.4322 O   0  0  0  0  0  0  0  0  0  0  0  0
   -9.4750   -8.7235    7.5368 C   0  0  1  0  0  0  0  0  0  0  0  0
   -9.4282   -7.3298    7.1757 O   0  0  0  0  0  0  0  0  0  0  0  0
   -9.2877   -8.8026    9.0417 C   0  0  1  0  0  0  0  0  0  0  0  0
   -8.3536   -9.8308    9.3933 O   0  0  0  0  0  0  0  0  0  0  0  0
   -8.7662   -7.4460    9.4633 C   0  0  0  0  0  0  0  0  0  0  0  0
   -9.0247   -6.5161    8.2869 C   0  0  2  0  0  0  0  0  0  0  0  0
  -13.9769   -5.0604    7.3129 N   0  0  0  0  0  0  0  0  0  0  0  0
  -13.2510   -6.0836    6.7872 C   0  0  1  0  0  0  0  0  0  0  0  0
  -13.8252   -6.8924    5.8653 N   0  0  0  0  0  0  0  0  0  0  0  0
  -11.9625   -6.3099    7.1623 N   0  0  0  0  0  0  0  0  0  0  0  0
  -11.3379   -5.5260    8.0825 C   0  0  2  0  0  0  0  0  0  0  0  0
  -12.0268   -4.4697    8.6506 C   0  0  1  0  0  0  0  0  0  0  0  0
  -13.4329   -4.2348    8.2340 C   0  0  0  0  0  0  0  0  0  0  0  0
  -14.0994   -3.2956    8.7237 O   0  0  0  0  0  0  0  0  0  0  0  0
  -11.2018   -3.8625    9.5212 N   0  0  0  0  0  0  0  0  0  0  0  0
  -10.0211   -4.5238    9.4906 C   0  0  0  0  0  0  0  0  0  0  0  0
  -10.1053   -5.5386    8.6112 N   0  0  1  0  0  0  0  0  0  0  0  0
  1  2  1  0  0  0  0
  3  1  1  1  0  0  0
  3  4  1  0  0  0  0
  3  5  1  0  0  0  0
  5  6  1  6  0  0  0
  5  7  1  0  0  0  0
  7  8  1  0  0  0  0
  8  4  1  6  0  0  0
  8 19  1  0  0  0  0
  9 15  1  0  0  0  0
  9 10  1  0  0  0  0
 10 11  1  6  0  0  0
 10 12  1  0  0  0  0
 13 12  1  6  0  0  0
 13 14  1  0  0  0  0
 13 19  1  0  0  0  0
 14 15  1  1  0  0  0
 14 17  1  0  0  0  0
 15 16  2  0  0  0  0
 17 18  1  0  0  0  0
 19 18  1  1  0  0  0
M  END
>  <CHROM.1>
177.85031211,8.47728834,-11.08941098,-6.63718675,8.09391072,0.78775733,0.49697465
-2.73874628

>  <Name>
ligand

>  <RI>
0

>  <Rbt.Current_Directory>
/home/itssahil/PROJECTS/Mol_Feturizer/New_Systems/rnas/3SKI

>  <Rbt.Executable>
rbdock ($Id: //depot/dev/client3/rdock/2013.1/src/exe/rbdock.cxx#4 $)

>  <Rbt.Library>
libRbt.so (2013.1, Build901 2013/11/27)

>  <Rbt.Parameter_File>
/export/apps/rDock/src/rDock_2013.1_src/data/scripts/dock_solv.prm

>  <Rbt.Receptor>
prm/pocket_docking_7.prm

>  <SCORE>
-15.0962

>  <SCORE.INTER>
-12.1556

>  <SCORE.INTER.CONST>
1

>  <SCORE.INTER.POLAR>
0

>  <SCORE.INTER.ROT>
2

>  <SCORE.INTER.SOLV>
9.59555

>  <SCORE.INTER.VDW>
-16.2356

>  <SCORE.INTER.norm>
-0.63977

>  <SCORE.INTRA>
-2.94053

>  <SCORE.INTRA.DIHEDRAL>
-5.05744

>  <SCORE.INTRA.DIHEDRAL.0>
6.26853

>  <SCORE.INTRA.POLAR>
0

>  <SCORE.INTRA.POLAR.0>
0

>  <SCORE.INTRA.REPUL>
0

>  <SCORE.INTRA.REPUL.0>
0

>  <SCORE.INTRA.SOLV>
0.780489

>  <SCORE.INTRA.SOLV.lig_0>
-38.4926

>  <SCORE.INTRA.VDW>
-0.802057

>  <SCORE.INTRA.VDW.0>
-0.59057

>  <SCORE.INTRA.norm>
-0.154765

>  <SCORE.RESTR>
0

>  <SCORE.RESTR.CAVITY>
0

>  <SCORE.RESTR.norm>
0

>  <SCORE.SYSTEM>
0

>  <SCORE.SYSTEM.CONST>
0

>  <SCORE.SYSTEM.DIHEDRAL>
0

>  <SCORE.SYSTEM.SOLV>
0

>  <SCORE.SYSTEM.norm>
0

>  <SCORE.heavy>
19

>  <SCORE.norm>
-0.794534

>  <RMSD>
7.330

$$$$
ligand
 OpenBabel11021811483D
libRbt.so/2013.1/901 2013/11/27
 19 21  0  0  0  0  0  0  0  0999 V2000
  -11.0832   -9.5136    7.5441 C   0  0  0  0  0  0  0  0  0  0  0  0
  -11.4924   -9.6277    6.1730 O   0  0  0  0  0  0  0  0  0  0  0  0
   -9.7038   -8.8573    7.6359 C   0  0  1  0  0  0  0  0  0  0  0  0
   -9.7493   -7.5046    7.1429 O   0  0  0  0  0  0  0  0  0  0  0  0
   -9.2242   -8.7932    9.0753 C   0  0  1  0  0  0  0  0  0  0  0  0
   -8.2241   -9.7869    9.3319 O   0  0  0  0  0  0  0  0  0  0  0  0
   -8.6504   -7.4047    9.2565 C   0  0  0  0  0  0  0  0  0  0  0  0
   -9.1481   -6.5902    8.0714 C   0  0  2  0  0  0  0  0  0  0  0  0
  -14.0617   -4.8402    7.4497 N   0  0  0  0  0  0  0  0  0  0  0  0
  -13.4176   -5.8649    6.8290 C   0  0  1  0  0  0  0  0  0  0  0  0
  -14.0793   -6.5892    5.8956 N   0  0  0  0  0  0  0  0  0  0  0  0
  -12.1251   -6.1754    7.1206 N   0  0  0  0  0  0  0  0  0  0  0  0
  -11.4144   -5.4782    8.0481 C   0  0  2  0  0  0  0  0  0  0  0  0
  -12.0178   -4.4248    8.7110 C   0  0  1  0  0  0  0  0  0  0  0  0
  -13.4292   -4.0976    8.3850 C   0  0  0  0  0  0  0  0  0  0  0  0
  -14.0203   -3.1574    8.9618 O   0  0  0  0  0  0  0  0  0  0  0  0
  -11.1189   -3.9107    9.5684 N   0  0  0  0  0  0  0  0  0  0  0  0
   -9.9772   -4.6258    9.4370 C   0  0  0  0  0  0  0  0  0  0  0  0
  -10.1586   -5.5819    8.5079 N   0  0  1  0  0  0  0  0  0  0  0  0
  1  2  1  0  0  0  0
  3  1  1  1  0  0  0
  3  4  1  0  0  0  0
  3  5  1  0  0  0  0
  5  6  1  6  0  0  0
  5  7  1  0  0  0  0
  7  8  1  0  0  0  0
  8  4  1  6  0  0  0
  8 19  1  0  0  0  0
  9 15  1  0  0  0  0
  9 10  1  0  0  0  0
 10 11  1  6  0  0  0
 10 12  1  0  0  0  0
 13 12  1  6  0  0  0
 13 14  1  0  0  0  0
 13 19  1  0  0  0  0
 14 15  1  1  0  0  0
 14 17  1  0  0  0  0
 15 16  2  0  0  0  0
 17 18  1  0  0  0  0
 19 18  1  1  0  0  0
M  END
>  <CHROM.1>
63.99018012,-4.01702598,-11.19399050,-6.53844223,8.04474840,0.73109761,0.51063030
-2.66670103

>  <Name>
ligand

>  <RI>
0

>  <Rbt.Current_Directory>
/home/itssahil/PROJECTS/Mol_Feturizer/New_Systems/rnas/3SKI

>  <Rbt.Executable>
rbdock ($Id: //depot/dev/client3/rdock/2013.1/src/exe/rbdock.cxx#4 $)

>  <Rbt.Library>
libRbt.so (2013.1, Build901 2013/11/27)

>  <Rbt.Parameter_File>
/export/apps/rDock/src/rDock_2013.1_src/data/scripts/dock_solv.prm

>  <Rbt.Receptor>
prm/pocket_docking_7.prm

>  <SCORE>
-14.0262

>  <SCORE.INTER>
-10.9802

>  <SCORE.INTER.CONST>
1

>  <SCORE.INTER.POLAR>
0

>  <SCORE.INTER.ROT>
2

>  <SCORE.INTER.SOLV>
8.46672

>  <SCORE.INTER.VDW>
-15.0757

>  <SCORE.INTER.norm>
-0.577904

>  <SCORE.INTRA>
-3.04602

>  <SCORE.INTRA.DIHEDRAL>
-5.00268

>  <SCORE.INTRA.DIHEDRAL.0>
6.26853

>  <SCORE.INTRA.POLAR>
0

>  <SCORE.INTRA.POLAR.0>
0

>  <SCORE.INTRA.REPUL>
0

>  <SCORE.INTRA.REPUL.0>
0

>  <SCORE.INTRA.SOLV>
0.47154

>  <SCORE.INTRA.SOLV.lig_0>
-38.4926

>  <SCORE.INTRA.VDW>
-0.78045

>  <SCORE.INTRA.VDW.0>
-0.59057

>  <SCORE.INTRA.norm>
-0.160317

>  <SCORE.RESTR>
0

>  <SCORE.RESTR.CAVITY>
0

>  <SCORE.RESTR.norm>
0

>  <SCORE.SYSTEM>
0

>  <SCORE.SYSTEM.CONST>
0

>  <SCORE.SYSTEM.DIHEDRAL>
0

>  <SCORE.SYSTEM.SOLV>
0

>  <SCORE.SYSTEM.norm>
0

>  <SCORE.heavy>
19

>  <SCORE.norm>
-0.738221

>  <RMSD>
7.368

$$$$
ligand
 OpenBabel11021811483D
libRbt.so/2013.1/901 2013/11/27
 19 21  0  0  0  0  0  0  0  0999 V2000
   -9.2319   -6.3612   10.7965 C   0  0  0  0  0  0  0  0  0  0  0  0
   -8.5401   -5.1631   11.1788 O   0  0  0  0  0  0  0  0  0  0  0  0
   -8.2412   -7.4078   10.2816 C   0  0  1  0  0  0  0  0  0  0  0  0
   -8.9226   -8.6306    9.9418 O   0  0  0  0  0  0  0  0  0  0  0  0
   -7.5383   -6.9231    9.0258 C   0  0  1  0  0  0  0  0  0  0  0  0
   -6.1960   -6.5103    9.3112 O   0  0  0  0  0  0  0  0  0  0  0  0
   -7.5400   -8.0991    8.0734 C   0  0  0  0  0  0  0  0  0  0  0  0
   -8.5555   -9.0856    8.6311 C   0  0  2  0  0  0  0  0  0  0  0  0
  -12.6992   -6.4284    6.7977 N   0  0  0  0  0  0  0  0  0  0  0  0
  -11.7163   -6.0290    7.6489 C   0  0  1  0  0  0  0  0  0  0  0  0
  -11.7442   -4.7677    8.1412 N   0  0  0  0  0  0  0  0  0  0  0  0
  -10.7104   -6.8672    8.0198 N   0  0  0  0  0  0  0  0  0  0  0  0
  -10.6369   -8.1444    7.5563 C   0  0  2  0  0  0  0  0  0  0  0  0
  -11.6096   -8.6060    6.6881 C   0  0  1  0  0  0  0  0  0  0  0  0
  -12.7008   -7.6806    6.2897 C   0  0  0  0  0  0  0  0  0  0  0  0
  -13.6006   -8.0498    5.5022 O   0  0  0  0  0  0  0  0  0  0  0  0
  -11.3108   -9.8791    6.3764 N   0  0  0  0  0  0  0  0  0  0  0  0
  -10.1784  -10.2052    7.0425 C   0  0  0  0  0  0  0  0  0  0  0  0
   -9.7685   -9.1455    7.7631 N   0  0  1  0  0  0  0  0  0  0  0  0
  1  2  1  0  0  0  0
  3  1  1  6  0  0  0
  3  4  1  0  0  0  0
  3  5  1  0  0  0  0
  5  6  1  1  0  0  0
  5  7  1  0  0  0  0
  7  8  1  0  0  0  0
  8  4  1  1  0  0  0
  8 19  1  0  0  0  0
  9 15  1  0  0  0  0
  9 10  1  0  0  0  0
 10 11  1  1  0  0  0
 10 12  1  0  0  0  0
 13 12  1  1  0  0  0
 13 14  1  0  0  0  0
 13 19  1  0  0  0  0
 14 15  1  6  0  0  0
 14 17  1  0  0  0  0
 15 16  2  0  0  0  0
 17 18  1  0  0  0  0
 19 18  1  6  0  0  0
M  END
>  <CHROM.1>
177.90167709,53.11329045,-10.02526582,-7.53931084,8.21623872,0.47121600,-0.51182442
0.49347753

>  <Name>
ligand

>  <RI>
0

>  <Rbt.Current_Directory>
/home/itssahil/PROJECTS/Mol_Feturizer/New_Systems/rnas/3SKI

>  <Rbt.Executable>
rbdock ($Id: //depot/dev/client3/rdock/2013.1/src/exe/rbdock.cxx#4 $)

>  <Rbt.Library>
libRbt.so (2013.1, Build901 2013/11/27)

>  <Rbt.Parameter_File>
/export/apps/rDock/src/rDock_2013.1_src/data/scripts/dock_solv.prm

>  <Rbt.Receptor>
prm/pocket_docking_7.prm

>  <SCORE>
-16.143

>  <SCORE.INTER>
-12.7615

>  <SCORE.INTER.CONST>
1

>  <SCORE.INTER.POLAR>
0

>  <SCORE.INTER.ROT>
2

>  <SCORE.INTER.SOLV>
8.84083

>  <SCORE.INTER.VDW>
-16.3879

>  <SCORE.INTER.norm>
-0.671655

>  <SCORE.INTRA>
-3.38155

>  <SCORE.INTRA.DIHEDRAL>
-5.05731

>  <SCORE.INTRA.DIHEDRAL.0>
6.26853

>  <SCORE.INTRA.POLAR>
0

>  <SCORE.INTRA.POLAR.0>
0

>  <SCORE.INTRA.REPUL>
0

>  <SCORE.INTRA.REPUL.0>
0

>  <SCORE.INTRA.SOLV>
0.89027

>  <SCORE.INTRA.SOLV.lig_0>
-38.4926

>  <SCORE.INTRA.VDW>
-1.29803

>  <SCORE.INTRA.VDW.0>
-0.59057

>  <SCORE.INTRA.norm>
-0.177976

>  <SCORE.RESTR>
0

>  <SCORE.RESTR.CAVITY>
0

>  <SCORE.RESTR.norm>
0

>  <SCORE.SYSTEM>
0

>  <SCORE.SYSTEM.CONST>
0

>  <SCORE.SYSTEM.DIHEDRAL>
0

>  <SCORE.SYSTEM.SOLV>
0

>  <SCORE.SYSTEM.norm>
0

>  <SCORE.heavy>
19

>  <SCORE.norm>
-0.849632

>  <RMSD>
7.385

$$$$
ligand
 OpenBabel11021811483D
libRbt.so/2013.1/901 2013/11/27
 19 21  0  0  0  0  0  0  0  0999 V2000
   -8.1707   -5.5229   10.5664 C   0  0  0  0  0  0  0  0  0  0  0  0
   -7.4056   -4.4153   10.0681 O   0  0  0  0  0  0  0  0  0  0  0  0
   -8.0606   -6.7174    9.6162 C   0  0  1  0  0  0  0  0  0  0  0  0
   -6.6971   -7.1732    9.5267 O   0  0  0  0  0  0  0  0  0  0  0  0
   -8.8922   -7.8875   10.1114 C   0  0  1  0  0  0  0  0  0  0  0  0
  -10.0994   -8.0225    9.3510 O   0  0  0  0  0  0  0  0  0  0  0  0
   -8.0201   -9.1126    9.9431 C   0  0  0  0  0  0  0  0  0  0  0  0
   -6.6069   -8.5916    9.7262 C   0  0  2  0  0  0  0  0  0  0  0  0
   -2.7373  -11.5787   11.6487 N   0  0  0  0  0  0  0  0  0  0  0  0
   -3.3251  -11.5988   10.4222 C   0  0  1  0  0  0  0  0  0  0  0  0
   -2.9018  -12.4998    9.5040 N   0  0  0  0  0  0  0  0  0  0  0  0
   -4.3293  -10.7392   10.0987 N   0  0  0  0  0  0  0  0  0  0  0  0
   -4.7933   -9.8165   10.9846 C   0  0  2  0  0  0  0  0  0  0  0  0
   -4.2337   -9.7503   12.2478 C   0  0  1  0  0  0  0  0  0  0  0  0
   -3.1372  -10.6927   12.5874 C   0  0  0  0  0  0  0  0  0  0  0  0
   -2.5953  -10.6679   13.7151 O   0  0  0  0  0  0  0  0  0  0  0  0
   -4.8546   -8.7658   12.9206 N   0  0  0  0  0  0  0  0  0  0  0  0
   -5.7863   -8.2345   12.0948 C   0  0  0  0  0  0  0  0  0  0  0  0
   -5.7484   -8.8774   10.9134 N   0  0  1  0  0  0  0  0  0  0  0  0
  1  2  1  0  0  0  0
  3  1  1  1  0  0  0
  3  4  1  0  0  0  0
  3  5  1  0  0  0  0
  5  6  1  6  0  0  0
  5  7  1  0  0  0  0
  7  8  1  0  0  0  0
  8  4  1  1  0  0  0
  8 19  1  0  0  0  0
  9 15  1  0  0  0  0
  9 10  1  0  0  0  0
 10 11  1  1  0  0  0
 10 12  1  0  0  0  0
 13 12  1  1  0  0  0
 13 14  1  0  0  0  0
 13 19  1  0  0  0  0
 14 15  1  6  0  0  0
 14 17  1  0  0  0  0
 15 16  2  0  0  0  0
 17 18  1  0  0  0  0
 19 18  1  6  0  0  0
M  END
>  <CHROM.1>
62.47858000,-135.80151388,-5.76672510,-8.91358223,10.81919669,-2.76103536
0.66418152,-2.52644900

>  <Name>
ligand

>  <RI>
0

>  <Rbt.Current_Directory>
/home/itssahil/PROJECTS/Mol_Feturizer/New_Systems/rnas/3SKI

>  <Rbt.Executable>
rbdock ($Id: //depot/dev/client3/rdock/2013.1/src/exe/rbdock.cxx#4 $)

>  <Rbt.Library>
libRbt.so (2013.1, Build901 2013/11/27)

>  <Rbt.Parameter_File>
/export/apps/rDock/src/rDock_2013.1_src/data/scripts/dock_solv.prm

>  <Rbt.Receptor>
prm/pocket_docking_7.prm

>  <SCORE>
-14.8464

>  <SCORE.INTER>
-11.6248

>  <SCORE.INTER.CONST>
1

>  <SCORE.INTER.POLAR>
0

>  <SCORE.INTER.ROT>
2

>  <SCORE.INTER.SOLV>
10.772

>  <SCORE.INTER.VDW>
-16.2739

>  <SCORE.INTER.norm>
-0.611831

>  <SCORE.INTRA>
-3.22156

>  <SCORE.INTRA.DIHEDRAL>
-5.02863

>  <SCORE.INTRA.DIHEDRAL.0>
6.26853

>  <SCORE.INTRA.POLAR>
0

>  <SCORE.INTRA.POLAR.0>
0

>  <SCORE.INTRA.REPUL>
0

>  <SCORE.INTRA.REPUL.0>
0

>  <SCORE.INTRA.SOLV>
-0.241338

>  <SCORE.INTRA.SOLV.lig_0>
-38.4926

>  <SCORE.INTRA.VDW>
-0.586578

>  <SCORE.INTRA.VDW.0>
-0.59057

>  <SCORE.INTRA.norm>
-0.169556

>  <SCORE.RESTR>
0

>  <SCORE.RESTR.CAVITY>
0

>  <SCORE.RESTR.norm>
0

>  <SCORE.SYSTEM>
0

>  <SCORE.SYSTEM.CONST>
0

>  <SCORE.SYSTEM.DIHEDRAL>
0

>  <SCORE.SYSTEM.SOLV>
0

>  <SCORE.SYSTEM.norm>
0

>  <SCORE.heavy>
19

>  <SCORE.norm>
-0.781387

>  <RMSD>
7.389

$$$$
ligand
 OpenBabel11021811483D
libRbt.so/2013.1/901 2013/11/27
 19 21  0  0  0  0  0  0  0  0999 V2000
   -8.1691   -5.5711   10.7158 C   0  0  0  0  0  0  0  0  0  0  0  0
   -7.3697   -4.4376   10.3465 O   0  0  0  0  0  0  0  0  0  0  0  0
   -8.0473   -6.6751    9.6632 C   0  0  1  0  0  0  0  0  0  0  0  0
   -6.6956   -7.1686    9.5965 O   0  0  0  0  0  0  0  0  0  0  0  0
   -8.9386   -7.8562   10.0048 C   0  0  1  0  0  0  0  0  0  0  0  0
  -10.1088   -7.8772    9.1779 O   0  0  0  0  0  0  0  0  0  0  0  0
   -8.0969   -9.0904    9.7634 C   0  0  0  0  0  0  0  0  0  0  0  0
   -6.6592   -8.6016    9.6649 C   0  0  2  0  0  0  0  0  0  0  0  0
   -2.6755  -11.5574   11.3929 N   0  0  0  0  0  0  0  0  0  0  0  0
   -3.1612  -11.4024   10.1319 C   0  0  1  0  0  0  0  0  0  0  0  0
   -2.5811  -12.0827    9.1147 N   0  0  0  0  0  0  0  0  0  0  0  0
   -4.2170  -10.5846    9.8701 N   0  0  0  0  0  0  0  0  0  0  0  0
   -4.8371   -9.8805   10.8556 C   0  0  2  0  0  0  0  0  0  0  0  0
   -4.3868   -9.9995   12.1580 C   0  0  1  0  0  0  0  0  0  0  0  0
   -3.2326  -10.8936   12.4298 C   0  0  0  0  0  0  0  0  0  0  0  0
   -2.7851  -11.0299   13.5905 O   0  0  0  0  0  0  0  0  0  0  0  0
   -5.1521   -9.2091   12.9306 N   0  0  0  0  0  0  0  0  0  0  0  0
   -6.0645   -8.6153   12.1261 C   0  0  0  0  0  0  0  0  0  0  0  0
   -5.8716   -9.0268   10.8596 N   0  0  1  0  0  0  0  0  0  0  0  0
  1  2  1  0  0  0  0
  3  1  1  1  0  0  0
  3  4  1  0  0  0  0
  3  5  1  0  0  0  0
  5  6  1  6  0  0  0
  5  7  1  0  0  0  0
  7  8  1  0  0  0  0
  8  4  1  1  0  0  0
  8 19  1  0  0  0  0
  9 15  1  0  0  0  0
  9 10  1  0  0  0  0
 10 11  1  1  0  0  0
 10 12  1  0  0  0  0
 13 12  1  1  0  0  0
 13 14  1  0  0  0  0
 13 19  1  0  0  0  0
 14 15  1  6  0  0  0
 14 17  1  0  0  0  0
 15 16  2  0  0  0  0
 17 18  1  0  0  0  0
 19 18  1  6  0  0  0
M  END
>  <CHROM.1>
63.78580660,-126.88937992,-5.79963783,-8.95824875,10.73621667,-2.89182866
0.70412408,-2.27752313

>  <Name>
ligand

>  <RI>
0

>  <Rbt.Current_Directory>
/home/itssahil/PROJECTS/Mol_Feturizer/New_Systems/rnas/3SKI

>  <Rbt.Executable>
rbdock ($Id: //depot/dev/client3/rdock/2013.1/src/exe/rbdock.cxx#4 $)

>  <Rbt.Library>
libRbt.so (2013.1, Build901 2013/11/27)

>  <Rbt.Parameter_File>
/export/apps/rDock/src/rDock_2013.1_src/data/scripts/dock_solv.prm

>  <Rbt.Receptor>
prm/blind_docking_40.prm

>  <SCORE>
-14.9521

>  <SCORE.INTER>
-11.791

>  <SCORE.INTER.CONST>
1

>  <SCORE.INTER.POLAR>
0

>  <SCORE.INTER.ROT>
2

>  <SCORE.INTER.SOLV>
11.0813

>  <SCORE.INTER.VDW>
-16.4878

>  <SCORE.INTER.norm>
-0.620581

>  <SCORE.INTRA>
-3.16111

>  <SCORE.INTRA.DIHEDRAL>
-5.00578

>  <SCORE.INTRA.DIHEDRAL.0>
6.26853

>  <SCORE.INTRA.POLAR>
0

>  <SCORE.INTRA.POLAR.0>
0

>  <SCORE.INTRA.REPUL>
0

>  <SCORE.INTRA.REPUL.0>
0

>  <SCORE.INTRA.SOLV>
-0.245973

>  <SCORE.INTRA.SOLV.lig_0>
-38.4926

>  <SCORE.INTRA.VDW>
-0.535234

>  <SCORE.INTRA.VDW.0>
-0.59057

>  <SCORE.INTRA.norm>
-0.166374

>  <SCORE.RESTR>
0

>  <SCORE.RESTR.CAVITY>
0

>  <SCORE.RESTR.norm>
0

>  <SCORE.SYSTEM>
0

>  <SCORE.SYSTEM.CONST>
0

>  <SCORE.SYSTEM.DIHEDRAL>
0

>  <SCORE.SYSTEM.SOLV>
0

>  <SCORE.SYSTEM.norm>
0

>  <SCORE.heavy>
19

>  <SCORE.norm>
-0.786955

>  <RMSD>
7.407

$$$$
ligand
 OpenBabel11021811483D
libRbt.so/2013.1/901 2013/11/27
 19 21  0  0  0  0  0  0  0  0999 V2000
   -8.6791   -6.9241   10.7388 C   0  0  0  0  0  0  0  0  0  0  0  0
   -8.4261   -5.6388   10.1521 O   0  0  0  0  0  0  0  0  0  0  0  0
   -7.6428   -7.9427   10.2588 C   0  0  1  0  0  0  0  0  0  0  0  0
   -6.3186   -7.5568   10.6745 O   0  0  0  0  0  0  0  0  0  0  0  0
   -7.9140   -9.3162   10.8467 C   0  0  1  0  0  0  0  0  0  0  0  0
   -8.4989  -10.1894    9.8725 O   0  0  0  0  0  0  0  0  0  0  0  0
   -6.5686   -9.8458   11.2932 C   0  0  0  0  0  0  0  0  0  0  0  0
   -5.6331   -8.6458   11.3099 C   0  0  2  0  0  0  0  0  0  0  0  0
   -2.6662   -9.8025   15.4875 N   0  0  0  0  0  0  0  0  0  0  0  0
   -2.7406  -10.4163   14.2759 C   0  0  1  0  0  0  0  0  0  0  0  0
   -1.9617  -11.4980   14.0370 N   0  0  0  0  0  0  0  0  0  0  0  0
   -3.5810   -9.9720   13.3021 N   0  0  0  0  0  0  0  0  0  0  0  0
   -4.3862   -8.8915   13.4912 C   0  0  2  0  0  0  0  0  0  0  0  0
   -4.3537   -8.2277   14.7043 C   0  0  1  0  0  0  0  0  0  0  0  0
   -3.4307   -8.7216   15.7578 C   0  0  0  0  0  0  0  0  0  0  0  0
   -3.3611   -8.1512   16.8695 O   0  0  0  0  0  0  0  0  0  0  0  0
   -5.2251   -7.2063   14.6365 N   0  0  0  0  0  0  0  0  0  0  0  0
   -5.7931   -7.2378   13.4083 C   0  0  0  0  0  0  0  0  0  0  0  0
   -5.2807   -8.2677   12.7104 N   0  0  1  0  0  0  0  0  0  0  0  0
  1  2  1  0  0  0  0
  3  1  1  1  0  0  0
  3  4  1  0  0  0  0
  3  5  1  0  0  0  0
  5  6  1  6  0  0  0
  5  7  1  0  0  0  0
  7  8  1  0  0  0  0
  8  4  1  1  0  0  0
  8 19  1  0  0  0  0
  9 15  1  0  0  0  0
  9 10  1  0  0  0  0
 10 11  1  1  0  0  0
 10 12  1  0  0  0  0
 13 12  1  1  0  0  0
 13 14  1  0  0  0  0
 13 19  1  0  0  0  0
 14 15  1  6  0  0  0
 14 17  1  0  0  0  0
 15 16  2  0  0  0  0
 17 18  1  0  0  0  0
 19 18  1  6  0  0  0
M  END
>  <CHROM.1>
62.33322517,-163.64169743,-5.46032778,-8.63037230,12.76992655,2.93545939
0.77834407,-2.53454771

>  <Name>
ligand

>  <RI>
0

>  <Rbt.Current_Directory>
/home/itssahil/PROJECTS/Mol_Feturizer/New_Systems/rnas/3SKI

>  <Rbt.Executable>
rbdock ($Id: //depot/dev/client3/rdock/2013.1/src/exe/rbdock.cxx#4 $)

>  <Rbt.Library>
libRbt.so (2013.1, Build901 2013/11/27)

>  <Rbt.Parameter_File>
/export/apps/rDock/src/rDock_2013.1_src/data/scripts/dock_solv.prm

>  <Rbt.Receptor>
prm/pocket_docking_8.prm

>  <SCORE>
-13.544

>  <SCORE.INTER>
-10.4065

>  <SCORE.INTER.CONST>
1

>  <SCORE.INTER.POLAR>
0

>  <SCORE.INTER.ROT>
2

>  <SCORE.INTER.SOLV>
11.2736

>  <SCORE.INTER.VDW>
-15.6289

>  <SCORE.INTER.norm>
-0.547712

>  <SCORE.INTRA>
-3.13742

>  <SCORE.INTRA.DIHEDRAL>
-5.03123

>  <SCORE.INTRA.DIHEDRAL.0>
6.26853

>  <SCORE.INTRA.POLAR>
0

>  <SCORE.INTRA.POLAR.0>
0

>  <SCORE.INTRA.REPUL>
0

>  <SCORE.INTRA.REPUL.0>
0

>  <SCORE.INTRA.SOLV>
-0.245402

>  <SCORE.INTRA.SOLV.lig_0>
-38.4926

>  <SCORE.INTRA.VDW>
-0.499104

>  <SCORE.INTRA.VDW.0>
-0.59057

>  <SCORE.INTRA.norm>
-0.165127

>  <SCORE.RESTR>
0

>  <SCORE.RESTR.CAVITY>
0

>  <SCORE.RESTR.norm>
0

>  <SCORE.SYSTEM>
0

>  <SCORE.SYSTEM.CONST>
0

>  <SCORE.SYSTEM.DIHEDRAL>
0

>  <SCORE.SYSTEM.SOLV>
0

>  <SCORE.SYSTEM.norm>
0

>  <SCORE.heavy>
19

>  <SCORE.norm>
-0.71284

>  <RMSD>
7.409

$$$$
ligand
 OpenBabel11021811483D
libRbt.so/2013.1/901 2013/11/27
 19 21  0  0  0  0  0  0  0  0999 V2000
   -8.1097   -9.7408   10.7111 C   0  0  0  0  0  0  0  0  0  0  0  0
   -8.5371   -9.7780    9.3413 O   0  0  0  0  0  0  0  0  0  0  0  0
   -7.9234   -8.2937   11.1724 C   0  0  1  0  0  0  0  0  0  0  0  0
   -7.5467   -8.2464   12.5619 O   0  0  0  0  0  0  0  0  0  0  0  0
   -6.8204   -7.6075   10.3860 C   0  0  1  0  0  0  0  0  0  0  0  0
   -7.3630   -6.7080    9.4112 O   0  0  0  0  0  0  0  0  0  0  0  0
   -5.9977   -6.8504   11.4058 C   0  0  0  0  0  0  0  0  0  0  0  0
   -6.3965   -7.4118   12.7627 C   0  0  2  0  0  0  0  0  0  0  0  0
   -2.9279  -11.2625   11.9062 N   0  0  0  0  0  0  0  0  0  0  0  0
   -3.8752  -10.7444   11.0789 C   0  0  1  0  0  0  0  0  0  0  0  0
   -4.0039  -11.2481    9.8284 N   0  0  0  0  0  0  0  0  0  0  0  0
   -4.6975   -9.7367   11.4794 N   0  0  0  0  0  0  0  0  0  0  0  0
   -4.6115   -9.1967   12.7254 C   0  0  2  0  0  0  0  0  0  0  0  0
   -3.6671   -9.6844   13.6104 C   0  0  1  0  0  0  0  0  0  0  0  0
   -2.7746  -10.7828   13.1602 C   0  0  0  0  0  0  0  0  0  0  0  0
   -1.9008  -11.2536   13.9223 O   0  0  0  0  0  0  0  0  0  0  0  0
   -3.7804   -8.9895   14.7556 N   0  0  0  0  0  0  0  0  0  0  0  0
   -4.7797   -8.0918   14.5888 C   0  0  0  0  0  0  0  0  0  0  0  0
   -5.2868   -8.2199   13.3491 N   0  0  1  0  0  0  0  0  0  0  0  0
  1  2  1  0  0  0  0
  3  1  1  6  0  0  0
  3  4  1  0  0  0  0
  3  5  1  0  0  0  0
  5  6  1  6  0  0  0
  5  7  1  0  0  0  0
  7  8  1  0  0  0  0
  8  4  1  6  0  0  0
  8 19  1  0  0  0  0
  9 15  1  0  0  0  0
  9 10  1  0  0  0  0
 10 11  1  1  0  0  0
 10 12  1  0  0  0  0
 13 12  1  1  0  0  0
 13 14  1  0  0  0  0
 13 19  1  0  0  0  0
 14 15  1  6  0  0  0
 14 17  1  0  0  0  0
 15 16  2  0  0  0  0
 17 18  1  0  0  0  0
 19 18  1  6  0  0  0
M  END
>  <CHROM.1>
177.68067546,68.33391439,-5.38007627,-9.13965822,11.95409643,-3.00178759
-0.65337229,0.91446012

>  <Name>
ligand

>  <RI>
0

>  <Rbt.Current_Directory>
/home/itssahil/PROJECTS/Mol_Feturizer/New_Systems/rnas/3SKI

>  <Rbt.Executable>
rbdock ($Id: //depot/dev/client3/rdock/2013.1/src/exe/rbdock.cxx#4 $)

>  <Rbt.Library>
libRbt.so (2013.1, Build901 2013/11/27)

>  <Rbt.Parameter_File>
/export/apps/rDock/src/rDock_2013.1_src/data/scripts/dock_solv.prm

>  <Rbt.Receptor>
prm/pocket_docking_7.prm

>  <SCORE>
-14.8773

>  <SCORE.INTER>
-11.4497

>  <SCORE.INTER.CONST>
1

>  <SCORE.INTER.POLAR>
0

>  <SCORE.INTER.ROT>
2

>  <SCORE.INTER.SOLV>
15.7077

>  <SCORE.INTER.VDW>
-17.8024

>  <SCORE.INTER.norm>
-0.602617

>  <SCORE.INTRA>
-3.42762

>  <SCORE.INTRA.DIHEDRAL>
-5.0394

>  <SCORE.INTRA.DIHEDRAL.0>
6.26853

>  <SCORE.INTRA.POLAR>
0

>  <SCORE.INTRA.POLAR.0>
0

>  <SCORE.INTRA.REPUL>
0

>  <SCORE.INTRA.REPUL.0>
0

>  <SCORE.INTRA.SOLV>
0.314318

>  <SCORE.INTRA.SOLV.lig_0>
-38.4926

>  <SCORE.INTRA.VDW>
-1.06507

>  <SCORE.INTRA.VDW.0>
-0.59057

>  <SCORE.INTRA.norm>
-0.180401

>  <SCORE.RESTR>
0

>  <SCORE.RESTR.CAVITY>
0

>  <SCORE.RESTR.norm>
0

>  <SCORE.SYSTEM>
0

>  <SCORE.SYSTEM.CONST>
0

>  <SCORE.SYSTEM.DIHEDRAL>
0

>  <SCORE.SYSTEM.SOLV>
0

>  <SCORE.SYSTEM.norm>
0

>  <SCORE.heavy>
19

>  <SCORE.norm>
-0.783018

>  <RMSD>
7.412

$$$$
ligand
 OpenBabel11021811483D
libRbt.so/2013.1/901 2013/11/27
 19 21  0  0  0  0  0  0  0  0999 V2000
  -10.8240   -4.1159    8.7930 C   0  0  0  0  0  0  0  0  0  0  0  0
  -12.1146   -4.0240    9.4144 O   0  0  0  0  0  0  0  0  0  0  0  0
   -9.7485   -4.4155    9.8395 C   0  0  1  0  0  0  0  0  0  0  0  0
   -9.9551   -5.7154   10.4248 O   0  0  0  0  0  0  0  0  0  0  0  0
   -8.3646   -4.4209    9.2143 C   0  0  1  0  0  0  0  0  0  0  0  0
   -7.6467   -3.2234    9.5368 O   0  0  0  0  0  0  0  0  0  0  0  0
   -7.6595   -5.6317    9.7859 C   0  0  0  0  0  0  0  0  0  0  0  0
   -8.7486   -6.4923   10.4096 C   0  0  2  0  0  0  0  0  0  0  0  0
  -11.6887   -8.8215    6.7322 N   0  0  0  0  0  0  0  0  0  0  0  0
  -11.7908   -7.5754    7.2680 C   0  0  1  0  0  0  0  0  0  0  0  0
  -12.7771   -6.7529    6.8383 N   0  0  0  0  0  0  0  0  0  0  0  0
  -10.9294   -7.1388    8.2268 N   0  0  0  0  0  0  0  0  0  0  0  0
   -9.9228   -7.9257    8.6950 C   0  0  2  0  0  0  0  0  0  0  0  0
   -9.7709   -9.2033    8.1873 C   0  0  1  0  0  0  0  0  0  0  0  0
  -10.7164   -9.6667    7.1400 C   0  0  0  0  0  0  0  0  0  0  0  0
  -10.6162  -10.8120    6.6456 O   0  0  0  0  0  0  0  0  0  0  0  0
   -8.7153   -9.7659    8.8010 N   0  0  0  0  0  0  0  0  0  0  0  0
   -8.2243   -8.8589    9.6777 C   0  0  0  0  0  0  0  0  0  0  0  0
   -8.9630   -7.7361    9.6126 N   0  0  1  0  0  0  0  0  0  0  0  0
  1  2  1  0  0  0  0
  3  1  1  6  0  0  0
  3  4  1  0  0  0  0
  3  5  1  0  0  0  0
  5  6  1  1  0  0  0
  5  7  1  0  0  0  0
  7  8  1  0  0  0  0
  8  4  1  6  0  0  0
  8 19  1  0  0  0  0
  9 15  1  0  0  0  0
  9 10  1  0  0  0  0
 10 11  1  1  0  0  0
 10 12  1  0  0  0  0
 13 12  1  1  0  0  0
 13 14  1  0  0  0  0
 13 19  1  0  0  0  0
 14 15  1  6  0  0  0
 14 17  1  0  0  0  0
 15 16  2  0  0  0  0
 17 18  1  0  0  0  0
 19 18  1  6  0  0  0
M  END
>  <CHROM.1>
65.01391079,20.56933530,-9.96689420,-6.88825332,8.71297498,1.28481991,-0.49287365
0.28176060

>  <Name>
ligand

>  <RI>
0

>  <Rbt.Current_Directory>
/home/itssahil/PROJECTS/Mol_Feturizer/New_Systems/rnas/3SKI

>  <Rbt.Executable>
rbdock ($Id: //depot/dev/client3/rdock/2013.1/src/exe/rbdock.cxx#4 $)

>  <Rbt.Library>
libRbt.so (2013.1, Build901 2013/11/27)

>  <Rbt.Parameter_File>
/export/apps/rDock/src/rDock_2013.1_src/data/scripts/dock_solv.prm

>  <Rbt.Receptor>
prm/pocket_docking_6.prm

>  <SCORE>
-14.9729

>  <SCORE.INTER>
-12.0265

>  <SCORE.INTER.CONST>
1

>  <SCORE.INTER.POLAR>
0

>  <SCORE.INTER.ROT>
2

>  <SCORE.INTER.SOLV>
11.3528

>  <SCORE.INTER.VDW>
-16.7353

>  <SCORE.INTER.norm>
-0.632975

>  <SCORE.INTRA>
-2.94636

>  <SCORE.INTRA.DIHEDRAL>
-4.98977

>  <SCORE.INTRA.DIHEDRAL.0>
6.26853

>  <SCORE.INTRA.POLAR>
0

>  <SCORE.INTRA.POLAR.0>
0

>  <SCORE.INTRA.REPUL>
0

>  <SCORE.INTRA.REPUL.0>
0

>  <SCORE.INTRA.SOLV>
1.50167

>  <SCORE.INTRA.SOLV.lig_0>
-38.4926

>  <SCORE.INTRA.VDW>
-1.20231

>  <SCORE.INTRA.VDW.0>
-0.59057

>  <SCORE.INTRA.norm>
-0.155071

>  <SCORE.RESTR>
0

>  <SCORE.RESTR.CAVITY>
0

>  <SCORE.RESTR.norm>
0

>  <SCORE.SYSTEM>
0

>  <SCORE.SYSTEM.CONST>
0

>  <SCORE.SYSTEM.DIHEDRAL>
0

>  <SCORE.SYSTEM.SOLV>
0

>  <SCORE.SYSTEM.norm>
0

>  <SCORE.heavy>
19

>  <SCORE.norm>
-0.788047

>  <RMSD>
7.416

$$$$
ligand
 OpenBabel11021811483D
libRbt.so/2013.1/901 2013/11/27
 19 21  0  0  0  0  0  0  0  0999 V2000
   -9.2684   -6.3452   10.7348 C   0  0  0  0  0  0  0  0  0  0  0  0
   -8.5620   -5.1359   11.0489 O   0  0  0  0  0  0  0  0  0  0  0  0
   -8.2971   -7.4138   10.2281 C   0  0  1  0  0  0  0  0  0  0  0  0
   -8.9996   -8.6295    9.9064 O   0  0  0  0  0  0  0  0  0  0  0  0
   -7.5926   -6.9557    8.9633 C   0  0  1  0  0  0  0  0  0  0  0  0
   -6.2425   -6.5612    9.2372 O   0  0  0  0  0  0  0  0  0  0  0  0
   -7.6178   -8.1430    8.0253 C   0  0  0  0  0  0  0  0  0  0  0  0
   -8.6463   -9.1062    8.5997 C   0  0  2  0  0  0  0  0  0  0  0  0
  -12.7766   -6.4164    6.7834 N   0  0  0  0  0  0  0  0  0  0  0  0
  -11.7858   -6.0241    7.6288 C   0  0  1  0  0  0  0  0  0  0  0  0
  -11.8002   -4.7618    8.1191 N   0  0  0  0  0  0  0  0  0  0  0  0
  -10.7852   -6.8703    7.9959 N   0  0  0  0  0  0  0  0  0  0  0  0
  -10.7251   -8.1489    7.5342 C   0  0  2  0  0  0  0  0  0  0  0  0
  -11.7064   -8.6035    6.6719 C   0  0  1  0  0  0  0  0  0  0  0  0
  -12.7916   -7.6694    6.2776 C   0  0  0  0  0  0  0  0  0  0  0  0
  -13.6987   -8.0322    5.4955 O   0  0  0  0  0  0  0  0  0  0  0  0
  -11.4202   -9.8797    6.3609 N   0  0  0  0  0  0  0  0  0  0  0  0
  -10.2872  -10.2144    7.0215 C   0  0  0  0  0  0  0  0  0  0  0  0
   -9.8643   -9.1571    7.7382 N   0  0  1  0  0  0  0  0  0  0  0  0
  1  2  1  0  0  0  0
  3  1  1  6  0  0  0
  3  4  1  0  0  0  0
  3  5  1  0  0  0  0
  5  6  1  1  0  0  0
  5  7  1  0  0  0  0
  7  8  1  0  0  0  0
  8  4  1  1  0  0  0
  8 19  1  0  0  0  0
  9 15  1  0  0  0  0
  9 10  1  0  0  0  0
 10 11  1  1  0  0  0
 10 12  1  0  0  0  0
 13 12  1  1  0  0  0
 13 14  1  0  0  0  0
 13 19  1  0  0  0  0
 14 15  1  6  0  0  0
 14 17  1  0  0  0  0
 15 16  2  0  0  0  0
 17 18  1  0  0  0  0
 19 18  1  6  0  0  0
M  END
>  <CHROM.1>
-179.80693327,52.37774023,-10.09939975,-7.54369185,8.17832659,0.45367715
-0.50674811,0.47784349

>  <Name>
ligand

>  <RI>
0

>  <Rbt.Current_Directory>
/home/itssahil/PROJECTS/Mol_Feturizer/New_Systems/rnas/3SKI

>  <Rbt.Executable>
rbdock ($Id: //depot/dev/client3/rdock/2013.1/src/exe/rbdock.cxx#4 $)

>  <Rbt.Library>
libRbt.so (2013.1, Build901 2013/11/27)

>  <Rbt.Parameter_File>
/export/apps/rDock/src/rDock_2013.1_src/data/scripts/dock_solv.prm

>  <Rbt.Receptor>
prm/pocket_docking_7.prm

>  <SCORE>
-16.1907

>  <SCORE.INTER>
-12.8308

>  <SCORE.INTER.CONST>
1

>  <SCORE.INTER.POLAR>
0

>  <SCORE.INTER.ROT>
2

>  <SCORE.INTER.SOLV>
8.68049

>  <SCORE.INTER.VDW>
-16.3807

>  <SCORE.INTER.norm>
-0.675303

>  <SCORE.INTRA>
-3.35992

>  <SCORE.INTRA.DIHEDRAL>
-5.07293

>  <SCORE.INTRA.DIHEDRAL.0>
6.26853

>  <SCORE.INTRA.POLAR>
0

>  <SCORE.INTRA.POLAR.0>
0

>  <SCORE.INTRA.REPUL>
0

>  <SCORE.INTRA.REPUL.0>
0

>  <SCORE.INTRA.SOLV>
0.923374

>  <SCORE.INTRA.SOLV.lig_0>
-38.4926

>  <SCORE.INTRA.VDW>
-1.28514

>  <SCORE.INTRA.VDW.0>
-0.59057

>  <SCORE.INTRA.norm>
-0.176838

>  <SCORE.RESTR>
0

>  <SCORE.RESTR.CAVITY>
0

>  <SCORE.RESTR.norm>
0

>  <SCORE.SYSTEM>
0

>  <SCORE.SYSTEM.CONST>
0

>  <SCORE.SYSTEM.DIHEDRAL>
0

>  <SCORE.SYSTEM.SOLV>
0

>  <SCORE.SYSTEM.norm>
0

>  <SCORE.heavy>
19

>  <SCORE.norm>
-0.852141

>  <RMSD>
7.438

$$$$
ligand
 OpenBabel11021811483D
libRbt.so/2013.1/901 2013/11/27
 19 21  0  0  0  0  0  0  0  0999 V2000
   -9.2638   -6.3140   10.6996 C   0  0  0  0  0  0  0  0  0  0  0  0
   -8.5428   -5.1149   11.0200 O   0  0  0  0  0  0  0  0  0  0  0  0
   -8.3028   -7.3989   10.2084 C   0  0  1  0  0  0  0  0  0  0  0  0
   -9.0153   -8.6159    9.9149 O   0  0  0  0  0  0  0  0  0  0  0  0
   -7.6030   -6.9706    8.9305 C   0  0  1  0  0  0  0  0  0  0  0  0
   -6.2486   -6.5799    9.1886 O   0  0  0  0  0  0  0  0  0  0  0  0
   -7.6418   -8.1759    8.0163 C   0  0  0  0  0  0  0  0  0  0  0  0
   -8.6731   -9.1206    8.6158 C   0  0  2  0  0  0  0  0  0  0  0  0
  -12.7888   -6.4353    6.7603 N   0  0  0  0  0  0  0  0  0  0  0  0
  -11.7894   -6.0326    7.5905 C   0  0  1  0  0  0  0  0  0  0  0  0
  -11.7891   -4.7591    8.0510 N   0  0  0  0  0  0  0  0  0  0  0  0
  -10.7946   -6.8794    7.9717 N   0  0  0  0  0  0  0  0  0  0  0  0
  -10.7492   -8.1690    7.5399 C   0  0  2  0  0  0  0  0  0  0  0  0
  -11.7398   -8.6345    6.6942 C   0  0  1  0  0  0  0  0  0  0  0  0
  -12.8185   -7.6997    6.2842 C   0  0  0  0  0  0  0  0  0  0  0  0
  -13.7336   -8.0721    5.5161 O   0  0  0  0  0  0  0  0  0  0  0  0
  -11.4674   -9.9203    6.4117 N   0  0  0  0  0  0  0  0  0  0  0  0
  -10.3336  -10.2501    7.0736 C   0  0  0  0  0  0  0  0  0  0  0  0
   -9.8967   -9.1802    7.7626 N   0  0  1  0  0  0  0  0  0  0  0  0
  1  2  1  0  0  0  0
  3  1  1  6  0  0  0
  3  4  1  0  0  0  0
  3  5  1  0  0  0  0
  5  6  1  1  0  0  0
  5  7  1  0  0  0  0
  7  8  1  0  0  0  0
  8  4  1  1  0  0  0
  8 19  1  0  0  0  0
  9 15  1  0  0  0  0
  9 10  1  0  0  0  0
 10 11  1  1  0  0  0
 10 12  1  0  0  0  0
 13 12  1  1  0  0  0
 13 14  1  0  0  0  0
 13 19  1  0  0  0  0
 14 15  1  6  0  0  0
 14 17  1  0  0  0  0
 15 16  2  0  0  0  0
 17 18  1  0  0  0  0
 19 18  1  6  0  0  0
M  END
>  <CHROM.1>
178.63801784,52.64607190,-10.11587852,-7.55652438,8.17124152,0.44408217,-0.50750987
0.45238896

>  <Name>
ligand

>  <RI>
0

>  <Rbt.Current_Directory>
/home/itssahil/PROJECTS/Mol_Feturizer/New_Systems/rnas/3SKI

>  <Rbt.Executable>
rbdock ($Id: //depot/dev/client3/rdock/2013.1/src/exe/rbdock.cxx#4 $)

>  <Rbt.Library>
libRbt.so (2013.1, Build901 2013/11/27)

>  <Rbt.Parameter_File>
/export/apps/rDock/src/rDock_2013.1_src/data/scripts/dock_solv.prm

>  <Rbt.Receptor>
prm/pocket_docking_8.prm

>  <SCORE>
-16.1221

>  <SCORE.INTER>
-12.7474

>  <SCORE.INTER.CONST>
1

>  <SCORE.INTER.POLAR>
0

>  <SCORE.INTER.ROT>
2

>  <SCORE.INTER.SOLV>
8.73138

>  <SCORE.INTER.VDW>
-16.342

>  <SCORE.INTER.norm>
-0.670914

>  <SCORE.INTRA>
-3.37472

>  <SCORE.INTRA.DIHEDRAL>
-5.06667

>  <SCORE.INTRA.DIHEDRAL.0>
6.26853

>  <SCORE.INTRA.POLAR>
0

>  <SCORE.INTRA.POLAR.0>
0

>  <SCORE.INTRA.REPUL>
0

>  <SCORE.INTRA.REPUL.0>
0

>  <SCORE.INTRA.SOLV>
0.907851

>  <SCORE.INTRA.SOLV.lig_0>
-38.4926

>  <SCORE.INTRA.VDW>
-1.29531

>  <SCORE.INTRA.VDW.0>
-0.59057

>  <SCORE.INTRA.norm>
-0.177617

>  <SCORE.RESTR>
0

>  <SCORE.RESTR.CAVITY>
0

>  <SCORE.RESTR.norm>
0

>  <SCORE.SYSTEM>
0

>  <SCORE.SYSTEM.CONST>
0

>  <SCORE.SYSTEM.DIHEDRAL>
0

>  <SCORE.SYSTEM.SOLV>
0

>  <SCORE.SYSTEM.norm>
0

>  <SCORE.heavy>
19

>  <SCORE.norm>
-0.848531

>  <RMSD>
7.463

$$$$
ligand
 OpenBabel11021811483D
libRbt.so/2013.1/901 2013/11/27
 19 21  0  0  0  0  0  0  0  0999 V2000
   -7.2220   -5.4477   10.0952 C   0  0  0  0  0  0  0  0  0  0  0  0
   -6.2763   -4.7736    9.2516 O   0  0  0  0  0  0  0  0  0  0  0  0
   -7.5966   -6.8056    9.4973 C   0  0  1  0  0  0  0  0  0  0  0  0
   -6.4290   -7.6357    9.3470 O   0  0  0  0  0  0  0  0  0  0  0  0
   -8.5631   -7.5519   10.4001 C   0  0  1  0  0  0  0  0  0  0  0  0
   -9.8972   -7.5073    9.8787 O   0  0  0  0  0  0  0  0  0  0  0  0
   -8.0612   -8.9786   10.4503 C   0  0  0  0  0  0  0  0  0  0  0  0
   -6.6400   -8.9397    9.9078 C   0  0  2  0  0  0  0  0  0  0  0  0
   -2.4631  -11.7483   11.4104 N   0  0  0  0  0  0  0  0  0  0  0  0
   -3.1753  -11.7990   10.2527 C   0  0  1  0  0  0  0  0  0  0  0  0
   -2.8123  -12.6847    9.2947 N   0  0  0  0  0  0  0  0  0  0  0  0
   -4.2446  -10.9851   10.0373 N   0  0  0  0  0  0  0  0  0  0  0  0
   -4.6523  -10.0796   10.9675 C   0  0  2  0  0  0  0  0  0  0  0  0
   -3.9662   -9.9840   12.1647 C   0  0  1  0  0  0  0  0  0  0  0  0
   -2.8001  -10.8765   12.3864 C   0  0  0  0  0  0  0  0  0  0  0  0
   -2.1439  -10.8235   13.4506 O   0  0  0  0  0  0  0  0  0  0  0  0
   -4.5550   -9.0245   12.8995 N   0  0  0  0  0  0  0  0  0  0  0  0
   -5.5907   -8.5375   12.1768 C   0  0  0  0  0  0  0  0  0  0  0  0
   -5.6495   -9.1831   10.9978 N   0  0  1  0  0  0  0  0  0  0  0  0
  1  2  1  0  0  0  0
  3  1  1  1  0  0  0
  3  4  1  0  0  0  0
  3  5  1  0  0  0  0
  5  6  1  6  0  0  0
  5  7  1  0  0  0  0
  7  8  1  0  0  0  0
  8  4  1  1  0  0  0
  8 19  1  0  0  0  0
  9 15  1  0  0  0  0
  9 10  1  0  0  0  0
 10 11  1  1  0  0  0
 10 12  1  0  0  0  0
 13 12  1  1  0  0  0
 13 14  1  0  0  0  0
 13 19  1  0  0  0  0
 14 15  1  6  0  0  0
 14 17  1  0  0  0  0
 15 16  2  0  0  0  0
 17 18  1  0  0  0  0
 19 18  1  6  0  0  0
M  END
>  <CHROM.1>
59.26831896,-112.52352930,-5.45888659,-9.05250812,10.75196449,-2.70242227
0.66636789,-2.57325174

>  <Name>
ligand

>  <RI>
0

>  <Rbt.Current_Directory>
/home/itssahil/PROJECTS/Mol_Feturizer/New_Systems/rnas/3SKI

>  <Rbt.Executable>
rbdock ($Id: //depot/dev/client3/rdock/2013.1/src/exe/rbdock.cxx#4 $)

>  <Rbt.Library>
libRbt.so (2013.1, Build901 2013/11/27)

>  <Rbt.Parameter_File>
/export/apps/rDock/src/rDock_2013.1_src/data/scripts/dock_solv.prm

>  <Rbt.Receptor>
prm/blind_docking_80.prm

>  <SCORE>
-15.2108

>  <SCORE.INTER>
-12.1684

>  <SCORE.INTER.CONST>
1

>  <SCORE.INTER.POLAR>
0

>  <SCORE.INTER.ROT>
2

>  <SCORE.INTER.SOLV>
10.5934

>  <SCORE.INTER.VDW>
-16.5767

>  <SCORE.INTER.norm>
-0.640443

>  <SCORE.INTRA>
-3.04244

>  <SCORE.INTRA.DIHEDRAL>
-5.07079

>  <SCORE.INTRA.DIHEDRAL.0>
6.26853

>  <SCORE.INTRA.POLAR>
0

>  <SCORE.INTRA.POLAR.0>
0

>  <SCORE.INTRA.REPUL>
0

>  <SCORE.INTRA.REPUL.0>
0

>  <SCORE.INTRA.SOLV>
-0.230021

>  <SCORE.INTRA.SOLV.lig_0>
-38.4926

>  <SCORE.INTRA.VDW>
-0.39203

>  <SCORE.INTRA.VDW.0>
-0.59057

>  <SCORE.INTRA.norm>
-0.160128

>  <SCORE.RESTR>
0

>  <SCORE.RESTR.CAVITY>
0

>  <SCORE.RESTR.norm>
0

>  <SCORE.SYSTEM>
0

>  <SCORE.SYSTEM.CONST>
0

>  <SCORE.SYSTEM.DIHEDRAL>
0

>  <SCORE.SYSTEM.SOLV>
0

>  <SCORE.SYSTEM.norm>
0

>  <SCORE.heavy>
19

>  <SCORE.norm>
-0.800571

>  <RMSD>
7.557

$$$$
ligand
 OpenBabel11021811483D
libRbt.so/2013.1/901 2013/11/27
 19 21  0  0  0  0  0  0  0  0999 V2000
   -7.7860   -5.7727   11.1664 C   0  0  0  0  0  0  0  0  0  0  0  0
   -7.2592   -6.2907   12.3970 O   0  0  0  0  0  0  0  0  0  0  0  0
   -7.7443   -6.8450   10.0754 C   0  0  1  0  0  0  0  0  0  0  0  0
   -6.4019   -7.3348    9.8935 O   0  0  0  0  0  0  0  0  0  0  0  0
   -8.6091   -8.0365   10.4473 C   0  0  1  0  0  0  0  0  0  0  0  0
   -9.8377   -8.0341    9.7098 O   0  0  0  0  0  0  0  0  0  0  0  0
   -7.7892   -9.2621   10.1073 C   0  0  0  0  0  0  0  0  0  0  0  0
   -6.3623   -8.7692    9.9164 C   0  0  2  0  0  0  0  0  0  0  0  0
   -2.3612  -11.8867   11.2822 N   0  0  0  0  0  0  0  0  0  0  0  0
   -2.9515  -11.7089   10.0697 C   0  0  1  0  0  0  0  0  0  0  0  0
   -2.4927  -12.4090    9.0051 N   0  0  0  0  0  0  0  0  0  0  0  0
   -3.9930  -10.8488    9.9032 N   0  0  0  0  0  0  0  0  0  0  0  0
   -4.4935  -10.1233   10.9398 C   0  0  2  0  0  0  0  0  0  0  0  0
   -3.9331  -10.2637   12.1966 C   0  0  1  0  0  0  0  0  0  0  0  0
   -2.7959  -11.2041   12.3644 C   0  0  0  0  0  0  0  0  0  0  0  0
   -2.2519  -11.3613   13.4803 O   0  0  0  0  0  0  0  0  0  0  0  0
   -4.5937   -9.4455   13.0341 N   0  0  0  0  0  0  0  0  0  0  0  0
   -5.5501   -8.8136   12.3143 C   0  0  0  0  0  0  0  0  0  0  0  0
   -5.4883   -9.2289   11.0360 N   0  0  1  0  0  0  0  0  0  0  0  0
  1  2  1  0  0  0  0
  3  1  1  1  0  0  0
  3  4  1  0  0  0  0
  3  5  1  0  0  0  0
  5  6  1  6  0  0  0
  5  7  1  0  0  0  0
  7  8  1  0  0  0  0
  8  4  1  1  0  0  0
  8 19  1  0  0  0  0
  9 15  1  0  0  0  0
  9 10  1  0  0  0  0
 10 11  1  1  0  0  0
 10 12  1  0  0  0  0
 13 12  1  1  0  0  0
 13 14  1  0  0  0  0
 13 19  1  0  0  0  0
 14 15  1  6  0  0  0
 14 17  1  0  0  0  0
 15 16  2  0  0  0  0
 17 18  1  0  0  0  0
 19 18  1  6  0  0  0
M  END
>  <CHROM.1>
-56.82454216,-129.84167644,-5.46807166,-9.29137435,11.01705370,-2.91241727
0.64848855,-2.12413522

>  <Name>
ligand

>  <RI>
0

>  <Rbt.Current_Directory>
/home/itssahil/PROJECTS/Mol_Feturizer/New_Systems/rnas/3SKI

>  <Rbt.Executable>
rbdock ($Id: //depot/dev/client3/rdock/2013.1/src/exe/rbdock.cxx#4 $)

>  <Rbt.Library>
libRbt.so (2013.1, Build901 2013/11/27)

>  <Rbt.Parameter_File>
/export/apps/rDock/src/rDock_2013.1_src/data/scripts/dock_solv.prm

>  <Rbt.Receptor>
prm/blind_docking_80.prm

>  <SCORE>
-15.023

>  <SCORE.INTER>
-11.9343

>  <SCORE.INTER.CONST>
1

>  <SCORE.INTER.POLAR>
0

>  <SCORE.INTER.ROT>
2

>  <SCORE.INTER.SOLV>
9.78698

>  <SCORE.INTER.VDW>
-16.1519

>  <SCORE.INTER.norm>
-0.628122

>  <SCORE.INTRA>
-3.08872

>  <SCORE.INTRA.DIHEDRAL>
-5.01868

>  <SCORE.INTRA.DIHEDRAL.0>
6.26853

>  <SCORE.INTRA.POLAR>
0

>  <SCORE.INTRA.POLAR.0>
0

>  <SCORE.INTRA.REPUL>
0

>  <SCORE.INTRA.REPUL.0>
0

>  <SCORE.INTRA.SOLV>
0.294011

>  <SCORE.INTRA.SOLV.lig_0>
-38.4926

>  <SCORE.INTRA.VDW>
-0.72639

>  <SCORE.INTRA.VDW.0>
-0.59057

>  <SCORE.INTRA.norm>
-0.162564

>  <SCORE.RESTR>
0

>  <SCORE.RESTR.CAVITY>
0

>  <SCORE.RESTR.norm>
0

>  <SCORE.SYSTEM>
0

>  <SCORE.SYSTEM.CONST>
0

>  <SCORE.SYSTEM.DIHEDRAL>
0

>  <SCORE.SYSTEM.SOLV>
0

>  <SCORE.SYSTEM.norm>
0

>  <SCORE.heavy>
19

>  <SCORE.norm>
-0.790686

>  <RMSD>
7.585

$$$$
ligand
 OpenBabel11021811483D
libRbt.so/2013.1/901 2013/11/27
 19 21  0  0  0  0  0  0  0  0999 V2000
   -7.2337   -9.9479   10.6412 C   0  0  0  0  0  0  0  0  0  0  0  0
   -8.4612  -10.6478   10.3891 O   0  0  0  0  0  0  0  0  0  0  0  0
   -7.2947   -8.5360   10.0541 C   0  0  1  0  0  0  0  0  0  0  0  0
   -7.5028   -8.5852    8.6296 O   0  0  0  0  0  0  0  0  0  0  0  0
   -8.4481   -7.7469   10.6480 C   0  0  1  0  0  0  0  0  0  0  0  0
   -7.9811   -6.7942   11.6113 O   0  0  0  0  0  0  0  0  0  0  0  0
   -9.1079   -7.0422    9.4826 C   0  0  0  0  0  0  0  0  0  0  0  0
   -8.5799   -7.7253    8.2295 C   0  0  2  0  0  0  0  0  0  0  0  0
  -13.4283   -7.6578    6.2092 N   0  0  0  0  0  0  0  0  0  0  0  0
  -12.7067   -6.6527    6.7743 C   0  0  1  0  0  0  0  0  0  0  0  0
  -13.2567   -5.4186    6.8662 N   0  0  0  0  0  0  0  0  0  0  0  0
  -11.4494   -6.8593    7.2524 N   0  0  0  0  0  0  0  0  0  0  0  0
  -10.8515   -8.0799    7.1868 C   0  0  2  0  0  0  0  0  0  0  0  0
  -11.5381   -9.1401    6.6230 C   0  0  1  0  0  0  0  0  0  0  0  0
  -12.9086   -8.9007    6.1034 C   0  0  0  0  0  0  0  0  0  0  0  0
  -13.5676   -9.8266    5.5793 O   0  0  0  0  0  0  0  0  0  0  0  0
  -10.7383  -10.2195    6.6723 N   0  0  0  0  0  0  0  0  0  0  0  0
   -9.5799   -9.8402    7.2609 C   0  0  0  0  0  0  0  0  0  0  0  0
   -9.6507   -8.5339    7.5753 N   0  0  1  0  0  0  0  0  0  0  0  0
  1  2  1  0  0  0  0
  3  1  1  1  0  0  0
  3  4  1  0  0  0  0
  3  5  1  0  0  0  0
  5  6  1  1  0  0  0
  5  7  1  0  0  0  0
  7  8  1  0  0  0  0
  8  4  1  1  0  0  0
  8 19  1  0  0  0  0
  9 15  1  0  0  0  0
  9 10  1  0  0  0  0
 10 11  1  1  0  0  0
 10 12  1  0  0  0  0
 13 12  1  1  0  0  0
 13 14  1  0  0  0  0
 13 19  1  0  0  0  0
 14 15  1  6  0  0  0
 14 17  1  0  0  0  0
 15 16  2  0  0  0  0
 17 18  1  0  0  0  0
 19 18  1  6  0  0  0
M  END
>  <CHROM.1>
-60.09214837,173.65070002,-10.17404718,-8.33951666,8.15592990,-0.14094355
0.66653372,-2.77965115

>  <Name>
ligand

>  <RI>
0

>  <Rbt.Current_Directory>
/home/itssahil/PROJECTS/Mol_Feturizer/New_Systems/rnas/3SKI

>  <Rbt.Executable>
rbdock ($Id: //depot/dev/client3/rdock/2013.1/src/exe/rbdock.cxx#4 $)

>  <Rbt.Library>
libRbt.so (2013.1, Build901 2013/11/27)

>  <Rbt.Parameter_File>
/export/apps/rDock/src/rDock_2013.1_src/data/scripts/dock_solv.prm

>  <Rbt.Receptor>
prm/blind_docking_80.prm

>  <SCORE>
-17.2325

>  <SCORE.INTER>
-14.3494

>  <SCORE.INTER.CONST>
1

>  <SCORE.INTER.POLAR>
0

>  <SCORE.INTER.ROT>
2

>  <SCORE.INTER.SOLV>
8.66992

>  <SCORE.INTER.VDW>
-17.3896

>  <SCORE.INTER.norm>
-0.755232

>  <SCORE.INTRA>
-2.88308

>  <SCORE.INTRA.DIHEDRAL>
-5.07198

>  <SCORE.INTRA.DIHEDRAL.0>
6.26853

>  <SCORE.INTRA.POLAR>
0

>  <SCORE.INTRA.POLAR.0>
0

>  <SCORE.INTRA.REPUL>
0

>  <SCORE.INTRA.REPUL.0>
0

>  <SCORE.INTRA.SOLV>
0.248203

>  <SCORE.INTRA.SOLV.lig_0>
-38.4926

>  <SCORE.INTRA.VDW>
-0.471191

>  <SCORE.INTRA.VDW.0>
-0.59057

>  <SCORE.INTRA.norm>
-0.151741

>  <SCORE.RESTR>
0

>  <SCORE.RESTR.CAVITY>
0

>  <SCORE.RESTR.norm>
0

>  <SCORE.SYSTEM>
0

>  <SCORE.SYSTEM.CONST>
0

>  <SCORE.SYSTEM.DIHEDRAL>
0

>  <SCORE.SYSTEM.SOLV>
0

>  <SCORE.SYSTEM.norm>
0

>  <SCORE.heavy>
19

>  <SCORE.norm>
-0.906973

>  <RMSD>
7.892

$$$$
ligand
 OpenBabel11021811483D
libRbt.so/2013.1/901 2013/11/27
 19 21  0  0  0  0  0  0  0  0999 V2000
   -7.2151   -9.8843   10.5892 C   0  0  0  0  0  0  0  0  0  0  0  0
   -8.4361  -10.6051   10.3657 O   0  0  0  0  0  0  0  0  0  0  0  0
   -7.3166   -8.4713   10.0105 C   0  0  1  0  0  0  0  0  0  0  0  0
   -7.5307   -8.5179    8.5868 O   0  0  0  0  0  0  0  0  0  0  0  0
   -8.4874   -7.7164   10.6148 C   0  0  1  0  0  0  0  0  0  0  0  0
   -8.0409   -6.7572   11.5813 O   0  0  0  0  0  0  0  0  0  0  0  0
   -9.1717   -7.0230    9.4569 C   0  0  0  0  0  0  0  0  0  0  0  0
   -8.6323   -7.6847    8.1972 C   0  0  2  0  0  0  0  0  0  0  0  0
  -13.4547   -7.7124    6.1148 N   0  0  0  0  0  0  0  0  0  0  0  0
  -12.7528   -6.6888    6.6714 C   0  0  1  0  0  0  0  0  0  0  0  0
  -13.3190   -5.4603    6.7348 N   0  0  0  0  0  0  0  0  0  0  0  0
  -11.4993   -6.8715    7.1689 N   0  0  0  0  0  0  0  0  0  0  0  0
  -10.8858   -8.0855    7.1322 C   0  0  2  0  0  0  0  0  0  0  0  0
  -11.5521   -9.1637    6.5783 C   0  0  1  0  0  0  0  0  0  0  0  0
  -12.9186   -8.9504    6.0373 C   0  0  0  0  0  0  0  0  0  0  0  0
  -13.5594   -9.8933    5.5212 O   0  0  0  0  0  0  0  0  0  0  0  0
  -10.7399  -10.2321    6.6566 N   0  0  0  0  0  0  0  0  0  0  0  0
   -9.5939   -9.8283    7.2530 C   0  0  0  0  0  0  0  0  0  0  0  0
   -9.6846   -8.5177    7.5437 N   0  0  1  0  0  0  0  0  0  0  0  0
  1  2  1  0  0  0  0
  3  1  1  1  0  0  0
  3  4  1  0  0  0  0
  3  5  1  0  0  0  0
  5  6  1  1  0  0  0
  5  7  1  0  0  0  0
  7  8  1  0  0  0  0
  8  4  1  1  0  0  0
  8 19  1  0  0  0  0
  9 15  1  0  0  0  0
  9 10  1  0  0  0  0
 10 11  1  1  0  0  0
 10 12  1  0  0  0  0
 13 12  1  1  0  0  0
 13 14  1  0  0  0  0
 13 19  1  0  0  0  0
 14 15  1  6  0  0  0
 14 17  1  0  0  0  0
 15 16  2  0  0  0  0
 17 18  1  0  0  0  0
 19 18  1  6  0  0  0
M  END
>  <CHROM.1>
-61.38746955,175.51178011,-10.20025650,-8.33377859,8.10504682,-0.15419330
0.66808929,-2.78135278

>  <Name>
ligand

>  <RI>
0

>  <Rbt.Current_Directory>
/home/itssahil/PROJECTS/Mol_Feturizer/New_Systems/rnas/3SKI

>  <Rbt.Executable>
rbdock ($Id: //depot/dev/client3/rdock/2013.1/src/exe/rbdock.cxx#4 $)

>  <Rbt.Library>
libRbt.so (2013.1, Build901 2013/11/27)

>  <Rbt.Parameter_File>
/export/apps/rDock/src/rDock_2013.1_src/data/scripts/dock_solv.prm

>  <Rbt.Receptor>
prm/pocket_docking_8.prm

>  <SCORE>
-17.3425

>  <SCORE.INTER>
-14.4694

>  <SCORE.INTER.CONST>
1

>  <SCORE.INTER.POLAR>
0

>  <SCORE.INTER.ROT>
2

>  <SCORE.INTER.SOLV>
8.71996

>  <SCORE.INTER.VDW>
-17.4862

>  <SCORE.INTER.norm>
-0.761547

>  <SCORE.INTRA>
-2.87316

>  <SCORE.INTRA.DIHEDRAL>
-5.06378

>  <SCORE.INTRA.DIHEDRAL.0>
6.26853

>  <SCORE.INTRA.POLAR>
0

>  <SCORE.INTRA.POLAR.0>
0

>  <SCORE.INTRA.REPUL>
0

>  <SCORE.INTRA.REPUL.0>
0

>  <SCORE.INTRA.SOLV>
0.252132

>  <SCORE.INTRA.SOLV.lig_0>
-38.4926

>  <SCORE.INTRA.VDW>
-0.467331

>  <SCORE.INTRA.VDW.0>
-0.59057

>  <SCORE.INTRA.norm>
-0.151219

>  <SCORE.RESTR>
0

>  <SCORE.RESTR.CAVITY>
0

>  <SCORE.RESTR.norm>
0

>  <SCORE.SYSTEM>
0

>  <SCORE.SYSTEM.CONST>
0

>  <SCORE.SYSTEM.DIHEDRAL>
0

>  <SCORE.SYSTEM.SOLV>
0

>  <SCORE.SYSTEM.norm>
0

>  <SCORE.heavy>
19

>  <SCORE.norm>
-0.912766

>  <RMSD>
7.929

$$$$
ligand
 OpenBabel11021811483D
libRbt.so/2013.1/901 2013/11/27
 19 21  0  0  0  0  0  0  0  0999 V2000
   -7.2327   -9.8838   10.5875 C   0  0  0  0  0  0  0  0  0  0  0  0
   -8.4353  -10.6195   10.3177 O   0  0  0  0  0  0  0  0  0  0  0  0
   -7.3318   -8.4700   10.0105 C   0  0  1  0  0  0  0  0  0  0  0  0
   -7.5432   -8.5146    8.5863 O   0  0  0  0  0  0  0  0  0  0  0  0
   -8.5033   -7.7149   10.6135 C   0  0  1  0  0  0  0  0  0  0  0  0
   -8.0578   -6.7573   11.5820 O   0  0  0  0  0  0  0  0  0  0  0  0
   -9.1847   -7.0194    9.4551 C   0  0  0  0  0  0  0  0  0  0  0  0
   -8.6434   -7.6799    8.1956 C   0  0  2  0  0  0  0  0  0  0  0  0
  -13.4610   -7.7005    6.1021 N   0  0  0  0  0  0  0  0  0  0  0  0
  -12.7592   -6.6782    6.6612 C   0  0  1  0  0  0  0  0  0  0  0  0
  -13.3242   -5.4490    6.7243 N   0  0  0  0  0  0  0  0  0  0  0  0
  -11.5071   -6.8627    7.1614 N   0  0  0  0  0  0  0  0  0  0  0  0
  -10.8949   -8.0773    7.1251 C   0  0  2  0  0  0  0  0  0  0  0  0
  -11.5610   -9.1543    6.5688 C   0  0  1  0  0  0  0  0  0  0  0  0
  -12.9261   -8.9391    6.0248 C   0  0  0  0  0  0  0  0  0  0  0  0
  -13.5668   -9.8808    5.5064 O   0  0  0  0  0  0  0  0  0  0  0  0
  -10.7502  -10.2237    6.6480 N   0  0  0  0  0  0  0  0  0  0  0  0
   -9.6051   -9.8217    7.2474 C   0  0  0  0  0  0  0  0  0  0  0  0
   -9.6951   -8.5112    7.5389 N   0  0  1  0  0  0  0  0  0  0  0  0
  1  2  1  0  0  0  0
  3  1  1  1  0  0  0
  3  4  1  0  0  0  0
  3  5  1  0  0  0  0
  5  6  1  1  0  0  0
  5  7  1  0  0  0  0
  7  8  1  0  0  0  0
  8  4  1  1  0  0  0
  8 19  1  0  0  0  0
  9 15  1  0  0  0  0
  9 10  1  0  0  0  0
 10 11  1  1  0  0  0
 10 12  1  0  0  0  0
 13 12  1  1  0  0  0
 13 14  1  0  0  0  0
 13 19  1  0  0  0  0
 14 15  1  6  0  0  0
 14 17  1  0  0  0  0
 15 16  2  0  0  0  0
 17 18  1  0  0  0  0
 19 18  1  6  0  0  0
M  END
>  <CHROM.1>
-59.27825009,175.54684750,-10.21033445,-8.32846217,8.09645638,-0.15398561
0.66923659,-2.77912265

>  <Name>
ligand

>  <RI>
0

>  <Rbt.Current_Directory>
/home/itssahil/PROJECTS/Mol_Feturizer/New_Systems/rnas/3SKI

>  <Rbt.Executable>
rbdock ($Id: //depot/dev/client3/rdock/2013.1/src/exe/rbdock.cxx#4 $)

>  <Rbt.Library>
libRbt.so (2013.1, Build901 2013/11/27)

>  <Rbt.Parameter_File>
/export/apps/rDock/src/rDock_2013.1_src/data/scripts/dock_solv.prm

>  <Rbt.Receptor>
prm/pocket_docking_8.prm

>  <SCORE>
-17.3317

>  <SCORE.INTER>
-14.4324

>  <SCORE.INTER.CONST>
1

>  <SCORE.INTER.POLAR>
0

>  <SCORE.INTER.ROT>
2

>  <SCORE.INTER.SOLV>
8.74426

>  <SCORE.INTER.VDW>
-17.4697

>  <SCORE.INTER.norm>
-0.759599

>  <SCORE.INTRA>
-2.89937

>  <SCORE.INTRA.DIHEDRAL>
-5.06807

>  <SCORE.INTRA.DIHEDRAL.0>
6.26853

>  <SCORE.INTRA.POLAR>
0

>  <SCORE.INTRA.POLAR.0>
0

>  <SCORE.INTRA.REPUL>
0

>  <SCORE.INTRA.REPUL.0>
0

>  <SCORE.INTRA.SOLV>
0.251574

>  <SCORE.INTRA.SOLV.lig_0>
-38.4926

>  <SCORE.INTRA.VDW>
-0.491121

>  <SCORE.INTRA.VDW.0>
-0.59057

>  <SCORE.INTRA.norm>
-0.152598

>  <SCORE.RESTR>
0

>  <SCORE.RESTR.CAVITY>
0

>  <SCORE.RESTR.norm>
0

>  <SCORE.SYSTEM>
0

>  <SCORE.SYSTEM.CONST>
0

>  <SCORE.SYSTEM.DIHEDRAL>
0

>  <SCORE.SYSTEM.SOLV>
0

>  <SCORE.SYSTEM.norm>
0

>  <SCORE.heavy>
19

>  <SCORE.norm>
-0.912197

>  <RMSD>
7.931

$$$$
ligand
 OpenBabel11021811483D
libRbt.so/2013.1/901 2013/11/27
 19 21  0  0  0  0  0  0  0  0999 V2000
   -8.1709   -6.8767   10.7544 C   0  0  0  0  0  0  0  0  0  0  0  0
   -8.5448   -5.5111   10.5190 O   0  0  0  0  0  0  0  0  0  0  0  0
   -7.6428   -7.0467   12.1806 C   0  0  1  0  0  0  0  0  0  0  0  0
   -7.3368   -8.4284   12.4493 O   0  0  0  0  0  0  0  0  0  0  0  0
   -6.3627   -6.2563   12.3868 C   0  0  1  0  0  0  0  0  0  0  0  0
   -6.6067   -5.0654   13.1456 O   0  0  0  0  0  0  0  0  0  0  0  0
   -5.4255   -7.1790   13.1354 C   0  0  0  0  0  0  0  0  0  0  0  0
   -6.0225   -8.5728   13.0075 C   0  0  2  0  0  0  0  0  0  0  0  0
   -1.9001  -11.8164   12.7297 N   0  0  0  0  0  0  0  0  0  0  0  0
   -2.4176  -11.1562   13.8005 C   0  0  1  0  0  0  0  0  0  0  0  0
   -1.8337  -11.3083   15.0128 N   0  0  0  0  0  0  0  0  0  0  0  0
   -3.5037  -10.3449   13.6810 N   0  0  0  0  0  0  0  0  0  0  0  0
   -4.1263  -10.1557   12.4860 C   0  0  2  0  0  0  0  0  0  0  0  0
   -3.6434  -10.8010   11.3619 C   0  0  1  0  0  0  0  0  0  0  0  0
   -2.4589  -11.6851   11.5064 C   0  0  0  0  0  0  0  0  0  0  0  0
   -1.9885  -12.2950   10.5200 O   0  0  0  0  0  0  0  0  0  0  0  0
   -4.4259  -10.4581   10.3239 N   0  0  0  0  0  0  0  0  0  0  0  0
   -5.3728   -9.6113   10.7915 C   0  0  0  0  0  0  0  0  0  0  0  0
   -5.1882   -9.4268   12.1115 N   0  0  1  0  0  0  0  0  0  0  0  0
  1  2  1  0  0  0  0
  3  1  1  6  0  0  0
  3  4  1  0  0  0  0
  3  5  1  0  0  0  0
  5  6  1  1  0  0  0
  5  7  1  0  0  0  0
  7  8  1  0  0  0  0
  8  4  1  6  0  0  0
  8 19  1  0  0  0  0
  9 15  1  0  0  0  0
  9 10  1  0  0  0  0
 10 11  1  6  0  0  0
 10 12  1  0  0  0  0
 13 12  1  6  0  0  0
 13 14  1  0  0  0  0
 13 19  1  0  0  0  0
 14 15  1  1  0  0  0
 14 17  1  0  0  0  0
 15 16  2  0  0  0  0
 17 18  1  0  0  0  0
 19 18  1  1  0  0  0
M  END
>  <CHROM.1>
176.73803788,-154.93294389,-4.95998567,-9.07955889,12.19336129,2.87020991
-0.76359567,1.06298626

>  <Name>
ligand

>  <RI>
0

>  <Rbt.Current_Directory>
/home/itssahil/PROJECTS/Mol_Feturizer/New_Systems/rnas/3SKI

>  <Rbt.Executable>
rbdock ($Id: //depot/dev/client3/rdock/2013.1/src/exe/rbdock.cxx#4 $)

>  <Rbt.Library>
libRbt.so (2013.1, Build901 2013/11/27)

>  <Rbt.Parameter_File>
/export/apps/rDock/src/rDock_2013.1_src/data/scripts/dock_solv.prm

>  <Rbt.Receptor>
prm/pocket_docking_8.prm

>  <SCORE>
-15.4766

>  <SCORE.INTER>
-12.4881

>  <SCORE.INTER.CONST>
1

>  <SCORE.INTER.POLAR>
0

>  <SCORE.INTER.ROT>
2

>  <SCORE.INTER.SOLV>
11.234

>  <SCORE.INTER.VDW>
-17.0034

>  <SCORE.INTER.norm>
-0.657267

>  <SCORE.INTRA>
-2.98854

>  <SCORE.INTRA.DIHEDRAL>
-5.01045

>  <SCORE.INTRA.DIHEDRAL.0>
6.26853

>  <SCORE.INTRA.POLAR>
0

>  <SCORE.INTRA.POLAR.0>
0

>  <SCORE.INTRA.REPUL>
0

>  <SCORE.INTRA.REPUL.0>
0

>  <SCORE.INTRA.SOLV>
-0.025172

>  <SCORE.INTRA.SOLV.lig_0>
-38.4926

>  <SCORE.INTRA.VDW>
-0.470724

>  <SCORE.INTRA.VDW.0>
-0.59057

>  <SCORE.INTRA.norm>
-0.157291

>  <SCORE.RESTR>
0

>  <SCORE.RESTR.CAVITY>
0

>  <SCORE.RESTR.norm>
0

>  <SCORE.SYSTEM>
0

>  <SCORE.SYSTEM.CONST>
0

>  <SCORE.SYSTEM.DIHEDRAL>
0

>  <SCORE.SYSTEM.SOLV>
0

>  <SCORE.SYSTEM.norm>
0

>  <SCORE.heavy>
19

>  <SCORE.norm>
-0.814558

>  <RMSD>
7.939

$$$$
ligand
 OpenBabel11021811483D
libRbt.so/2013.1/901 2013/11/27
 19 21  0  0  0  0  0  0  0  0999 V2000
   -7.2225   -9.8401   10.5801 C   0  0  0  0  0  0  0  0  0  0  0  0
   -8.4299  -10.5823   10.3528 O   0  0  0  0  0  0  0  0  0  0  0  0
   -7.3456   -8.4303    9.9977 C   0  0  1  0  0  0  0  0  0  0  0  0
   -7.5838   -8.4845    8.5781 O   0  0  0  0  0  0  0  0  0  0  0  0
   -8.5121   -7.6827   10.6191 C   0  0  1  0  0  0  0  0  0  0  0  0
   -8.0570   -6.7159   11.5740 O   0  0  0  0  0  0  0  0  0  0  0  0
   -9.2219   -6.9996    9.4704 C   0  0  0  0  0  0  0  0  0  0  0  0
   -8.6988   -7.6619    8.2043 C   0  0  2  0  0  0  0  0  0  0  0  0
  -13.4555   -7.6915    5.9759 N   0  0  0  0  0  0  0  0  0  0  0  0
  -12.7406   -6.6538    6.4879 C   0  0  1  0  0  0  0  0  0  0  0  0
  -13.2718   -5.4085    6.4547 N   0  0  0  0  0  0  0  0  0  0  0  0
  -11.5085   -6.8383    7.0356 N   0  0  0  0  0  0  0  0  0  0  0  0
  -10.9303   -8.0686    7.0960 C   0  0  2  0  0  0  0  0  0  0  0  0
  -11.6113   -9.1616    6.5913 C   0  0  1  0  0  0  0  0  0  0  0  0
  -12.9541   -8.9463    5.9947 C   0  0  0  0  0  0  0  0  0  0  0  0
  -13.6068   -9.9026    5.5198 O   0  0  0  0  0  0  0  0  0  0  0  0
  -10.8337  -10.2447    6.7634 N   0  0  0  0  0  0  0  0  0  0  0  0
   -9.6946   -9.8349    7.3689 C   0  0  0  0  0  0  0  0  0  0  0  0
   -9.7552   -8.5062    7.5722 N   0  0  1  0  0  0  0  0  0  0  0  0
  1  2  1  0  0  0  0
  3  1  1  1  0  0  0
  3  4  1  0  0  0  0
  3  5  1  0  0  0  0
  5  6  1  1  0  0  0
  5  7  1  0  0  0  0
  7  8  1  0  0  0  0
  8  4  1  1  0  0  0
  8 19  1  0  0  0  0
  9 15  1  0  0  0  0
  9 10  1  0  0  0  0
 10 11  1  1  0  0  0
 10 12  1  0  0  0  0
 13 12  1  1  0  0  0
 13 14  1  0  0  0  0
 13 19  1  0  0  0  0
 14 15  1  6  0  0  0
 14 17  1  0  0  0  0
 15 16  2  0  0  0  0
 17 18  1  0  0  0  0
 19 18  1  6  0  0  0
M  END
>  <CHROM.1>
-60.04290917,-179.58725538,-10.23338532,-8.31188051,8.07487511,-0.11562620
0.68698689,-2.84745102

>  <Name>
ligand

>  <RI>
0

>  <Rbt.Current_Directory>
/home/itssahil/PROJECTS/Mol_Feturizer/New_Systems/rnas/3SKI

>  <Rbt.Executable>
rbdock ($Id: //depot/dev/client3/rdock/2013.1/src/exe/rbdock.cxx#4 $)

>  <Rbt.Library>
libRbt.so (2013.1, Build901 2013/11/27)

>  <Rbt.Parameter_File>
/export/apps/rDock/src/rDock_2013.1_src/data/scripts/dock_solv.prm

>  <Rbt.Receptor>
prm/pocket_docking_7.prm

>  <SCORE>
-17.4113

>  <SCORE.INTER>
-14.4614

>  <SCORE.INTER.CONST>
1

>  <SCORE.INTER.POLAR>
0

>  <SCORE.INTER.ROT>
2

>  <SCORE.INTER.SOLV>
8.85463

>  <SCORE.INTER.VDW>
-17.5258

>  <SCORE.INTER.norm>
-0.761124

>  <SCORE.INTRA>
-2.94991

>  <SCORE.INTRA.DIHEDRAL>
-5.06551

>  <SCORE.INTRA.DIHEDRAL.0>
6.26853

>  <SCORE.INTRA.POLAR>
0

>  <SCORE.INTRA.POLAR.0>
0

>  <SCORE.INTRA.REPUL>
0

>  <SCORE.INTRA.REPUL.0>
0

>  <SCORE.INTRA.SOLV>
0.26084

>  <SCORE.INTRA.SOLV.lig_0>
-38.4926

>  <SCORE.INTRA.VDW>
-0.547576

>  <SCORE.INTRA.VDW.0>
-0.59057

>  <SCORE.INTRA.norm>
-0.155259

>  <SCORE.RESTR>
0

>  <SCORE.RESTR.CAVITY>
0

>  <SCORE.RESTR.norm>
0

>  <SCORE.SYSTEM>
0

>  <SCORE.SYSTEM.CONST>
0

>  <SCORE.SYSTEM.DIHEDRAL>
0

>  <SCORE.SYSTEM.SOLV>
0

>  <SCORE.SYSTEM.norm>
0

>  <SCORE.heavy>
19

>  <SCORE.norm>
-0.916382

>  <RMSD>
7.952

$$$$
ligand
 OpenBabel11021811483D
libRbt.so/2013.1/901 2013/11/27
 19 21  0  0  0  0  0  0  0  0999 V2000
   -7.2250   -9.8878   10.5936 C   0  0  0  0  0  0  0  0  0  0  0  0
   -8.4409  -10.6181   10.3735 O   0  0  0  0  0  0  0  0  0  0  0  0
   -7.3361   -8.4784   10.0081 C   0  0  1  0  0  0  0  0  0  0  0  0
   -7.5700   -8.5337    8.5878 O   0  0  0  0  0  0  0  0  0  0  0  0
   -8.4992   -7.7212   10.6242 C   0  0  1  0  0  0  0  0  0  0  0  0
   -8.0404   -6.7557   11.5786 O   0  0  0  0  0  0  0  0  0  0  0  0
   -9.2004   -7.0353    9.4718 C   0  0  0  0  0  0  0  0  0  0  0  0
   -8.6779   -7.7038    8.2087 C   0  0  2  0  0  0  0  0  0  0  0  0
  -13.4388   -7.7078    5.9892 N   0  0  0  0  0  0  0  0  0  0  0  0
  -12.7195   -6.6748    6.5045 C   0  0  1  0  0  0  0  0  0  0  0  0
  -13.2467   -5.4276    6.4779 N   0  0  0  0  0  0  0  0  0  0  0  0
  -11.4870   -6.8658    7.0490 N   0  0  0  0  0  0  0  0  0  0  0  0
  -10.9128   -8.0982    7.1028 C   0  0  2  0  0  0  0  0  0  0  0  0
  -11.5983   -9.1867    6.5945 C   0  0  1  0  0  0  0  0  0  0  0  0
  -12.9415   -8.9643    6.0013 C   0  0  0  0  0  0  0  0  0  0  0  0
  -13.5982   -9.9163    5.5234 O   0  0  0  0  0  0  0  0  0  0  0  0
  -10.8239  -10.2731    6.7602 N   0  0  0  0  0  0  0  0  0  0  0  0
   -9.6824   -9.8697    7.3655 C   0  0  0  0  0  0  0  0  0  0  0  0
   -9.7383   -8.5418    7.5748 N   0  0  1  0  0  0  0  0  0  0  0  0
  1  2  1  0  0  0  0
  3  1  1  1  0  0  0
  3  4  1  0  0  0  0
  3  5  1  0  0  0  0
  5  6  1  1  0  0  0
  5  7  1  0  0  0  0
  7  8  1  0  0  0  0
  8  4  1  1  0  0  0
  8 19  1  0  0  0  0
  9 15  1  0  0  0  0
  9 10  1  0  0  0  0
 10 11  1  1  0  0  0
 10 12  1  0  0  0  0
 13 12  1  1  0  0  0
 13 14  1  0  0  0  0
 13 19  1  0  0  0  0
 14 15  1  6  0  0  0
 14 17  1  0  0  0  0
 15 16  2  0  0  0  0
 17 18  1  0  0  0  0
 19 18  1  6  0  0  0
M  END
>  <CHROM.1>
-60.51570405,179.88929967,-10.22016103,-8.34397558,8.08304081,-0.11235155
0.68846693,-2.84769265

>  <Name>
ligand

>  <RI>
0

>  <Rbt.Current_Directory>
/home/itssahil/PROJECTS/Mol_Feturizer/New_Systems/rnas/3SKI

>  <Rbt.Executable>
rbdock ($Id: //depot/dev/client3/rdock/2013.1/src/exe/rbdock.cxx#4 $)

>  <Rbt.Library>
libRbt.so (2013.1, Build901 2013/11/27)

>  <Rbt.Parameter_File>
/export/apps/rDock/src/rDock_2013.1_src/data/scripts/dock_solv.prm

>  <Rbt.Receptor>
prm/pocket_docking_7.prm

>  <SCORE>
-17.3831

>  <SCORE.INTER>
-14.4444

>  <SCORE.INTER.CONST>
1

>  <SCORE.INTER.POLAR>
0

>  <SCORE.INTER.ROT>
2

>  <SCORE.INTER.SOLV>
8.97917

>  <SCORE.INTER.VDW>
-17.556

>  <SCORE.INTER.norm>
-0.760231

>  <SCORE.INTRA>
-2.93871

>  <SCORE.INTRA.DIHEDRAL>
-5.06524

>  <SCORE.INTRA.DIHEDRAL.0>
6.26853

>  <SCORE.INTRA.POLAR>
0

>  <SCORE.INTRA.POLAR.0>
0

>  <SCORE.INTRA.REPUL>
0

>  <SCORE.INTRA.REPUL.0>
0

>  <SCORE.INTRA.SOLV>
0.260068

>  <SCORE.INTRA.SOLV.lig_0>
-38.4926

>  <SCORE.INTRA.VDW>
-0.536121

>  <SCORE.INTRA.VDW.0>
-0.59057

>  <SCORE.INTRA.norm>
-0.154669

>  <SCORE.RESTR>
0

>  <SCORE.RESTR.CAVITY>
0

>  <SCORE.RESTR.norm>
0

>  <SCORE.SYSTEM>
0

>  <SCORE.SYSTEM.CONST>
0

>  <SCORE.SYSTEM.DIHEDRAL>
0

>  <SCORE.SYSTEM.SOLV>
0

>  <SCORE.SYSTEM.norm>
0

>  <SCORE.heavy>
19

>  <SCORE.norm>
-0.9149

>  <RMSD>
7.958

$$$$
ligand
 OpenBabel11021811483D
libRbt.so/2013.1/901 2013/11/27
 19 21  0  0  0  0  0  0  0  0999 V2000
   -8.1173   -9.3923   11.1300 C   0  0  0  0  0  0  0  0  0  0  0  0
   -8.0669   -9.0090   12.5123 O   0  0  0  0  0  0  0  0  0  0  0  0
   -7.9081   -8.1721   10.2305 C   0  0  1  0  0  0  0  0  0  0  0  0
   -7.9205   -8.5548    8.8418 O   0  0  0  0  0  0  0  0  0  0  0  0
   -9.0181   -7.1541   10.4242 C   0  0  1  0  0  0  0  0  0  0  0  0
   -8.5677   -6.0402   11.2051 O   0  0  0  0  0  0  0  0  0  0  0  0
   -9.4098   -6.7028    9.0339 C   0  0  0  0  0  0  0  0  0  0  0  0
   -8.8078   -7.7235    8.0793 C   0  0  2  0  0  0  0  0  0  0  0  0
  -13.5881   -7.7362    5.9017 N   0  0  0  0  0  0  0  0  0  0  0  0
  -12.8631   -6.7006    6.4040 C   0  0  1  0  0  0  0  0  0  0  0  0
  -13.3891   -5.4531    6.3739 N   0  0  0  0  0  0  0  0  0  0  0  0
  -11.6261   -6.8897    6.9389 N   0  0  0  0  0  0  0  0  0  0  0  0
  -11.0528   -8.1224    6.9957 C   0  0  2  0  0  0  0  0  0  0  0  0
  -11.7440   -9.2133    6.5005 C   0  0  1  0  0  0  0  0  0  0  0  0
  -13.0921   -8.9931    5.9177 C   0  0  0  0  0  0  0  0  0  0  0  0
  -13.7541   -9.9474    5.4518 O   0  0  0  0  0  0  0  0  0  0  0  0
  -10.9695  -10.2996    6.6665 N   0  0  0  0  0  0  0  0  0  0  0  0
   -9.8222   -9.8936    7.2590 C   0  0  0  0  0  0  0  0  0  0  0  0
   -9.8747   -8.5643    7.4602 N   0  0  1  0  0  0  0  0  0  0  0  0
  1  2  1  0  0  0  0
  3  1  1  1  0  0  0
  3  4  1  0  0  0  0
  3  5  1  0  0  0  0
  5  6  1  1  0  0  0
  5  7  1  0  0  0  0
  7  8  1  0  0  0  0
  8  4  1  1  0  0  0
  8 19  1  0  0  0  0
  9 15  1  0  0  0  0
  9 10  1  0  0  0  0
 10 11  1  1  0  0  0
 10 12  1  0  0  0  0
 13 12  1  1  0  0  0
 13 14  1  0  0  0  0
 13 19  1  0  0  0  0
 14 15  1  6  0  0  0
 14 17  1  0  0  0  0
 15 16  2  0  0  0  0
 17 18  1  0  0  0  0
 19 18  1  6  0  0  0
M  END
>  <CHROM.1>
178.41169964,160.84320470,-10.45189560,-8.13050658,8.15235369,-0.26256662
0.75966832,-2.80388740

>  <Name>
ligand

>  <RI>
0

>  <Rbt.Current_Directory>
/home/itssahil/PROJECTS/Mol_Feturizer/New_Systems/rnas/3SKI

>  <Rbt.Executable>
rbdock ($Id: //depot/dev/client3/rdock/2013.1/src/exe/rbdock.cxx#4 $)

>  <Rbt.Library>
libRbt.so (2013.1, Build901 2013/11/27)

>  <Rbt.Parameter_File>
/export/apps/rDock/src/rDock_2013.1_src/data/scripts/dock_solv.prm

>  <Rbt.Receptor>
prm/blind_docking_40.prm

>  <SCORE>
-16.7272

>  <SCORE.INTER>
-14.1472

>  <SCORE.INTER.CONST>
1

>  <SCORE.INTER.POLAR>
0

>  <SCORE.INTER.ROT>
2

>  <SCORE.INTER.SOLV>
7.34733

>  <SCORE.INTER.VDW>
-16.8139

>  <SCORE.INTER.norm>
-0.744588

>  <SCORE.INTRA>
-2.57998

>  <SCORE.INTRA.DIHEDRAL>
-5.07295

>  <SCORE.INTRA.DIHEDRAL.0>
6.26853

>  <SCORE.INTRA.POLAR>
0

>  <SCORE.INTRA.POLAR.0>
0

>  <SCORE.INTRA.REPUL>
0

>  <SCORE.INTRA.REPUL.0>
0

>  <SCORE.INTRA.SOLV>
-0.0293478

>  <SCORE.INTRA.SOLV.lig_0>
-38.4926

>  <SCORE.INTRA.VDW>
-0.0288317

>  <SCORE.INTRA.VDW.0>
-0.59057

>  <SCORE.INTRA.norm>
-0.135788

>  <SCORE.RESTR>
0

>  <SCORE.RESTR.CAVITY>
0

>  <SCORE.RESTR.norm>
0

>  <SCORE.SYSTEM>
0

>  <SCORE.SYSTEM.CONST>
0

>  <SCORE.SYSTEM.DIHEDRAL>
0

>  <SCORE.SYSTEM.SOLV>
0

>  <SCORE.SYSTEM.norm>
0

>  <SCORE.heavy>
19

>  <SCORE.norm>
-0.880376

>  <RMSD>
7.987

$$$$
ligand
 OpenBabel11021811483D
libRbt.so/2013.1/901 2013/11/27
 19 21  0  0  0  0  0  0  0  0999 V2000
   -7.2785   -9.8673   10.5687 C   0  0  0  0  0  0  0  0  0  0  0  0
   -8.4862  -10.6015   10.3184 O   0  0  0  0  0  0  0  0  0  0  0  0
   -7.3671   -8.4693    9.9524 C   0  0  1  0  0  0  0  0  0  0  0  0
   -7.5963   -8.5520    8.5327 O   0  0  0  0  0  0  0  0  0  0  0  0
   -8.5216   -7.6824   10.5472 C   0  0  1  0  0  0  0  0  0  0  0  0
   -8.0525   -6.7032   11.4825 O   0  0  0  0  0  0  0  0  0  0  0  0
   -9.2083   -7.0116    9.3774 C   0  0  0  0  0  0  0  0  0  0  0  0
   -8.6906   -7.7148    8.1312 C   0  0  2  0  0  0  0  0  0  0  0  0
  -13.4848   -7.7127    5.9844 N   0  0  0  0  0  0  0  0  0  0  0  0
  -12.7578   -6.6810    6.4918 C   0  0  1  0  0  0  0  0  0  0  0  0
  -13.2854   -5.4339    6.4768 N   0  0  0  0  0  0  0  0  0  0  0  0
  -11.5171   -6.8736    7.0169 N   0  0  0  0  0  0  0  0  0  0  0  0
  -10.9421   -8.1061    7.0584 C   0  0  2  0  0  0  0  0  0  0  0  0
  -11.6352   -9.1932    6.5574 C   0  0  1  0  0  0  0  0  0  0  0  0
  -12.9873   -8.9691    5.9854 C   0  0  0  0  0  0  0  0  0  0  0  0
  -13.6512   -9.9198    5.5147 O   0  0  0  0  0  0  0  0  0  0  0  0
  -10.8584  -10.2800    6.7081 N   0  0  0  0  0  0  0  0  0  0  0  0
   -9.7078   -9.8783    7.2971 C   0  0  0  0  0  0  0  0  0  0  0  0
   -9.7605   -8.5510    7.5111 N   0  0  1  0  0  0  0  0  0  0  0  0
  1  2  1  0  0  0  0
  3  1  1  1  0  0  0
  3  4  1  0  0  0  0
  3  5  1  0  0  0  0
  5  6  1  1  0  0  0
  5  7  1  0  0  0  0
  7  8  1  0  0  0  0
  8  4  1  1  0  0  0
  8 19  1  0  0  0  0
  9 15  1  0  0  0  0
  9 10  1  0  0  0  0
 10 11  1  1  0  0  0
 10 12  1  0  0  0  0
 13 12  1  1  0  0  0
 13 14  1  0  0  0  0
 13 19  1  0  0  0  0
 14 15  1  6  0  0  0
 14 17  1  0  0  0  0
 15 16  2  0  0  0  0
 17 18  1  0  0  0  0
 19 18  1  6  0  0  0
M  END
>  <CHROM.1>
-58.48177229,177.92173444,-10.25239603,-8.34029766,8.03653373,-0.11364391
0.68017974,-2.85125726

>  <Name>
ligand

>  <RI>
0

>  <Rbt.Current_Directory>
/home/itssahil/PROJECTS/Mol_Feturizer/New_Systems/rnas/3SKI

>  <Rbt.Executable>
rbdock ($Id: //depot/dev/client3/rdock/2013.1/src/exe/rbdock.cxx#4 $)

>  <Rbt.Library>
libRbt.so (2013.1, Build901 2013/11/27)

>  <Rbt.Parameter_File>
/export/apps/rDock/src/rDock_2013.1_src/data/scripts/dock_solv.prm

>  <Rbt.Receptor>
prm/blind_docking_40.prm

>  <SCORE>
-17.3816

>  <SCORE.INTER>
-14.4484

>  <SCORE.INTER.CONST>
1

>  <SCORE.INTER.POLAR>
0

>  <SCORE.INTER.ROT>
2

>  <SCORE.INTER.SOLV>
8.92044

>  <SCORE.INTER.VDW>
-17.539

>  <SCORE.INTER.norm>
-0.76044

>  <SCORE.INTRA>
-2.93325

>  <SCORE.INTRA.DIHEDRAL>
-5.05906

>  <SCORE.INTRA.DIHEDRAL.0>
6.26853

>  <SCORE.INTRA.POLAR>
0

>  <SCORE.INTRA.POLAR.0>
0

>  <SCORE.INTRA.REPUL>
0

>  <SCORE.INTRA.REPUL.0>
0

>  <SCORE.INTRA.SOLV>
0.255627

>  <SCORE.INTRA.SOLV.lig_0>
-38.4926

>  <SCORE.INTRA.VDW>
-0.531536

>  <SCORE.INTRA.VDW.0>
-0.59057

>  <SCORE.INTRA.norm>
-0.154382

>  <SCORE.RESTR>
0

>  <SCORE.RESTR.CAVITY>
0

>  <SCORE.RESTR.norm>
0

>  <SCORE.SYSTEM>
0

>  <SCORE.SYSTEM.CONST>
0

>  <SCORE.SYSTEM.DIHEDRAL>
0

>  <SCORE.SYSTEM.SOLV>
0

>  <SCORE.SYSTEM.norm>
0

>  <SCORE.heavy>
19

>  <SCORE.norm>
-0.914821

>  <RMSD>
7.988

$$$$
ligand
 OpenBabel11021811483D
libRbt.so/2013.1/901 2013/11/27
 19 21  0  0  0  0  0  0  0  0999 V2000
   -8.0895   -9.4149   11.0544 C   0  0  0  0  0  0  0  0  0  0  0  0
   -8.0480   -9.0412   12.4397 O   0  0  0  0  0  0  0  0  0  0  0  0
   -7.8866   -8.1865   10.1646 C   0  0  1  0  0  0  0  0  0  0  0  0
   -7.9096   -8.5564    8.7726 O   0  0  0  0  0  0  0  0  0  0  0  0
   -8.9947   -7.1700   10.3759 C   0  0  1  0  0  0  0  0  0  0  0  0
   -8.5381   -6.0634   11.1637 O   0  0  0  0  0  0  0  0  0  0  0  0
   -9.3967   -6.7058    8.9929 C   0  0  0  0  0  0  0  0  0  0  0  0
   -8.8022   -7.7179    8.0244 C   0  0  2  0  0  0  0  0  0  0  0  0
  -13.6174   -7.7165    5.9252 N   0  0  0  0  0  0  0  0  0  0  0  0
  -12.8906   -6.6869    6.4369 C   0  0  1  0  0  0  0  0  0  0  0  0
  -13.4245   -5.4423    6.4410 N   0  0  0  0  0  0  0  0  0  0  0  0
  -11.6438   -6.8789    6.9475 N   0  0  0  0  0  0  0  0  0  0  0  0
  -11.0622   -8.1088    6.9696 C   0  0  2  0  0  0  0  0  0  0  0  0
  -11.7548   -9.1938    6.4634 C   0  0  1  0  0  0  0  0  0  0  0  0
  -13.1137   -8.9703    5.9073 C   0  0  0  0  0  0  0  0  0  0  0  0
  -13.7774   -9.9191    5.4327 O   0  0  0  0  0  0  0  0  0  0  0  0
  -10.9712  -10.2783    6.5944 N   0  0  0  0  0  0  0  0  0  0  0  0
   -9.8168   -9.8772    7.1763 C   0  0  0  0  0  0  0  0  0  0  0  0
   -9.8740   -8.5526    7.4057 N   0  0  1  0  0  0  0  0  0  0  0  0
  1  2  1  0  0  0  0
  3  1  1  1  0  0  0
  3  4  1  0  0  0  0
  3  5  1  0  0  0  0
  5  6  1  1  0  0  0
  5  7  1  0  0  0  0
  7  8  1  0  0  0  0
  8  4  1  1  0  0  0
  8 19  1  0  0  0  0
  9 15  1  0  0  0  0
  9 10  1  0  0  0  0
 10 11  1  1  0  0  0
 10 12  1  0  0  0  0
 13 12  1  1  0  0  0
 13 14  1  0  0  0  0
 13 19  1  0  0  0  0
 14 15  1  6  0  0  0
 14 17  1  0  0  0  0
 15 16  2  0  0  0  0
 17 18  1  0  0  0  0
 19 18  1  6  0  0  0
M  END
>  <CHROM.1>
179.24787947,159.93823405,-10.45238776,-8.12693061,8.11810100,-0.26996137
0.74472121,-2.78219534

>  <Name>
ligand

>  <RI>
0

>  <Rbt.Current_Directory>
/home/itssahil/PROJECTS/Mol_Feturizer/New_Systems/rnas/3SKI

>  <Rbt.Executable>
rbdock ($Id: //depot/dev/client3/rdock/2013.1/src/exe/rbdock.cxx#4 $)

>  <Rbt.Library>
libRbt.so (2013.1, Build901 2013/11/27)

>  <Rbt.Parameter_File>
/export/apps/rDock/src/rDock_2013.1_src/data/scripts/dock_solv.prm

>  <Rbt.Receptor>
prm/blind_docking_20.prm

>  <SCORE>
-16.7015

>  <SCORE.INTER>
-14.1483

>  <SCORE.INTER.CONST>
1

>  <SCORE.INTER.POLAR>
0

>  <SCORE.INTER.ROT>
2

>  <SCORE.INTER.SOLV>
7.21733

>  <SCORE.INTER.VDW>
-16.7713

>  <SCORE.INTER.norm>
-0.744648

>  <SCORE.INTRA>
-2.55319

>  <SCORE.INTRA.DIHEDRAL>
-5.08016

>  <SCORE.INTRA.DIHEDRAL.0>
6.26853

>  <SCORE.INTRA.POLAR>
0

>  <SCORE.INTRA.POLAR.0>
0

>  <SCORE.INTRA.REPUL>
0

>  <SCORE.INTRA.REPUL.0>
0

>  <SCORE.INTRA.SOLV>
-0.0253346

>  <SCORE.INTRA.SOLV.lig_0>
-38.4926

>  <SCORE.INTRA.VDW>
-0.000440115

>  <SCORE.INTRA.VDW.0>
-0.59057

>  <SCORE.INTRA.norm>
-0.134378

>  <SCORE.RESTR>
0

>  <SCORE.RESTR.CAVITY>
0

>  <SCORE.RESTR.norm>
0

>  <SCORE.SYSTEM>
0

>  <SCORE.SYSTEM.CONST>
0

>  <SCORE.SYSTEM.DIHEDRAL>
0

>  <SCORE.SYSTEM.SOLV>
0

>  <SCORE.SYSTEM.norm>
0

>  <SCORE.heavy>
19

>  <SCORE.norm>
-0.879026

>  <RMSD>
7.992

$$$$
ligand
 OpenBabel11021811483D
libRbt.so/2013.1/901 2013/11/27
 19 21  0  0  0  0  0  0  0  0999 V2000
   -7.2756   -9.8656   10.5828 C   0  0  0  0  0  0  0  0  0  0  0  0
   -8.4756  -10.6116   10.3307 O   0  0  0  0  0  0  0  0  0  0  0  0
   -7.3874   -8.4594    9.9897 C   0  0  1  0  0  0  0  0  0  0  0  0
   -7.6132   -8.5224    8.5684 O   0  0  0  0  0  0  0  0  0  0  0  0
   -8.5563   -7.7025   10.5955 C   0  0  1  0  0  0  0  0  0  0  0  0
   -8.1056   -6.7311   11.5477 O   0  0  0  0  0  0  0  0  0  0  0  0
   -9.2529   -7.0244    9.4358 C   0  0  0  0  0  0  0  0  0  0  0  0
   -8.7213   -7.6977    8.1789 C   0  0  2  0  0  0  0  0  0  0  0  0
  -13.4950   -7.7361    5.9874 N   0  0  0  0  0  0  0  0  0  0  0  0
  -12.7848   -6.6996    6.5085 C   0  0  1  0  0  0  0  0  0  0  0  0
  -13.3266   -5.4585    6.4969 N   0  0  0  0  0  0  0  0  0  0  0  0
  -11.5469   -6.8815    7.0439 N   0  0  0  0  0  0  0  0  0  0  0  0
  -10.9580   -8.1075    7.0825 C   0  0  2  0  0  0  0  0  0  0  0  0
  -11.6339   -9.1991    6.5677 C   0  0  1  0  0  0  0  0  0  0  0  0
  -12.9831   -8.9867    5.9846 C   0  0  0  0  0  0  0  0  0  0  0  0
  -13.6316   -9.9417    5.5014 O   0  0  0  0  0  0  0  0  0  0  0  0
  -10.8460  -10.2779    6.7184 N   0  0  0  0  0  0  0  0  0  0  0  0
   -9.7056   -9.8670    7.3208 C   0  0  0  0  0  0  0  0  0  0  0  0
   -9.7756   -8.5419    7.5433 N   0  0  1  0  0  0  0  0  0  0  0  0
  1  2  1  0  0  0  0
  3  1  1  1  0  0  0
  3  4  1  0  0  0  0
  3  5  1  0  0  0  0
  5  6  1  1  0  0  0
  5  7  1  0  0  0  0
  7  8  1  0  0  0  0
  8  4  1  1  0  0  0
  8 19  1  0  0  0  0
  9 15  1  0  0  0  0
  9 10  1  0  0  0  0
 10 11  1  1  0  0  0
 10 12  1  0  0  0  0
 13 12  1  1  0  0  0
 13 14  1  0  0  0  0
 13 19  1  0  0  0  0
 14 15  1  6  0  0  0
 14 17  1  0  0  0  0
 15 16  2  0  0  0  0
 17 18  1  0  0  0  0
 19 18  1  6  0  0  0
M  END
>  <CHROM.1>
-59.09848969,178.71327561,-10.26747044,-8.34627887,8.06153644,-0.12862227
0.68303988,-2.83196771

>  <Name>
ligand

>  <RI>
0

>  <Rbt.Current_Directory>
/home/itssahil/PROJECTS/Mol_Feturizer/New_Systems/rnas/3SKI

>  <Rbt.Executable>
rbdock ($Id: //depot/dev/client3/rdock/2013.1/src/exe/rbdock.cxx#4 $)

>  <Rbt.Library>
libRbt.so (2013.1, Build901 2013/11/27)

>  <Rbt.Parameter_File>
/export/apps/rDock/src/rDock_2013.1_src/data/scripts/dock_solv.prm

>  <Rbt.Receptor>
prm/blind_docking_40.prm

>  <SCORE>
-17.3536

>  <SCORE.INTER>
-14.4144

>  <SCORE.INTER.CONST>
1

>  <SCORE.INTER.POLAR>
0

>  <SCORE.INTER.ROT>
2

>  <SCORE.INTER.SOLV>
8.84671

>  <SCORE.INTER.VDW>
-17.4918

>  <SCORE.INTER.norm>
-0.758651

>  <SCORE.INTRA>
-2.93926

>  <SCORE.INTRA.DIHEDRAL>
-5.0639

>  <SCORE.INTRA.DIHEDRAL.0>
6.26853

>  <SCORE.INTRA.POLAR>
0

>  <SCORE.INTRA.POLAR.0>
0

>  <SCORE.INTRA.REPUL>
0

>  <SCORE.INTRA.REPUL.0>
0

>  <SCORE.INTRA.SOLV>
0.257391

>  <SCORE.INTRA.SOLV.lig_0>
-38.4926

>  <SCORE.INTRA.VDW>
-0.536005

>  <SCORE.INTRA.VDW.0>
-0.59057

>  <SCORE.INTRA.norm>
-0.154698

>  <SCORE.RESTR>
0

>  <SCORE.RESTR.CAVITY>
0

>  <SCORE.RESTR.norm>
0

>  <SCORE.SYSTEM>
0

>  <SCORE.SYSTEM.CONST>
0

>  <SCORE.SYSTEM.DIHEDRAL>
0

>  <SCORE.SYSTEM.SOLV>
0

>  <SCORE.SYSTEM.norm>
0

>  <SCORE.heavy>
19

>  <SCORE.norm>
-0.913349

>  <RMSD>
7.992

$$$$
ligand
 OpenBabel11021811483D
libRbt.so/2013.1/901 2013/11/27
 19 21  0  0  0  0  0  0  0  0999 V2000
   -8.1342   -9.4115   11.1158 C   0  0  0  0  0  0  0  0  0  0  0  0
   -7.0598  -10.3474   10.9429 O   0  0  0  0  0  0  0  0  0  0  0  0
   -7.9171   -8.1814   10.2317 C   0  0  1  0  0  0  0  0  0  0  0  0
   -7.9248   -8.5474    8.8386 O   0  0  0  0  0  0  0  0  0  0  0  0
   -9.0245   -7.1620   10.4329 C   0  0  1  0  0  0  0  0  0  0  0  0
   -8.5737   -6.0590   11.2289 O   0  0  0  0  0  0  0  0  0  0  0  0
   -9.4087   -6.6928    9.0464 C   0  0  0  0  0  0  0  0  0  0  0  0
   -8.8060   -7.7041    8.0823 C   0  0  2  0  0  0  0  0  0  0  0  0
  -13.5815   -7.6762    5.8943 N   0  0  0  0  0  0  0  0  0  0  0  0
  -12.8558   -6.6495    6.4133 C   0  0  1  0  0  0  0  0  0  0  0  0
  -13.3794   -5.4006    6.4002 N   0  0  0  0  0  0  0  0  0  0  0  0
  -11.6203   -6.8485    6.9481 N   0  0  0  0  0  0  0  0  0  0  0  0
  -11.0493   -8.0830    6.9881 C   0  0  2  0  0  0  0  0  0  0  0  0
  -11.7414   -9.1653    6.4755 C   0  0  1  0  0  0  0  0  0  0  0  0
  -13.0878   -8.9342    5.8931 C   0  0  0  0  0  0  0  0  0  0  0  0
  -13.7505   -9.8804    5.4118 O   0  0  0  0  0  0  0  0  0  0  0  0
  -10.9692  -10.2553    6.6273 N   0  0  0  0  0  0  0  0  0  0  0  0
   -9.8225   -9.8601    7.2282 C   0  0  0  0  0  0  0  0  0  0  0  0
   -9.8730   -8.5338    7.4487 N   0  0  1  0  0  0  0  0  0  0  0  0
  1  2  1  0  0  0  0
  3  1  1  1  0  0  0
  3  4  1  0  0  0  0
  3  5  1  0  0  0  0
  5  6  1  1  0  0  0
  5  7  1  0  0  0  0
  7  8  1  0  0  0  0
  8  4  1  1  0  0  0
  8 19  1  0  0  0  0
  9 15  1  0  0  0  0
  9 10  1  0  0  0  0
 10 11  1  1  0  0  0
 10 12  1  0  0  0  0
 13 12  1  1  0  0  0
 13 14  1  0  0  0  0
 13 19  1  0  0  0  0
 14 15  1  6  0  0  0
 14 17  1  0  0  0  0
 15 16  2  0  0  0  0
 17 18  1  0  0  0  0
 19 18  1  6  0  0  0
M  END
>  <CHROM.1>
62.75580303,160.63052825,-10.39004900,-8.18658621,8.05073662,-0.17885487
0.70787509,-2.80150895

>  <Name>
ligand

>  <RI>
0

>  <Rbt.Current_Directory>
/home/itssahil/PROJECTS/Mol_Feturizer/New_Systems/rnas/3SKI

>  <Rbt.Executable>
rbdock ($Id: //depot/dev/client3/rdock/2013.1/src/exe/rbdock.cxx#4 $)

>  <Rbt.Library>
libRbt.so (2013.1, Build901 2013/11/27)

>  <Rbt.Parameter_File>
/export/apps/rDock/src/rDock_2013.1_src/data/scripts/dock_solv.prm

>  <Rbt.Receptor>
prm/blind_docking_100.prm

>  <SCORE>
-17.1361

>  <SCORE.INTER>
-14.3834

>  <SCORE.INTER.CONST>
1

>  <SCORE.INTER.POLAR>
0

>  <SCORE.INTER.ROT>
2

>  <SCORE.INTER.SOLV>
7.45071

>  <SCORE.INTER.VDW>
-17.0058

>  <SCORE.INTER.norm>
-0.757019

>  <SCORE.INTRA>
-2.75274

>  <SCORE.INTRA.DIHEDRAL>
-5.05321

>  <SCORE.INTRA.DIHEDRAL.0>
6.26853

>  <SCORE.INTRA.POLAR>
0

>  <SCORE.INTRA.POLAR.0>
0

>  <SCORE.INTRA.REPUL>
0

>  <SCORE.INTRA.REPUL.0>
0

>  <SCORE.INTRA.SOLV>
-0.25761

>  <SCORE.INTRA.SOLV.lig_0>
-38.4926

>  <SCORE.INTRA.VDW>
-0.0973239

>  <SCORE.INTRA.VDW.0>
-0.59057

>  <SCORE.INTRA.norm>
-0.144881

>  <SCORE.RESTR>
0

>  <SCORE.RESTR.CAVITY>
0

>  <SCORE.RESTR.norm>
0

>  <SCORE.SYSTEM>
0

>  <SCORE.SYSTEM.CONST>
0

>  <SCORE.SYSTEM.DIHEDRAL>
0

>  <SCORE.SYSTEM.SOLV>
0

>  <SCORE.SYSTEM.norm>
0

>  <SCORE.heavy>
19

>  <SCORE.norm>
-0.9019

>  <RMSD>
7.993

$$$$
ligand
 OpenBabel11021811483D
libRbt.so/2013.1/901 2013/11/27
 19 21  0  0  0  0  0  0  0  0999 V2000
   -7.2842   -9.8561   10.5729 C   0  0  0  0  0  0  0  0  0  0  0  0
   -8.4890  -10.5946   10.3209 O   0  0  0  0  0  0  0  0  0  0  0  0
   -7.3728   -8.4620    9.9480 C   0  0  1  0  0  0  0  0  0  0  0  0
   -7.6075   -8.5534    8.5297 O   0  0  0  0  0  0  0  0  0  0  0  0
   -8.5239   -7.6694   10.5420 C   0  0  1  0  0  0  0  0  0  0  0  0
   -8.0498   -6.6850   11.4692 O   0  0  0  0  0  0  0  0  0  0  0  0
   -9.2139   -7.0051    9.3704 C   0  0  0  0  0  0  0  0  0  0  0  0
   -8.7019   -7.7171    8.1269 C   0  0  2  0  0  0  0  0  0  0  0  0
  -13.4938   -7.7175    5.9749 N   0  0  0  0  0  0  0  0  0  0  0  0
  -12.7621   -6.6833    6.4701 C   0  0  1  0  0  0  0  0  0  0  0  0
  -13.2833   -5.4338    6.4388 N   0  0  0  0  0  0  0  0  0  0  0  0
  -11.5230   -6.8756    6.9989 N   0  0  0  0  0  0  0  0  0  0  0  0
  -10.9543   -8.1104    7.0566 C   0  0  2  0  0  0  0  0  0  0  0  0
  -11.6524   -9.2002    6.5685 C   0  0  1  0  0  0  0  0  0  0  0  0
  -13.0028   -8.9764    5.9923 C   0  0  0  0  0  0  0  0  0  0  0  0
  -13.6711   -9.9295    5.5329 O   0  0  0  0  0  0  0  0  0  0  0  0
  -10.8814  -10.2890    6.7338 N   0  0  0  0  0  0  0  0  0  0  0  0
   -9.7293   -9.8857    7.3189 C   0  0  0  0  0  0  0  0  0  0  0  0
   -9.7755   -8.5556    7.5162 N   0  0  1  0  0  0  0  0  0  0  0  0
  1  2  1  0  0  0  0
  3  1  1  1  0  0  0
  3  4  1  0  0  0  0
  3  5  1  0  0  0  0
  5  6  1  1  0  0  0
  5  7  1  0  0  0  0
  7  8  1  0  0  0  0
  8  4  1  1  0  0  0
  8 19  1  0  0  0  0
  9 15  1  0  0  0  0
  9 10  1  0  0  0  0
 10 11  1  1  0  0  0
 10 12  1  0  0  0  0
 13 12  1  1  0  0  0
 13 14  1  0  0  0  0
 13 19  1  0  0  0  0
 14 15  1  6  0  0  0
 14 17  1  0  0  0  0
 15 16  2  0  0  0  0
 17 18  1  0  0  0  0
 19 18  1  6  0  0  0
M  END
>  <CHROM.1>
-57.93458966,178.41204374,-10.26184342,-8.33998039,8.03484017,-0.10626637
0.68045898,-2.86586076

>  <Name>
ligand

>  <RI>
0

>  <Rbt.Current_Directory>
/home/itssahil/PROJECTS/Mol_Feturizer/New_Systems/rnas/3SKI

>  <Rbt.Executable>
rbdock ($Id: //depot/dev/client3/rdock/2013.1/src/exe/rbdock.cxx#4 $)

>  <Rbt.Library>
libRbt.so (2013.1, Build901 2013/11/27)

>  <Rbt.Parameter_File>
/export/apps/rDock/src/rDock_2013.1_src/data/scripts/dock_solv.prm

>  <Rbt.Receptor>
prm/pocket_docking_7.prm

>  <SCORE>
-17.3942

>  <SCORE.INTER>
-14.4539

>  <SCORE.INTER.CONST>
1

>  <SCORE.INTER.POLAR>
0

>  <SCORE.INTER.ROT>
2

>  <SCORE.INTER.SOLV>
8.89941

>  <SCORE.INTER.VDW>
-17.5357

>  <SCORE.INTER.norm>
-0.76073

>  <SCORE.INTRA>
-2.94032

>  <SCORE.INTRA.DIHEDRAL>
-5.05131

>  <SCORE.INTRA.DIHEDRAL.0>
6.26853

>  <SCORE.INTRA.POLAR>
0

>  <SCORE.INTRA.POLAR.0>
0

>  <SCORE.INTRA.REPUL>
0

>  <SCORE.INTRA.REPUL.0>
0

>  <SCORE.INTRA.SOLV>
0.256197

>  <SCORE.INTRA.SOLV.lig_0>
-38.4926

>  <SCORE.INTRA.VDW>
-0.542761

>  <SCORE.INTRA.VDW.0>
-0.59057

>  <SCORE.INTRA.norm>
-0.154754

>  <SCORE.RESTR>
0

>  <SCORE.RESTR.CAVITY>
0

>  <SCORE.RESTR.norm>
0

>  <SCORE.SYSTEM>
0

>  <SCORE.SYSTEM.CONST>
0

>  <SCORE.SYSTEM.DIHEDRAL>
0

>  <SCORE.SYSTEM.SOLV>
0

>  <SCORE.SYSTEM.norm>
0

>  <SCORE.heavy>
19

>  <SCORE.norm>
-0.915484

>  <RMSD>
7.998

$$$$
ligand
 OpenBabel11021811483D
libRbt.so/2013.1/901 2013/11/27
 19 21  0  0  0  0  0  0  0  0999 V2000
   -8.1068   -9.4470   11.0927 C   0  0  0  0  0  0  0  0  0  0  0  0
   -7.0383  -10.3893   10.9178 O   0  0  0  0  0  0  0  0  0  0  0  0
   -7.8849   -8.2188   10.2073 C   0  0  1  0  0  0  0  0  0  0  0  0
   -7.8928   -8.5866    8.8145 O   0  0  0  0  0  0  0  0  0  0  0  0
   -8.9891   -7.1955   10.4062 C   0  0  1  0  0  0  0  0  0  0  0  0
   -8.5352   -6.0929   11.2012 O   0  0  0  0  0  0  0  0  0  0  0  0
   -9.3707   -6.7268    9.0189 C   0  0  0  0  0  0  0  0  0  0  0  0
   -8.7706   -7.7413    8.0565 C   0  0  2  0  0  0  0  0  0  0  0  0
  -13.5656   -7.7087    5.9119 N   0  0  0  0  0  0  0  0  0  0  0  0
  -12.8395   -6.6849    6.4360 C   0  0  1  0  0  0  0  0  0  0  0  0
  -13.3684   -5.4382    6.4418 N   0  0  0  0  0  0  0  0  0  0  0  0
  -11.5984   -6.8848    6.9574 N   0  0  0  0  0  0  0  0  0  0  0  0
  -11.0221   -8.1172    6.9782 C   0  0  2  0  0  0  0  0  0  0  0  0
  -11.7143   -9.1966    6.4596 C   0  0  1  0  0  0  0  0  0  0  0  0
  -13.0669   -8.9645    5.8920 C   0  0  0  0  0  0  0  0  0  0  0  0
  -13.7300   -9.9080    5.4059 O   0  0  0  0  0  0  0  0  0  0  0  0
  -10.9363  -10.2849    6.5921 N   0  0  0  0  0  0  0  0  0  0  0  0
   -9.7859   -9.8918    7.1872 C   0  0  0  0  0  0  0  0  0  0  0  0
   -9.8398   -8.5683    7.4231 N   0  0  1  0  0  0  0  0  0  0  0  0
  1  2  1  0  0  0  0
  3  1  1  1  0  0  0
  3  4  1  0  0  0  0
  3  5  1  0  0  0  0
  5  6  1  1  0  0  0
  5  7  1  0  0  0  0
  7  8  1  0  0  0  0
  8  4  1  1  0  0  0
  8 19  1  0  0  0  0
  9 15  1  0  0  0  0
  9 10  1  0  0  0  0
 10 11  1  1  0  0  0
 10 12  1  0  0  0  0
 13 12  1  1  0  0  0
 13 14  1  0  0  0  0
 13 19  1  0  0  0  0
 14 15  1  6  0  0  0
 14 17  1  0  0  0  0
 15 16  2  0  0  0  0
 17 18  1  0  0  0  0
 19 18  1  6  0  0  0
M  END
>  <CHROM.1>
62.51734747,159.62036635,-10.36245736,-8.22107233,8.03745305,-0.18241226
0.70196991,-2.79402896

>  <Name>
ligand

>  <RI>
0

>  <Rbt.Current_Directory>
/home/itssahil/PROJECTS/Mol_Feturizer/New_Systems/rnas/3SKI

>  <Rbt.Executable>
rbdock ($Id: //depot/dev/client3/rdock/2013.1/src/exe/rbdock.cxx#4 $)

>  <Rbt.Library>
libRbt.so (2013.1, Build901 2013/11/27)

>  <Rbt.Parameter_File>
/export/apps/rDock/src/rDock_2013.1_src/data/scripts/dock_solv.prm

>  <Rbt.Receptor>
prm/blind_docking_40.prm

>  <SCORE>
-17.1935

>  <SCORE.INTER>
-14.4632

>  <SCORE.INTER.CONST>
1

>  <SCORE.INTER.POLAR>
0

>  <SCORE.INTER.ROT>
2

>  <SCORE.INTER.SOLV>
7.60495

>  <SCORE.INTER.VDW>
-17.1105

>  <SCORE.INTER.norm>
-0.761221

>  <SCORE.INTRA>
-2.73032

>  <SCORE.INTRA.DIHEDRAL>
-5.05832

>  <SCORE.INTRA.DIHEDRAL.0>
6.26853

>  <SCORE.INTRA.POLAR>
0

>  <SCORE.INTRA.POLAR.0>
0

>  <SCORE.INTRA.REPUL>
0

>  <SCORE.INTRA.REPUL.0>
0

>  <SCORE.INTRA.SOLV>
-0.25685

>  <SCORE.INTRA.SOLV.lig_0>
-38.4926

>  <SCORE.INTRA.VDW>
-0.0727348

>  <SCORE.INTRA.VDW.0>
-0.59057

>  <SCORE.INTRA.norm>
-0.143701

>  <SCORE.RESTR>
0

>  <SCORE.RESTR.CAVITY>
0

>  <SCORE.RESTR.norm>
0

>  <SCORE.SYSTEM>
0

>  <SCORE.SYSTEM.CONST>
0

>  <SCORE.SYSTEM.DIHEDRAL>
0

>  <SCORE.SYSTEM.SOLV>
0

>  <SCORE.SYSTEM.norm>
0

>  <SCORE.heavy>
19

>  <SCORE.norm>
-0.904922

>  <RMSD>
8.001

$$$$
ligand
 OpenBabel11021811483D
libRbt.so/2013.1/901 2013/11/27
 19 21  0  0  0  0  0  0  0  0999 V2000
   -7.3490   -9.9324   10.4575 C   0  0  0  0  0  0  0  0  0  0  0  0
   -6.9269   -9.8714   11.8280 O   0  0  0  0  0  0  0  0  0  0  0  0
   -7.4411   -8.5245    9.8648 C   0  0  1  0  0  0  0  0  0  0  0  0
   -7.6756   -8.5839    8.4448 O   0  0  0  0  0  0  0  0  0  0  0  0
   -8.5940   -7.7487   10.4769 C   0  0  1  0  0  0  0  0  0  0  0  0
   -8.1223   -6.7847   11.4265 O   0  0  0  0  0  0  0  0  0  0  0  0
   -9.2858   -7.0593    9.3209 C   0  0  0  0  0  0  0  0  0  0  0  0
   -8.7721   -7.7412    8.0613 C   0  0  2  0  0  0  0  0  0  0  0  0
  -13.5831   -7.7118    5.9525 N   0  0  0  0  0  0  0  0  0  0  0  0
  -12.8561   -6.6885    6.4765 C   0  0  1  0  0  0  0  0  0  0  0  0
  -13.3886   -5.4435    6.4928 N   0  0  0  0  0  0  0  0  0  0  0  0
  -11.6106   -6.8874    6.9876 N   0  0  0  0  0  0  0  0  0  0  0  0
  -11.0305   -8.1182    6.9978 C   0  0  2  0  0  0  0  0  0  0  0  0
  -11.7233   -9.1969    6.4786 C   0  0  1  0  0  0  0  0  0  0  0  0
  -13.0807   -8.9659    5.9222 C   0  0  0  0  0  0  0  0  0  0  0  0
  -13.7446   -9.9088    5.4361 O   0  0  0  0  0  0  0  0  0  0  0  0
  -10.9411  -10.2836    6.5996 N   0  0  0  0  0  0  0  0  0  0  0  0
   -9.7874   -9.8901    7.1881 C   0  0  0  0  0  0  0  0  0  0  0  0
   -9.8436   -8.5680    7.4315 N   0  0  1  0  0  0  0  0  0  0  0  0
  1  2  1  0  0  0  0
  3  1  1  1  0  0  0
  3  4  1  0  0  0  0
  3  5  1  0  0  0  0
  5  6  1  1  0  0  0
  5  7  1  0  0  0  0
  7  8  1  0  0  0  0
  8  4  1  1  0  0  0
  8 19  1  0  0  0  0
  9 15  1  0  0  0  0
  9 10  1  0  0  0  0
 10 11  1  1  0  0  0
 10 12  1  0  0  0  0
 13 12  1  1  0  0  0
 13 14  1  0  0  0  0
 13 19  1  0  0  0  0
 14 15  1  6  0  0  0
 14 17  1  0  0  0  0
 15 16  2  0  0  0  0
 17 18  1  0  0  0  0
 19 18  1  6  0  0  0
M  END
>  <CHROM.1>
171.74878564,177.50408245,-10.23634874,-8.31905829,8.06746589,-0.16341148
0.68458596,-2.76924550

>  <Name>
ligand

>  <RI>
0

>  <Rbt.Current_Directory>
/home/itssahil/PROJECTS/Mol_Feturizer/New_Systems/rnas/3SKI

>  <Rbt.Executable>
rbdock ($Id: //depot/dev/client3/rdock/2013.1/src/exe/rbdock.cxx#4 $)

>  <Rbt.Library>
libRbt.so (2013.1, Build901 2013/11/27)

>  <Rbt.Parameter_File>
/export/apps/rDock/src/rDock_2013.1_src/data/scripts/dock_solv.prm

>  <Rbt.Receptor>
prm/pocket_docking_7.prm

>  <SCORE>
-16.8948

>  <SCORE.INTER>
-14.1464

>  <SCORE.INTER.CONST>
1

>  <SCORE.INTER.POLAR>
0

>  <SCORE.INTER.ROT>
2

>  <SCORE.INTER.SOLV>
7.68333

>  <SCORE.INTER.VDW>
-16.9254

>  <SCORE.INTER.norm>
-0.744547

>  <SCORE.INTRA>
-2.74838

>  <SCORE.INTRA.DIHEDRAL>
-4.82889

>  <SCORE.INTRA.DIHEDRAL.0>
6.26853

>  <SCORE.INTRA.POLAR>
0

>  <SCORE.INTRA.POLAR.0>
0

>  <SCORE.INTRA.REPUL>
0

>  <SCORE.INTRA.REPUL.0>
0

>  <SCORE.INTRA.SOLV>
-0.0587296

>  <SCORE.INTRA.SOLV.lig_0>
-38.4926

>  <SCORE.INTRA.VDW>
-0.304574

>  <SCORE.INTRA.VDW.0>
-0.59057

>  <SCORE.INTRA.norm>
-0.144652

>  <SCORE.RESTR>
0

>  <SCORE.RESTR.CAVITY>
0

>  <SCORE.RESTR.norm>
0

>  <SCORE.SYSTEM>
0

>  <SCORE.SYSTEM.CONST>
0

>  <SCORE.SYSTEM.DIHEDRAL>
0

>  <SCORE.SYSTEM.SOLV>
0

>  <SCORE.SYSTEM.norm>
0

>  <SCORE.heavy>
19

>  <SCORE.norm>
-0.889198

>  <RMSD>
8.001

$$$$
ligand
 OpenBabel11021811483D
libRbt.so/2013.1/901 2013/11/27
 19 21  0  0  0  0  0  0  0  0999 V2000
   -8.1096   -9.4497   11.0983 C   0  0  0  0  0  0  0  0  0  0  0  0
   -7.0568  -10.4040   10.8957 O   0  0  0  0  0  0  0  0  0  0  0  0
   -7.8907   -8.2189   10.2157 C   0  0  1  0  0  0  0  0  0  0  0  0
   -7.8980   -8.5834    8.8222 O   0  0  0  0  0  0  0  0  0  0  0  0
   -8.9971   -7.1986   10.4173 C   0  0  1  0  0  0  0  0  0  0  0  0
   -8.5457   -6.0969   11.2148 O   0  0  0  0  0  0  0  0  0  0  0  0
   -9.3801   -6.7275    9.0312 C   0  0  0  0  0  0  0  0  0  0  0  0
   -8.7778   -7.7384    8.0663 C   0  0  2  0  0  0  0  0  0  0  0  0
  -13.5728   -7.7115    5.9213 N   0  0  0  0  0  0  0  0  0  0  0  0
  -12.8488   -6.6871    6.4474 C   0  0  1  0  0  0  0  0  0  0  0  0
  -13.3802   -5.4416    6.4557 N   0  0  0  0  0  0  0  0  0  0  0  0
  -11.6073   -6.8855    6.9685 N   0  0  0  0  0  0  0  0  0  0  0  0
  -11.0285   -8.1168    6.9871 C   0  0  2  0  0  0  0  0  0  0  0  0
  -11.7184   -9.1966    6.4663 C   0  0  1  0  0  0  0  0  0  0  0  0
  -13.0714   -8.9662    5.8989 C   0  0  0  0  0  0  0  0  0  0  0  0
  -13.7325   -9.9100    5.4110 O   0  0  0  0  0  0  0  0  0  0  0  0
  -10.9382  -10.2836    6.5967 N   0  0  0  0  0  0  0  0  0  0  0  0
   -9.7886   -9.8892    7.1926 C   0  0  0  0  0  0  0  0  0  0  0  0
   -9.8453   -8.5663    7.4312 N   0  0  1  0  0  0  0  0  0  0  0  0
  1  2  1  0  0  0  0
  3  1  1  1  0  0  0
  3  4  1  0  0  0  0
  3  5  1  0  0  0  0
  5  6  1  1  0  0  0
  5  7  1  0  0  0  0
  7  8  1  0  0  0  0
  8  4  1  1  0  0  0
  8 19  1  0  0  0  0
  9 15  1  0  0  0  0
  9 10  1  0  0  0  0
 10 11  1  1  0  0  0
 10 12  1  0  0  0  0
 13 12  1  1  0  0  0
 13 14  1  0  0  0  0
 13 19  1  0  0  0  0
 14 15  1  6  0  0  0
 14 17  1  0  0  0  0
 15 16  2  0  0  0  0
 17 18  1  0  0  0  0
 19 18  1  6  0  0  0
M  END
>  <CHROM.1>
61.05211916,159.65079585,-10.36954226,-8.22257702,8.04446080,-0.18455694
0.70104949,-2.79044463

>  <Name>
ligand

>  <RI>
0

>  <Rbt.Current_Directory>
/home/itssahil/PROJECTS/Mol_Feturizer/New_Systems/rnas/3SKI

>  <Rbt.Executable>
rbdock ($Id: //depot/dev/client3/rdock/2013.1/src/exe/rbdock.cxx#4 $)

>  <Rbt.Library>
libRbt.so (2013.1, Build901 2013/11/27)

>  <Rbt.Parameter_File>
/export/apps/rDock/src/rDock_2013.1_src/data/scripts/dock_solv.prm

>  <Rbt.Receptor>
prm/pocket_docking_8.prm

>  <SCORE>
-17.1803

>  <SCORE.INTER>
-14.4631

>  <SCORE.INTER.CONST>
1

>  <SCORE.INTER.POLAR>
0

>  <SCORE.INTER.ROT>
2

>  <SCORE.INTER.SOLV>
7.5749

>  <SCORE.INTER.VDW>
-17.1004

>  <SCORE.INTER.norm>
-0.761216

>  <SCORE.INTRA>
-2.71716

>  <SCORE.INTRA.DIHEDRAL>
-5.0777

>  <SCORE.INTRA.DIHEDRAL.0>
6.26853

>  <SCORE.INTRA.POLAR>
0

>  <SCORE.INTRA.POLAR.0>
0

>  <SCORE.INTRA.REPUL>
0

>  <SCORE.INTRA.REPUL.0>
0

>  <SCORE.INTRA.SOLV>
-0.251353

>  <SCORE.INTRA.SOLV.lig_0>
-38.4926

>  <SCORE.INTRA.VDW>
-0.0526319

>  <SCORE.INTRA.VDW.0>
-0.59057

>  <SCORE.INTRA.norm>
-0.143008

>  <SCORE.RESTR>
0

>  <SCORE.RESTR.CAVITY>
0

>  <SCORE.RESTR.norm>
0

>  <SCORE.SYSTEM>
0

>  <SCORE.SYSTEM.CONST>
0

>  <SCORE.SYSTEM.DIHEDRAL>
0

>  <SCORE.SYSTEM.SOLV>
0

>  <SCORE.SYSTEM.norm>
0

>  <SCORE.heavy>
19

>  <SCORE.norm>
-0.904224

>  <RMSD>
8.002

$$$$
ligand
 OpenBabel11021811483D
libRbt.so/2013.1/901 2013/11/27
 19 21  0  0  0  0  0  0  0  0999 V2000
   -7.3516   -9.9314   10.4576 C   0  0  0  0  0  0  0  0  0  0  0  0
   -6.9410   -9.8696   11.8316 O   0  0  0  0  0  0  0  0  0  0  0  0
   -7.4442   -8.5236    9.8649 C   0  0  1  0  0  0  0  0  0  0  0  0
   -7.6768   -8.5831    8.4446 O   0  0  0  0  0  0  0  0  0  0  0  0
   -8.5987   -7.7488   10.4755 C   0  0  1  0  0  0  0  0  0  0  0  0
   -8.1292   -6.7845   11.4258 O   0  0  0  0  0  0  0  0  0  0  0  0
   -9.2895   -7.0600    9.3187 C   0  0  0  0  0  0  0  0  0  0  0  0
   -8.7736   -7.7414    8.0597 C   0  0  2  0  0  0  0  0  0  0  0  0
  -13.5807   -7.7159    5.9421 N   0  0  0  0  0  0  0  0  0  0  0  0
  -12.8552   -6.6919    6.4669 C   0  0  1  0  0  0  0  0  0  0  0  0
  -13.3885   -5.4471    6.4815 N   0  0  0  0  0  0  0  0  0  0  0  0
  -11.6106   -6.8898    6.9804 N   0  0  0  0  0  0  0  0  0  0  0  0
  -11.0297   -8.1202    6.9922 C   0  0  2  0  0  0  0  0  0  0  0  0
  -11.7210   -9.1997    6.4724 C   0  0  1  0  0  0  0  0  0  0  0  0
  -13.0776   -8.9698    5.9134 C   0  0  0  0  0  0  0  0  0  0  0  0
  -13.7400   -9.9133    5.4266 O   0  0  0  0  0  0  0  0  0  0  0  0
  -10.9384  -10.2858    6.5954 N   0  0  0  0  0  0  0  0  0  0  0  0
   -9.7861   -9.8914    7.1859 C   0  0  0  0  0  0  0  0  0  0  0  0
   -9.8434   -8.5692    7.4284 N   0  0  1  0  0  0  0  0  0  0  0  0
  1  2  1  0  0  0  0
  3  1  1  1  0  0  0
  3  4  1  0  0  0  0
  3  5  1  0  0  0  0
  5  6  1  1  0  0  0
  5  7  1  0  0  0  0
  7  8  1  0  0  0  0
  8  4  1  1  0  0  0
  8 19  1  0  0  0  0
  9 15  1  0  0  0  0
  9 10  1  0  0  0  0
 10 11  1  1  0  0  0
 10 12  1  0  0  0  0
 13 12  1  1  0  0  0
 13 14  1  0  0  0  0
 13 19  1  0  0  0  0
 14 15  1  6  0  0  0
 14 17  1  0  0  0  0
 15 16  2  0  0  0  0
 17 18  1  0  0  0  0
 19 18  1  6  0  0  0
M  END
>  <CHROM.1>
172.17371424,177.55407880,-10.23755710,-8.32044853,8.06335327,-0.16474588
0.68615592,-2.76898684

>  <Name>
ligand

>  <RI>
0

>  <Rbt.Current_Directory>
/home/itssahil/PROJECTS/Mol_Feturizer/New_Systems/rnas/3SKI

>  <Rbt.Executable>
rbdock ($Id: //depot/dev/client3/rdock/2013.1/src/exe/rbdock.cxx#4 $)

>  <Rbt.Library>
libRbt.so (2013.1, Build901 2013/11/27)

>  <Rbt.Parameter_File>
/export/apps/rDock/src/rDock_2013.1_src/data/scripts/dock_solv.prm

>  <Rbt.Receptor>
prm/blind_docking_20.prm

>  <SCORE>
-16.8916

>  <SCORE.INTER>
-14.134

>  <SCORE.INTER.CONST>
1

>  <SCORE.INTER.POLAR>
0

>  <SCORE.INTER.ROT>
2

>  <SCORE.INTER.SOLV>
7.70735

>  <SCORE.INTER.VDW>
-16.9251

>  <SCORE.INTER.norm>
-0.743893

>  <SCORE.INTRA>
-2.75767

>  <SCORE.INTRA.DIHEDRAL>
-4.85267

>  <SCORE.INTRA.DIHEDRAL.0>
6.26853

>  <SCORE.INTRA.POLAR>
0

>  <SCORE.INTRA.POLAR.0>
0

>  <SCORE.INTRA.REPUL>
0

>  <SCORE.INTRA.REPUL.0>
0

>  <SCORE.INTRA.SOLV>
-0.0565202

>  <SCORE.INTRA.SOLV.lig_0>
-38.4926

>  <SCORE.INTRA.VDW>
-0.303078

>  <SCORE.INTRA.VDW.0>
-0.59057

>  <SCORE.INTRA.norm>
-0.145141

>  <SCORE.RESTR>
0

>  <SCORE.RESTR.CAVITY>
0

>  <SCORE.RESTR.norm>
0

>  <SCORE.SYSTEM>
0

>  <SCORE.SYSTEM.CONST>
0

>  <SCORE.SYSTEM.DIHEDRAL>
0

>  <SCORE.SYSTEM.SOLV>
0

>  <SCORE.SYSTEM.norm>
0

>  <SCORE.heavy>
19

>  <SCORE.norm>
-0.889034

>  <RMSD>
8.003

$$$$
ligand
 OpenBabel11021811483D
libRbt.so/2013.1/901 2013/11/27
 19 21  0  0  0  0  0  0  0  0999 V2000
   -7.3554   -9.9285   10.4570 C   0  0  0  0  0  0  0  0  0  0  0  0
   -6.9386   -9.8675   11.8291 O   0  0  0  0  0  0  0  0  0  0  0  0
   -7.4490   -8.5205    9.8650 C   0  0  1  0  0  0  0  0  0  0  0  0
   -7.6797   -8.5794    8.4443 O   0  0  0  0  0  0  0  0  0  0  0  0
   -8.6053   -7.7476   10.4745 C   0  0  1  0  0  0  0  0  0  0  0  0
   -8.1383   -6.7832   11.4260 O   0  0  0  0  0  0  0  0  0  0  0  0
   -9.2955   -7.0589    9.3172 C   0  0  0  0  0  0  0  0  0  0  0  0
   -8.7771   -7.7389    8.0585 C   0  0  2  0  0  0  0  0  0  0  0  0
  -13.5847   -7.7197    5.9421 N   0  0  0  0  0  0  0  0  0  0  0  0
  -12.8617   -6.6953    6.4694 C   0  0  1  0  0  0  0  0  0  0  0  0
  -13.3980   -5.4519    6.4874 N   0  0  0  0  0  0  0  0  0  0  0  0
  -11.6164   -6.8915    6.9821 N   0  0  0  0  0  0  0  0  0  0  0  0
  -11.0326   -8.1205    6.9906 C   0  0  2  0  0  0  0  0  0  0  0  0
  -11.7213   -9.2003    6.4682 C   0  0  1  0  0  0  0  0  0  0  0  0
  -13.0786   -8.9723    5.9101 C   0  0  0  0  0  0  0  0  0  0  0  0
  -13.7388   -9.9162    5.4210 O   0  0  0  0  0  0  0  0  0  0  0  0
  -10.9360  -10.2849    6.5882 N   0  0  0  0  0  0  0  0  0  0  0  0
   -9.7845   -9.8891    7.1794 C   0  0  0  0  0  0  0  0  0  0  0  0
   -9.8451   -8.5677    7.4253 N   0  0  1  0  0  0  0  0  0  0  0  0
  1  2  1  0  0  0  0
  3  1  1  1  0  0  0
  3  4  1  0  0  0  0
  3  5  1  0  0  0  0
  5  6  1  1  0  0  0
  5  7  1  0  0  0  0
  7  8  1  0  0  0  0
  8  4  1  1  0  0  0
  8 19  1  0  0  0  0
  9 15  1  0  0  0  0
  9 10  1  0  0  0  0
 10 11  1  1  0  0  0
 10 12  1  0  0  0  0
 13 12  1  1  0  0  0
 13 14  1  0  0  0  0
 13 19  1  0  0  0  0
 14 15  1  6  0  0  0
 14 17  1  0  0  0  0
 15 16  2  0  0  0  0
 17 18  1  0  0  0  0
 19 18  1  6  0  0  0
M  END
>  <CHROM.1>
171.81417993,177.39446022,-10.24075236,-8.32026931,8.06189794,-0.16829679
0.68543812,-2.76458109

>  <Name>
ligand

>  <RI>
0

>  <Rbt.Current_Directory>
/home/itssahil/PROJECTS/Mol_Feturizer/New_Systems/rnas/3SKI

>  <Rbt.Executable>
rbdock ($Id: //depot/dev/client3/rdock/2013.1/src/exe/rbdock.cxx#4 $)

>  <Rbt.Library>
libRbt.so (2013.1, Build901 2013/11/27)

>  <Rbt.Parameter_File>
/export/apps/rDock/src/rDock_2013.1_src/data/scripts/dock_solv.prm

>  <Rbt.Receptor>
prm/pocket_docking_8.prm

>  <SCORE>
-16.8894

>  <SCORE.INTER>
-14.141

>  <SCORE.INTER.CONST>
1

>  <SCORE.INTER.POLAR>
0

>  <SCORE.INTER.ROT>
2

>  <SCORE.INTER.SOLV>
7.69183

>  <SCORE.INTER.VDW>
-16.9246

>  <SCORE.INTER.norm>
-0.744262

>  <SCORE.INTRA>
-2.74846

>  <SCORE.INTRA.DIHEDRAL>
-4.83274

>  <SCORE.INTRA.DIHEDRAL.0>
6.26853

>  <SCORE.INTRA.POLAR>
0

>  <SCORE.INTRA.POLAR.0>
0

>  <SCORE.INTRA.REPUL>
0

>  <SCORE.INTRA.REPUL.0>
0

>  <SCORE.INTRA.SOLV>
-0.058434

>  <SCORE.INTRA.SOLV.lig_0>
-38.4926

>  <SCORE.INTRA.VDW>
-0.302879

>  <SCORE.INTRA.VDW.0>
-0.59057

>  <SCORE.INTRA.norm>
-0.144656

>  <SCORE.RESTR>
0

>  <SCORE.RESTR.CAVITY>
0

>  <SCORE.RESTR.norm>
0

>  <SCORE.SYSTEM>
0

>  <SCORE.SYSTEM.CONST>
0

>  <SCORE.SYSTEM.DIHEDRAL>
0

>  <SCORE.SYSTEM.SOLV>
0

>  <SCORE.SYSTEM.norm>
0

>  <SCORE.heavy>
19

>  <SCORE.norm>
-0.888918

>  <RMSD>
8.005

$$$$
ligand
 OpenBabel11021811483D
libRbt.so/2013.1/901 2013/11/27
 19 21  0  0  0  0  0  0  0  0999 V2000
   -8.0956   -9.4406   11.0992 C   0  0  0  0  0  0  0  0  0  0  0  0
   -7.0733  -10.4202   10.8635 O   0  0  0  0  0  0  0  0  0  0  0  0
   -7.8767   -8.2165   10.2073 C   0  0  1  0  0  0  0  0  0  0  0  0
   -7.8936   -8.5901    8.8162 O   0  0  0  0  0  0  0  0  0  0  0  0
   -8.9777   -7.1902   10.4086 C   0  0  1  0  0  0  0  0  0  0  0  0
   -8.5170   -6.0852   11.1962 O   0  0  0  0  0  0  0  0  0  0  0  0
   -9.3668   -6.7266    9.0216 C   0  0  0  0  0  0  0  0  0  0  0  0
   -8.7744   -7.7463    8.0599 C   0  0  2  0  0  0  0  0  0  0  0  0
  -13.5739   -7.7102    5.9254 N   0  0  0  0  0  0  0  0  0  0  0  0
  -12.8417   -6.6851    6.4385 C   0  0  1  0  0  0  0  0  0  0  0  0
  -13.3645   -5.4358    6.4339 N   0  0  0  0  0  0  0  0  0  0  0  0
  -11.6005   -6.8862    6.9590 N   0  0  0  0  0  0  0  0  0  0  0  0
  -11.0300   -8.1211    6.9900 C   0  0  2  0  0  0  0  0  0  0  0  0
  -11.7286   -9.2019    6.4828 C   0  0  1  0  0  0  0  0  0  0  0  0
  -13.0813   -8.9685    5.9159 C   0  0  0  0  0  0  0  0  0  0  0  0
  -13.7500   -9.9132    5.4400 O   0  0  0  0  0  0  0  0  0  0  0  0
  -10.9556  -10.2927    6.6237 N   0  0  0  0  0  0  0  0  0  0  0  0
   -9.8019   -9.8997    7.2126 C   0  0  0  0  0  0  0  0  0  0  0  0
   -9.8490   -8.5738    7.4365 N   0  0  1  0  0  0  0  0  0  0  0  0
  1  2  1  0  0  0  0
  3  1  1  1  0  0  0
  3  4  1  0  0  0  0
  3  5  1  0  0  0  0
  5  6  1  1  0  0  0
  5  7  1  0  0  0  0
  7  8  1  0  0  0  0
  8  4  1  1  0  0  0
  8 19  1  0  0  0  0
  9 15  1  0  0  0  0
  9 10  1  0  0  0  0
 10 11  1  1  0  0  0
 10 12  1  0  0  0  0
 13 12  1  1  0  0  0
 13 14  1  0  0  0  0
 13 19  1  0  0  0  0
 14 15  1  6  0  0  0
 14 17  1  0  0  0  0
 15 16  2  0  0  0  0
 17 18  1  0  0  0  0
 19 18  1  6  0  0  0
M  END
>  <CHROM.1>
59.08852151,160.02068236,-10.36755952,-8.22426052,8.04359455,-0.17369462
0.69958229,-2.80635819

>  <Name>
ligand

>  <RI>
0

>  <Rbt.Current_Directory>
/home/itssahil/PROJECTS/Mol_Feturizer/New_Systems/rnas/3SKI

>  <Rbt.Executable>
rbdock ($Id: //depot/dev/client3/rdock/2013.1/src/exe/rbdock.cxx#4 $)

>  <Rbt.Library>
libRbt.so (2013.1, Build901 2013/11/27)

>  <Rbt.Parameter_File>
/export/apps/rDock/src/rDock_2013.1_src/data/scripts/dock_solv.prm

>  <Rbt.Receptor>
prm/pocket_docking_8.prm

>  <SCORE>
-17.1391

>  <SCORE.INTER>
-14.4183

>  <SCORE.INTER.CONST>
1

>  <SCORE.INTER.POLAR>
0

>  <SCORE.INTER.ROT>
2

>  <SCORE.INTER.SOLV>
7.59137

>  <SCORE.INTER.VDW>
-17.076

>  <SCORE.INTER.norm>
-0.758856

>  <SCORE.INTRA>
-2.72085

>  <SCORE.INTRA.DIHEDRAL>
-5.07922

>  <SCORE.INTRA.DIHEDRAL.0>
6.26853

>  <SCORE.INTRA.POLAR>
0

>  <SCORE.INTRA.POLAR.0>
0

>  <SCORE.INTRA.REPUL>
0

>  <SCORE.INTRA.REPUL.0>
0

>  <SCORE.INTRA.SOLV>
-0.243879

>  <SCORE.INTRA.SOLV.lig_0>
-38.4926

>  <SCORE.INTRA.VDW>
-0.0592942

>  <SCORE.INTRA.VDW.0>
-0.59057

>  <SCORE.INTRA.norm>
-0.143202

>  <SCORE.RESTR>
0

>  <SCORE.RESTR.CAVITY>
0

>  <SCORE.RESTR.norm>
0

>  <SCORE.SYSTEM>
0

>  <SCORE.SYSTEM.CONST>
0

>  <SCORE.SYSTEM.DIHEDRAL>
0

>  <SCORE.SYSTEM.SOLV>
0

>  <SCORE.SYSTEM.norm>
0

>  <SCORE.heavy>
19

>  <SCORE.norm>
-0.902058

>  <RMSD>
8.006

$$$$
ligand
 OpenBabel11021811483D
libRbt.so/2013.1/901 2013/11/27
 19 21  0  0  0  0  0  0  0  0999 V2000
   -8.1106   -9.4532   11.0953 C   0  0  0  0  0  0  0  0  0  0  0  0
   -7.0358  -10.3875   10.9158 O   0  0  0  0  0  0  0  0  0  0  0  0
   -7.8969   -8.2194   10.2156 C   0  0  1  0  0  0  0  0  0  0  0  0
   -7.9037   -8.5805    8.8211 O   0  0  0  0  0  0  0  0  0  0  0  0
   -9.0071   -7.2038   10.4204 C   0  0  1  0  0  0  0  0  0  0  0  0
   -8.5594   -6.1024   11.2204 O   0  0  0  0  0  0  0  0  0  0  0  0
   -9.3927   -6.7308    9.0356 C   0  0  0  0  0  0  0  0  0  0  0  0
   -8.7872   -7.7369    8.0679 C   0  0  2  0  0  0  0  0  0  0  0  0
  -13.5887   -7.7253    5.9375 N   0  0  0  0  0  0  0  0  0  0  0  0
  -12.8690   -6.6998    6.4672 C   0  0  1  0  0  0  0  0  0  0  0  0
  -13.4074   -5.4574    6.4840 N   0  0  0  0  0  0  0  0  0  0  0  0
  -11.6248   -6.8941    6.9835 N   0  0  0  0  0  0  0  0  0  0  0  0
  -11.0389   -8.1221    6.9933 C   0  0  2  0  0  0  0  0  0  0  0  0
  -11.7243   -9.2029    6.4686 C   0  0  1  0  0  0  0  0  0  0  0  0
  -13.0803   -8.9770    5.9066 C   0  0  0  0  0  0  0  0  0  0  0  0
  -13.7375   -9.9219    5.4154 O   0  0  0  0  0  0  0  0  0  0  0  0
  -10.9376  -10.2861    6.5906 N   0  0  0  0  0  0  0  0  0  0  0  0
   -9.7884   -9.8886    7.1852 C   0  0  0  0  0  0  0  0  0  0  0  0
   -9.8519   -8.5673    7.4314 N   0  0  1  0  0  0  0  0  0  0  0  0
  1  2  1  0  0  0  0
  3  1  1  1  0  0  0
  3  4  1  0  0  0  0
  3  5  1  0  0  0  0
  5  6  1  1  0  0  0
  5  7  1  0  0  0  0
  7  8  1  0  0  0  0
  8  4  1  1  0  0  0
  8 19  1  0  0  0  0
  9 15  1  0  0  0  0
  9 10  1  0  0  0  0
 10 11  1  1  0  0  0
 10 12  1  0  0  0  0
 13 12  1  1  0  0  0
 13 14  1  0  0  0  0
 13 19  1  0  0  0  0
 14 15  1  6  0  0  0
 14 17  1  0  0  0  0
 15 16  2  0  0  0  0
 17 18  1  0  0  0  0
 19 18  1  6  0  0  0
M  END
>  <CHROM.1>
62.56884357,159.40188021,-10.37742401,-8.22685273,8.05073911,-0.19115382
0.69741115,-2.78217507

>  <Name>
ligand

>  <RI>
0

>  <Rbt.Current_Directory>
/home/itssahil/PROJECTS/Mol_Feturizer/New_Systems/rnas/3SKI

>  <Rbt.Executable>
rbdock ($Id: //depot/dev/client3/rdock/2013.1/src/exe/rbdock.cxx#4 $)

>  <Rbt.Library>
libRbt.so (2013.1, Build901 2013/11/27)

>  <Rbt.Parameter_File>
/export/apps/rDock/src/rDock_2013.1_src/data/scripts/dock_solv.prm

>  <Rbt.Receptor>
prm/blind_docking_20.prm

>  <SCORE>
-17.1828

>  <SCORE.INTER>
-14.4581

>  <SCORE.INTER.CONST>
1

>  <SCORE.INTER.POLAR>
0

>  <SCORE.INTER.ROT>
2

>  <SCORE.INTER.SOLV>
7.49082

>  <SCORE.INTER.VDW>
-17.069

>  <SCORE.INTER.norm>
-0.760952

>  <SCORE.INTRA>
-2.72466

>  <SCORE.INTRA.DIHEDRAL>
-5.05745

>  <SCORE.INTRA.DIHEDRAL.0>
6.26853

>  <SCORE.INTRA.POLAR>
0

>  <SCORE.INTRA.POLAR.0>
0

>  <SCORE.INTRA.REPUL>
0

>  <SCORE.INTRA.REPUL.0>
0

>  <SCORE.INTRA.SOLV>
-0.25707

>  <SCORE.INTRA.SOLV.lig_0>
-38.4926

>  <SCORE.INTRA.VDW>
-0.0673973

>  <SCORE.INTRA.VDW.0>
-0.59057

>  <SCORE.INTRA.norm>
-0.143403

>  <SCORE.RESTR>
0

>  <SCORE.RESTR.CAVITY>
0

>  <SCORE.RESTR.norm>
0

>  <SCORE.SYSTEM>
0

>  <SCORE.SYSTEM.CONST>
0

>  <SCORE.SYSTEM.DIHEDRAL>
0

>  <SCORE.SYSTEM.SOLV>
0

>  <SCORE.SYSTEM.norm>
0

>  <SCORE.heavy>
19

>  <SCORE.norm>
-0.904356

>  <RMSD>
8.009

$$$$
ligand
 OpenBabel11021811483D
libRbt.so/2013.1/901 2013/11/27
 19 21  0  0  0  0  0  0  0  0999 V2000
   -7.3438   -9.9405   10.4589 C   0  0  0  0  0  0  0  0  0  0  0  0
   -6.9415   -9.8803   11.8354 O   0  0  0  0  0  0  0  0  0  0  0  0
   -7.4447   -8.5313    9.8708 C   0  0  1  0  0  0  0  0  0  0  0  0
   -7.6872   -8.5876    8.4520 O   0  0  0  0  0  0  0  0  0  0  0  0
   -8.5970   -7.7616   10.4917 C   0  0  1  0  0  0  0  0  0  0  0  0
   -8.1235   -6.7985   11.4413 O   0  0  0  0  0  0  0  0  0  0  0  0
   -9.2981   -7.0716    9.3417 C   0  0  0  0  0  0  0  0  0  0  0  0
   -8.7892   -7.7480    8.0772 C   0  0  2  0  0  0  0  0  0  0  0  0
  -13.5732   -7.7151    5.9082 N   0  0  0  0  0  0  0  0  0  0  0  0
  -12.8424   -6.6884    6.4200 C   0  0  1  0  0  0  0  0  0  0  0  0
  -13.3625   -5.4381    6.4039 N   0  0  0  0  0  0  0  0  0  0  0  0
  -11.6054   -6.8888    6.9507 N   0  0  0  0  0  0  0  0  0  0  0  0
  -11.0379   -8.1248    6.9935 C   0  0  2  0  0  0  0  0  0  0  0  0
  -11.7351   -9.2072    6.4881 C   0  0  1  0  0  0  0  0  0  0  0  0
  -13.0832   -8.9745    5.9101 C   0  0  0  0  0  0  0  0  0  0  0  0
  -13.7506   -9.9207    5.4354 O   0  0  0  0  0  0  0  0  0  0  0  0
  -10.9656  -10.2988    6.6414 N   0  0  0  0  0  0  0  0  0  0  0  0
   -9.8153   -9.9046    7.2361 C   0  0  0  0  0  0  0  0  0  0  0  0
   -9.8611   -8.5772    7.4513 N   0  0  1  0  0  0  0  0  0  0  0  0
  1  2  1  0  0  0  0
  3  1  1  1  0  0  0
  3  4  1  0  0  0  0
  3  5  1  0  0  0  0
  5  6  1  1  0  0  0
  5  7  1  0  0  0  0
  7  8  1  0  0  0  0
  8  4  1  1  0  0  0
  8 19  1  0  0  0  0
  9 15  1  0  0  0  0
  9 10  1  0  0  0  0
 10 11  1  1  0  0  0
 10 12  1  0  0  0  0
 13 12  1  1  0  0  0
 13 14  1  0  0  0  0
 13 19  1  0  0  0  0
 14 15  1  6  0  0  0
 14 17  1  0  0  0  0
 15 16  2  0  0  0  0
 17 18  1  0  0  0  0
 19 18  1  6  0  0  0
M  END
>  <CHROM.1>
172.96928993,179.38497036,-10.24164688,-8.32692333,8.06571801,-0.14847127
0.69284270,-2.79292539

>  <Name>
ligand

>  <RI>
0

>  <Rbt.Current_Directory>
/home/itssahil/PROJECTS/Mol_Feturizer/New_Systems/rnas/3SKI

>  <Rbt.Executable>
rbdock ($Id: //depot/dev/client3/rdock/2013.1/src/exe/rbdock.cxx#4 $)

>  <Rbt.Library>
libRbt.so (2013.1, Build901 2013/11/27)

>  <Rbt.Parameter_File>
/export/apps/rDock/src/rDock_2013.1_src/data/scripts/dock_solv.prm

>  <Rbt.Receptor>
prm/pocket_docking_7.prm

>  <SCORE>
-16.8496

>  <SCORE.INTER>
-14.0566

>  <SCORE.INTER.CONST>
1

>  <SCORE.INTER.POLAR>
0

>  <SCORE.INTER.ROT>
2

>  <SCORE.INTER.SOLV>
7.78382

>  <SCORE.INTER.VDW>
-16.899

>  <SCORE.INTER.norm>
-0.739822

>  <SCORE.INTRA>
-2.79303

>  <SCORE.INTRA.DIHEDRAL>
-4.89229

>  <SCORE.INTRA.DIHEDRAL.0>
6.26853

>  <SCORE.INTRA.POLAR>
0

>  <SCORE.INTRA.POLAR.0>
0

>  <SCORE.INTRA.REPUL>
0

>  <SCORE.INTRA.REPUL.0>
0

>  <SCORE.INTRA.SOLV>
-0.0517436

>  <SCORE.INTRA.SOLV.lig_0>
-38.4926

>  <SCORE.INTRA.VDW>
-0.321017

>  <SCORE.INTRA.VDW.0>
-0.59057

>  <SCORE.INTRA.norm>
-0.147002

>  <SCORE.RESTR>
0

>  <SCORE.RESTR.CAVITY>
0

>  <SCORE.RESTR.norm>
0

>  <SCORE.SYSTEM>
0

>  <SCORE.SYSTEM.CONST>
0

>  <SCORE.SYSTEM.DIHEDRAL>
0

>  <SCORE.SYSTEM.SOLV>
0

>  <SCORE.SYSTEM.norm>
0

>  <SCORE.heavy>
19

>  <SCORE.norm>
-0.886823

>  <RMSD>
8.010

$$$$
ligand
 OpenBabel11021811483D
libRbt.so/2013.1/901 2013/11/27
 19 21  0  0  0  0  0  0  0  0999 V2000
  -12.8217   -9.5516    7.3164 C   0  0  0  0  0  0  0  0  0  0  0  0
  -13.9784   -9.4955    6.4684 O   0  0  0  0  0  0  0  0  0  0  0  0
  -11.5983   -8.9919    6.5871 C   0  0  1  0  0  0  0  0  0  0  0  0
  -11.7927   -7.6032    6.2576 O   0  0  0  0  0  0  0  0  0  0  0  0
  -10.3574   -9.0757    7.4584 C   0  0  1  0  0  0  0  0  0  0  0  0
   -9.5030  -10.1473    7.0398 O   0  0  0  0  0  0  0  0  0  0  0  0
   -9.6540   -7.7450    7.3020 C   0  0  0  0  0  0  0  0  0  0  0  0
  -10.6725   -6.8070    6.6709 C   0  0  2  0  0  0  0  0  0  0  0  0
  -14.7659   -4.0588    8.4832 N   0  0  0  0  0  0  0  0  0  0  0  0
  -14.7115   -4.9865    7.4899 C   0  0  1  0  0  0  0  0  0  0  0  0
  -15.8456   -5.3008    6.8199 N   0  0  0  0  0  0  0  0  0  0  0  0
  -13.5454   -5.6013    7.1518 N   0  0  0  0  0  0  0  0  0  0  0  0
  -12.3778   -5.3204    7.7914 C   0  0  2  0  0  0  0  0  0  0  0  0
  -12.3725   -4.3844    8.8097 C   0  0  1  0  0  0  0  0  0  0  0  0
  -13.6520   -3.7222    9.1702 C   0  0  0  0  0  0  0  0  0  0  0  0
  -13.6993   -2.8729   10.0881 O   0  0  0  0  0  0  0  0  0  0  0  0
  -11.1153   -4.2938    9.2773 N   0  0  0  0  0  0  0  0  0  0  0  0
  -10.3524   -5.1515    8.5599 C   0  0  0  0  0  0  0  0  0  0  0  0
  -11.1243   -5.7770    7.6525 N   0  0  1  0  0  0  0  0  0  0  0  0
  1  2  1  0  0  0  0
  3  1  1  1  0  0  0
  3  4  1  0  0  0  0
  3  5  1  0  0  0  0
  5  6  1  6  0  0  0
  5  7  1  0  0  0  0
  7  8  1  0  0  0  0
  8  4  1  1  0  0  0
  8 19  1  0  0  0  0
  9 15  1  0  0  0  0
  9 10  1  0  0  0  0
 10 11  1  6  0  0  0
 10 12  1  0  0  0  0
 13 12  1  6  0  0  0
 13 14  1  0  0  0  0
 13 19  1  0  0  0  0
 14 15  1  1  0  0  0
 14 17  1  0  0  0  0
 15 16  2  0  0  0  0
 17 18  1  0  0  0  0
 19 18  1  1  0  0  0
M  END
>  <CHROM.1>
62.49924567,-22.04163100,-12.31211052,-6.43957175,7.68141129,1.08224789,0.18346180
-2.70429971

>  <Name>
ligand

>  <RI>
0

>  <Rbt.Current_Directory>
/home/itssahil/PROJECTS/Mol_Feturizer/New_Systems/rnas/3SKI

>  <Rbt.Executable>
rbdock ($Id: //depot/dev/client3/rdock/2013.1/src/exe/rbdock.cxx#4 $)

>  <Rbt.Library>
libRbt.so (2013.1, Build901 2013/11/27)

>  <Rbt.Parameter_File>
/export/apps/rDock/src/rDock_2013.1_src/data/scripts/dock_solv.prm

>  <Rbt.Receptor>
prm/blind_docking_60.prm

>  <SCORE>
-16.6923

>  <SCORE.INTER>
-13.8308

>  <SCORE.INTER.CONST>
1

>  <SCORE.INTER.POLAR>
0

>  <SCORE.INTER.ROT>
2

>  <SCORE.INTER.SOLV>
8.27735

>  <SCORE.INTER.VDW>
-16.913

>  <SCORE.INTER.norm>
-0.727936

>  <SCORE.INTRA>
-2.96358

>  <SCORE.INTRA.DIHEDRAL>
-5.02501

>  <SCORE.INTRA.DIHEDRAL.0>
6.26853

>  <SCORE.INTRA.POLAR>
0

>  <SCORE.INTRA.POLAR.0>
0

>  <SCORE.INTRA.REPUL>
0

>  <SCORE.INTRA.REPUL.0>
0

>  <SCORE.INTRA.SOLV>
-0.185921

>  <SCORE.INTRA.SOLV.lig_0>
-38.4926

>  <SCORE.INTRA.VDW>
-0.358113

>  <SCORE.INTRA.VDW.0>
-0.59057

>  <SCORE.INTRA.norm>
-0.155978

>  <SCORE.RESTR>
0.102084

>  <SCORE.RESTR.CAVITY>
0.102084

>  <SCORE.RESTR.norm>
0.00537285

>  <SCORE.SYSTEM>
0

>  <SCORE.SYSTEM.CONST>
0

>  <SCORE.SYSTEM.DIHEDRAL>
0

>  <SCORE.SYSTEM.SOLV>
0

>  <SCORE.SYSTEM.norm>
0

>  <SCORE.heavy>
19

>  <SCORE.norm>
-0.878541

>  <RMSD>
8.015

$$$$
ligand
 OpenBabel11021811483D
libRbt.so/2013.1/901 2013/11/27
 19 21  0  0  0  0  0  0  0  0999 V2000
   -7.7541   -9.5366   10.8365 C   0  0  0  0  0  0  0  0  0  0  0  0
   -7.5337   -9.2426   12.2240 O   0  0  0  0  0  0  0  0  0  0  0  0
   -7.6770   -8.2565   10.0015 C   0  0  1  0  0  0  0  0  0  0  0  0
   -7.7968   -8.5560    8.5976 O   0  0  0  0  0  0  0  0  0  0  0  0
   -8.8070   -7.3054   10.3544 C   0  0  1  0  0  0  0  0  0  0  0  0
   -8.3359   -6.2199   11.1627 O   0  0  0  0  0  0  0  0  0  0  0  0
   -9.3393   -6.7912    9.0345 C   0  0  0  0  0  0  0  0  0  0  0  0
   -8.7824   -7.7236    7.9687 C   0  0  2  0  0  0  0  0  0  0  0  0
  -13.6454   -7.7867    5.9837 N   0  0  0  0  0  0  0  0  0  0  0  0
  -12.9122   -6.7437    6.4579 C   0  0  1  0  0  0  0  0  0  0  0  0
  -13.4524   -5.5019    6.4502 N   0  0  0  0  0  0  0  0  0  0  0  0
  -11.6528   -6.9196    6.9427 N   0  0  0  0  0  0  0  0  0  0  0  0
  -11.0644   -8.1461    6.9752 C   0  0  2  0  0  0  0  0  0  0  0  0
  -11.7629   -9.2441    6.5067 C   0  0  1  0  0  0  0  0  0  0  0  0
  -13.1356   -9.0382    5.9785 C   0  0  0  0  0  0  0  0  0  0  0  0
  -13.8053   -9.9993    5.5382 O   0  0  0  0  0  0  0  0  0  0  0  0
  -10.9707  -10.3220    6.6404 N   0  0  0  0  0  0  0  0  0  0  0  0
   -9.8051   -9.9040    7.1871 C   0  0  0  0  0  0  0  0  0  0  0  0
   -9.8639   -8.5755    7.3918 N   0  0  1  0  0  0  0  0  0  0  0  0
  1  2  1  0  0  0  0
  3  1  1  1  0  0  0
  3  4  1  0  0  0  0
  3  5  1  0  0  0  0
  5  6  1  1  0  0  0
  5  7  1  0  0  0  0
  7  8  1  0  0  0  0
  8  4  1  1  0  0  0
  8 19  1  0  0  0  0
  9 15  1  0  0  0  0
  9 10  1  0  0  0  0
 10 11  1  1  0  0  0
 10 12  1  0  0  0  0
 13 12  1  1  0  0  0
 13 14  1  0  0  0  0
 13 19  1  0  0  0  0
 14 15  1  6  0  0  0
 14 17  1  0  0  0  0
 15 16  2  0  0  0  0
 17 18  1  0  0  0  0
 19 18  1  6  0  0  0
M  END
>  <CHROM.1>
175.67851606,165.67610719,-10.36625804,-8.19908142,8.09120791,-0.22496181
0.70344769,-2.80784648

>  <Name>
ligand

>  <RI>
0

>  <Rbt.Current_Directory>
/home/itssahil/PROJECTS/Mol_Feturizer/New_Systems/rnas/3SKI

>  <Rbt.Executable>
rbdock ($Id: //depot/dev/client3/rdock/2013.1/src/exe/rbdock.cxx#4 $)

>  <Rbt.Library>
libRbt.so (2013.1, Build901 2013/11/27)

>  <Rbt.Parameter_File>
/export/apps/rDock/src/rDock_2013.1_src/data/scripts/dock_solv.prm

>  <Rbt.Receptor>
prm/blind_docking_20.prm

>  <SCORE>
-16.6138

>  <SCORE.INTER>
-13.9345

>  <SCORE.INTER.CONST>
1

>  <SCORE.INTER.POLAR>
0

>  <SCORE.INTER.ROT>
2

>  <SCORE.INTER.SOLV>
6.93838

>  <SCORE.INTER.VDW>
-16.5358

>  <SCORE.INTER.norm>
-0.733397

>  <SCORE.INTRA>
-2.67921

>  <SCORE.INTRA.DIHEDRAL>
-5.01285

>  <SCORE.INTRA.DIHEDRAL.0>
6.26853

>  <SCORE.INTRA.POLAR>
0

>  <SCORE.INTRA.POLAR.0>
0

>  <SCORE.INTRA.REPUL>
0

>  <SCORE.INTRA.REPUL.0>
0

>  <SCORE.INTRA.SOLV>
-0.0424325

>  <SCORE.INTRA.SOLV.lig_0>
-38.4926

>  <SCORE.INTRA.VDW>
-0.151565

>  <SCORE.INTRA.VDW.0>
-0.59057

>  <SCORE.INTRA.norm>
-0.141011

>  <SCORE.RESTR>
0

>  <SCORE.RESTR.CAVITY>
0

>  <SCORE.RESTR.norm>
0

>  <SCORE.SYSTEM>
0

>  <SCORE.SYSTEM.CONST>
0

>  <SCORE.SYSTEM.DIHEDRAL>
0

>  <SCORE.SYSTEM.SOLV>
0

>  <SCORE.SYSTEM.norm>
0

>  <SCORE.heavy>
19

>  <SCORE.norm>
-0.874408

>  <RMSD>
8.019

$$$$
ligand
 OpenBabel11021811483D
libRbt.so/2013.1/901 2013/11/27
 19 21  0  0  0  0  0  0  0  0999 V2000
   -8.1041   -9.3848   11.1490 C   0  0  0  0  0  0  0  0  0  0  0  0
   -8.0376   -8.9850   12.5259 O   0  0  0  0  0  0  0  0  0  0  0  0
   -7.9065   -8.1755   10.2324 C   0  0  1  0  0  0  0  0  0  0  0  0
   -7.9363   -8.5746    8.8486 O   0  0  0  0  0  0  0  0  0  0  0  0
   -9.0141   -7.1552   10.4279 C   0  0  1  0  0  0  0  0  0  0  0  0
   -8.5540   -6.0321   11.1898 O   0  0  0  0  0  0  0  0  0  0  0  0
   -9.4233   -6.7205    9.0374 C   0  0  0  0  0  0  0  0  0  0  0  0
   -8.8332   -7.7525    8.0876 C   0  0  2  0  0  0  0  0  0  0  0  0
  -13.6251   -7.7861    5.9359 N   0  0  0  0  0  0  0  0  0  0  0  0
  -12.8922   -6.7440    6.4124 C   0  0  1  0  0  0  0  0  0  0  0  0
  -13.4119   -5.4946    6.3587 N   0  0  0  0  0  0  0  0  0  0  0  0
  -11.6533   -6.9281    6.9447 N   0  0  0  0  0  0  0  0  0  0  0  0
  -11.0860   -8.1624    7.0245 C   0  0  2  0  0  0  0  0  0  0  0  0
  -11.7854   -9.2599    6.5561 C   0  0  1  0  0  0  0  0  0  0  0  0
  -13.1355   -9.0450    5.9759 C   0  0  0  0  0  0  0  0  0  0  0  0
  -13.8049  -10.0055    5.5337 O   0  0  0  0  0  0  0  0  0  0  0  0
  -11.0156  -10.3464    6.7409 N   0  0  0  0  0  0  0  0  0  0  0  0
   -9.8631   -9.9341    7.3187 C   0  0  0  0  0  0  0  0  0  0  0  0
   -9.9077   -8.6005    7.4920 N   0  0  1  0  0  0  0  0  0  0  0  0
  1  2  1  0  0  0  0
  3  1  1  1  0  0  0
  3  4  1  0  0  0  0
  3  5  1  0  0  0  0
  5  6  1  1  0  0  0
  5  7  1  0  0  0  0
  7  8  1  0  0  0  0
  8  4  1  1  0  0  0
  8 19  1  0  0  0  0
  9 15  1  0  0  0  0
  9 10  1  0  0  0  0
 10 11  1  1  0  0  0
 10 12  1  0  0  0  0
 13 12  1  1  0  0  0
 13 14  1  0  0  0  0
 13 19  1  0  0  0  0
 14 15  1  6  0  0  0
 14 17  1  0  0  0  0
 15 16  2  0  0  0  0
 17 18  1  0  0  0  0
 19 18  1  6  0  0  0
M  END
>  <CHROM.1>
178.46683522,161.58029165,-10.47191200,-8.15715261,8.17628204,-0.24837426
0.75433477,-2.83168229

>  <Name>
ligand

>  <RI>
0

>  <Rbt.Current_Directory>
/home/itssahil/PROJECTS/Mol_Feturizer/New_Systems/rnas/3SKI

>  <Rbt.Executable>
rbdock ($Id: //depot/dev/client3/rdock/2013.1/src/exe/rbdock.cxx#4 $)

>  <Rbt.Library>
libRbt.so (2013.1, Build901 2013/11/27)

>  <Rbt.Parameter_File>
/export/apps/rDock/src/rDock_2013.1_src/data/scripts/dock_solv.prm

>  <Rbt.Receptor>
prm/pocket_docking_7.prm

>  <SCORE>
-16.7427

>  <SCORE.INTER>
-14.1464

>  <SCORE.INTER.CONST>
1

>  <SCORE.INTER.POLAR>
0

>  <SCORE.INTER.ROT>
2

>  <SCORE.INTER.SOLV>
7.22594

>  <SCORE.INTER.VDW>
-16.7729

>  <SCORE.INTER.norm>
-0.744547

>  <SCORE.INTRA>
-2.59634

>  <SCORE.INTRA.DIHEDRAL>
-5.07316

>  <SCORE.INTRA.DIHEDRAL.0>
6.26853

>  <SCORE.INTRA.POLAR>
0

>  <SCORE.INTRA.POLAR.0>
0

>  <SCORE.INTRA.REPUL>
0

>  <SCORE.INTRA.REPUL.0>
0

>  <SCORE.INTRA.SOLV>
-0.0289779

>  <SCORE.INTRA.SOLV.lig_0>
-38.4926

>  <SCORE.INTRA.VDW>
-0.0452709

>  <SCORE.INTRA.VDW.0>
-0.59057

>  <SCORE.INTRA.norm>
-0.136649

>  <SCORE.RESTR>
0

>  <SCORE.RESTR.CAVITY>
0

>  <SCORE.RESTR.norm>
0

>  <SCORE.SYSTEM>
0

>  <SCORE.SYSTEM.CONST>
0

>  <SCORE.SYSTEM.DIHEDRAL>
0

>  <SCORE.SYSTEM.SOLV>
0

>  <SCORE.SYSTEM.norm>
0

>  <SCORE.heavy>
19

>  <SCORE.norm>
-0.881196

>  <RMSD>
8.020

$$$$
ligand
 OpenBabel11021811483D
libRbt.so/2013.1/901 2013/11/27
 19 21  0  0  0  0  0  0  0  0999 V2000
   -7.3870   -9.9437   10.4477 C   0  0  0  0  0  0  0  0  0  0  0  0
   -7.0023   -9.8778   11.8290 O   0  0  0  0  0  0  0  0  0  0  0  0
   -7.4683   -8.5377    9.8492 C   0  0  1  0  0  0  0  0  0  0  0  0
   -7.6935   -8.6013    8.4278 O   0  0  0  0  0  0  0  0  0  0  0  0
   -8.6217   -7.7541   10.4505 C   0  0  1  0  0  0  0  0  0  0  0  0
   -8.1519   -6.7888   11.3997 O   0  0  0  0  0  0  0  0  0  0  0  0
   -9.3023   -7.0658    9.2873 C   0  0  0  0  0  0  0  0  0  0  0  0
   -8.7834   -7.7549    8.0337 C   0  0  2  0  0  0  0  0  0  0  0  0
  -13.6014   -7.7203    5.9412 N   0  0  0  0  0  0  0  0  0  0  0  0
  -12.8757   -6.6997    6.4723 C   0  0  1  0  0  0  0  0  0  0  0  0
  -13.4119   -5.4565    6.5020 N   0  0  0  0  0  0  0  0  0  0  0  0
  -11.6280   -6.8997    6.9775 N   0  0  0  0  0  0  0  0  0  0  0  0
  -11.0441   -8.1287    6.9742 C   0  0  2  0  0  0  0  0  0  0  0  0
  -11.7355   -9.2047    6.4473 C   0  0  1  0  0  0  0  0  0  0  0  0
  -13.0955   -8.9726    5.8975 C   0  0  0  0  0  0  0  0  0  0  0  0
  -13.7581   -9.9129    5.4049 O   0  0  0  0  0  0  0  0  0  0  0  0
  -10.9497  -10.2901    6.5555 N   0  0  0  0  0  0  0  0  0  0  0  0
   -9.7953   -9.8986    7.1439 C   0  0  0  0  0  0  0  0  0  0  0  0
   -9.8545   -8.5790    7.3998 N   0  0  1  0  0  0  0  0  0  0  0  0
  1  2  1  0  0  0  0
  3  1  1  1  0  0  0
  3  4  1  0  0  0  0
  3  5  1  0  0  0  0
  5  6  1  1  0  0  0
  5  7  1  0  0  0  0
  7  8  1  0  0  0  0
  8  4  1  1  0  0  0
  8 19  1  0  0  0  0
  9 15  1  0  0  0  0
  9 10  1  0  0  0  0
 10 11  1  1  0  0  0
 10 12  1  0  0  0  0
 13 12  1  1  0  0  0
 13 14  1  0  0  0  0
 13 19  1  0  0  0  0
 14 15  1  6  0  0  0
 14 17  1  0  0  0  0
 15 16  2  0  0  0  0
 17 18  1  0  0  0  0
 19 18  1  6  0  0  0
M  END
>  <CHROM.1>
173.00779061,176.45923733,-10.25827175,-8.32838918,8.04652423,-0.17048954
0.68540200,-2.76005840

>  <Name>
ligand

>  <RI>
0

>  <Rbt.Current_Directory>
/home/itssahil/PROJECTS/Mol_Feturizer/New_Systems/rnas/3SKI

>  <Rbt.Executable>
rbdock ($Id: //depot/dev/client3/rdock/2013.1/src/exe/rbdock.cxx#4 $)

>  <Rbt.Library>
libRbt.so (2013.1, Build901 2013/11/27)

>  <Rbt.Parameter_File>
/export/apps/rDock/src/rDock_2013.1_src/data/scripts/dock_solv.prm

>  <Rbt.Receptor>
prm/pocket_docking_8.prm

>  <SCORE>
-16.8471

>  <SCORE.INTER>
-14.0875

>  <SCORE.INTER.CONST>
1

>  <SCORE.INTER.POLAR>
0

>  <SCORE.INTER.ROT>
2

>  <SCORE.INTER.SOLV>
7.69493

>  <SCORE.INTER.VDW>
-16.89

>  <SCORE.INTER.norm>
-0.741447

>  <SCORE.INTRA>
-2.75958

>  <SCORE.INTRA.DIHEDRAL>
-4.89701

>  <SCORE.INTRA.DIHEDRAL.0>
6.26853

>  <SCORE.INTRA.POLAR>
0

>  <SCORE.INTRA.POLAR.0>
0

>  <SCORE.INTRA.REPUL>
0

>  <SCORE.INTRA.REPUL.0>
0

>  <SCORE.INTRA.SOLV>
-0.052653

>  <SCORE.INTRA.SOLV.lig_0>
-38.4926

>  <SCORE.INTRA.VDW>
-0.284744

>  <SCORE.INTRA.VDW.0>
-0.59057

>  <SCORE.INTRA.norm>
-0.145241

>  <SCORE.RESTR>
0

>  <SCORE.RESTR.CAVITY>
0

>  <SCORE.RESTR.norm>
0

>  <SCORE.SYSTEM>
0

>  <SCORE.SYSTEM.CONST>
0

>  <SCORE.SYSTEM.DIHEDRAL>
0

>  <SCORE.SYSTEM.SOLV>
0

>  <SCORE.SYSTEM.norm>
0

>  <SCORE.heavy>
19

>  <SCORE.norm>
-0.886687

>  <RMSD>
8.020

$$$$
ligand
 OpenBabel11021811483D
libRbt.so/2013.1/901 2013/11/27
 19 21  0  0  0  0  0  0  0  0999 V2000
   -7.3790   -9.9318   10.4431 C   0  0  0  0  0  0  0  0  0  0  0  0
   -6.9470   -9.8597   11.8100 O   0  0  0  0  0  0  0  0  0  0  0  0
   -7.4603   -8.5299    9.8350 C   0  0  1  0  0  0  0  0  0  0  0  0
   -7.6974   -8.6030    8.4160 O   0  0  0  0  0  0  0  0  0  0  0  0
   -8.6059   -7.7377   10.4400 C   0  0  1  0  0  0  0  0  0  0  0  0
   -8.1249   -6.7672   11.3782 O   0  0  0  0  0  0  0  0  0  0  0  0
   -9.2937   -7.0555    9.2774 C   0  0  0  0  0  0  0  0  0  0  0  0
   -8.7876   -7.7556    8.0247 C   0  0  2  0  0  0  0  0  0  0  0  0
  -13.5953   -7.7074    5.9089 N   0  0  0  0  0  0  0  0  0  0  0  0
  -12.8584   -6.6841    6.4189 C   0  0  1  0  0  0  0  0  0  0  0  0
  -13.3780   -5.4335    6.4161 N   0  0  0  0  0  0  0  0  0  0  0  0
  -11.6156   -6.8883    6.9346 N   0  0  0  0  0  0  0  0  0  0  0  0
  -11.0483   -8.1248    6.9637 C   0  0  2  0  0  0  0  0  0  0  0  0
  -11.7516   -9.2038    6.4594 C   0  0  1  0  0  0  0  0  0  0  0  0
  -13.1059   -8.9670    5.8978 C   0  0  0  0  0  0  0  0  0  0  0  0
  -13.7789   -9.9100    5.4247 O   0  0  0  0  0  0  0  0  0  0  0  0
  -10.9810  -10.2966    6.5975 N   0  0  0  0  0  0  0  0  0  0  0  0
   -9.8240   -9.9065    7.1818 C   0  0  0  0  0  0  0  0  0  0  0  0
   -9.8668   -8.5805    7.4056 N   0  0  1  0  0  0  0  0  0  0  0  0
  1  2  1  0  0  0  0
  3  1  1  1  0  0  0
  3  4  1  0  0  0  0
  3  5  1  0  0  0  0
  5  6  1  1  0  0  0
  5  7  1  0  0  0  0
  7  8  1  0  0  0  0
  8  4  1  1  0  0  0
  8 19  1  0  0  0  0
  9 15  1  0  0  0  0
  9 10  1  0  0  0  0
 10 11  1  1  0  0  0
 10 12  1  0  0  0  0
 13 12  1  1  0  0  0
 13 14  1  0  0  0  0
 13 19  1  0  0  0  0
 14 15  1  6  0  0  0
 14 17  1  0  0  0  0
 15 16  2  0  0  0  0
 17 18  1  0  0  0  0
 19 18  1  6  0  0  0
M  END
>  <CHROM.1>
171.41449656,177.79115612,-10.25434195,-8.32057899,8.03537421,-0.15012010
0.68812312,-2.79111778

>  <Name>
ligand

>  <RI>
0

>  <Rbt.Current_Directory>
/home/itssahil/PROJECTS/Mol_Feturizer/New_Systems/rnas/3SKI

>  <Rbt.Executable>
rbdock ($Id: //depot/dev/client3/rdock/2013.1/src/exe/rbdock.cxx#4 $)

>  <Rbt.Library>
libRbt.so (2013.1, Build901 2013/11/27)

>  <Rbt.Parameter_File>
/export/apps/rDock/src/rDock_2013.1_src/data/scripts/dock_solv.prm

>  <Rbt.Receptor>
prm/pocket_docking_8.prm

>  <SCORE>
-16.8616

>  <SCORE.INTER>
-14.1172

>  <SCORE.INTER.CONST>
1

>  <SCORE.INTER.POLAR>
0

>  <SCORE.INTER.ROT>
2

>  <SCORE.INTER.SOLV>
7.7325

>  <SCORE.INTER.VDW>
-16.9223

>  <SCORE.INTER.norm>
-0.74301

>  <SCORE.INTRA>
-2.74445

>  <SCORE.INTRA.DIHEDRAL>
-4.80902

>  <SCORE.INTRA.DIHEDRAL.0>
6.26853

>  <SCORE.INTRA.POLAR>
0

>  <SCORE.INTRA.POLAR.0>
0

>  <SCORE.INTRA.REPUL>
0

>  <SCORE.INTRA.REPUL.0>
0

>  <SCORE.INTRA.SOLV>
-0.0603467

>  <SCORE.INTRA.SOLV.lig_0>
-38.4926

>  <SCORE.INTRA.VDW>
-0.30976

>  <SCORE.INTRA.VDW.0>
-0.59057

>  <SCORE.INTRA.norm>
-0.144444

>  <SCORE.RESTR>
0

>  <SCORE.RESTR.CAVITY>
0

>  <SCORE.RESTR.norm>
0

>  <SCORE.SYSTEM>
0

>  <SCORE.SYSTEM.CONST>
0

>  <SCORE.SYSTEM.DIHEDRAL>
0

>  <SCORE.SYSTEM.SOLV>
0

>  <SCORE.SYSTEM.norm>
0

>  <SCORE.heavy>
19

>  <SCORE.norm>
-0.887455

>  <RMSD>
8.022

$$$$
ligand
 OpenBabel11021811483D
libRbt.so/2013.1/901 2013/11/27
 19 21  0  0  0  0  0  0  0  0999 V2000
   -7.3977   -9.9332   10.4605 C   0  0  0  0  0  0  0  0  0  0  0  0
   -6.9878   -9.8566   11.8339 O   0  0  0  0  0  0  0  0  0  0  0  0
   -7.4731   -8.5330    9.8476 C   0  0  1  0  0  0  0  0  0  0  0  0
   -7.7046   -8.6101    8.4279 O   0  0  0  0  0  0  0  0  0  0  0  0
   -8.6192   -7.7362   10.4455 C   0  0  1  0  0  0  0  0  0  0  0  0
   -8.1396   -6.7639   11.3826 O   0  0  0  0  0  0  0  0  0  0  0  0
   -9.3005   -7.0560    9.2780 C   0  0  0  0  0  0  0  0  0  0  0  0
   -8.7911   -7.7612    8.0296 C   0  0  2  0  0  0  0  0  0  0  0  0
  -13.5989   -7.7115    5.9140 N   0  0  0  0  0  0  0  0  0  0  0  0
  -12.8626   -6.6888    6.4262 C   0  0  1  0  0  0  0  0  0  0  0  0
  -13.3830   -5.4386    6.4263 N   0  0  0  0  0  0  0  0  0  0  0  0
  -11.6198   -6.8934    6.9415 N   0  0  0  0  0  0  0  0  0  0  0  0
  -11.0516   -8.1295    6.9678 C   0  0  2  0  0  0  0  0  0  0  0  0
  -11.7543   -9.2079    6.4612 C   0  0  1  0  0  0  0  0  0  0  0  0
  -13.1087   -8.9707    5.9001 C   0  0  0  0  0  0  0  0  0  0  0  0
  -13.7811   -9.9131    5.4249 O   0  0  0  0  0  0  0  0  0  0  0  0
  -10.9829  -10.3005    6.5968 N   0  0  0  0  0  0  0  0  0  0  0  0
   -9.8262   -9.9110    7.1820 C   0  0  0  0  0  0  0  0  0  0  0  0
   -9.8698   -8.5854    7.4087 N   0  0  1  0  0  0  0  0  0  0  0  0
  1  2  1  0  0  0  0
  3  1  1  1  0  0  0
  3  4  1  0  0  0  0
  3  5  1  0  0  0  0
  5  6  1  1  0  0  0
  5  7  1  0  0  0  0
  7  8  1  0  0  0  0
  8  4  1  1  0  0  0
  8 19  1  0  0  0  0
  9 15  1  0  0  0  0
  9 10  1  0  0  0  0
 10 11  1  1  0  0  0
 10 12  1  0  0  0  0
 13 12  1  1  0  0  0
 13 14  1  0  0  0  0
 13 19  1  0  0  0  0
 14 15  1  6  0  0  0
 14 17  1  0  0  0  0
 15 16  2  0  0  0  0
 17 18  1  0  0  0  0
 19 18  1  6  0  0  0
M  END
>  <CHROM.1>
172.16350806,177.36632977,-10.26280063,-8.32351209,8.04198722,-0.15290258
0.69006672,-2.78915803

>  <Name>
ligand

>  <RI>
0

>  <Rbt.Current_Directory>
/home/itssahil/PROJECTS/Mol_Feturizer/New_Systems/rnas/3SKI

>  <Rbt.Executable>
rbdock ($Id: //depot/dev/client3/rdock/2013.1/src/exe/rbdock.cxx#4 $)

>  <Rbt.Library>
libRbt.so (2013.1, Build901 2013/11/27)

>  <Rbt.Parameter_File>
/export/apps/rDock/src/rDock_2013.1_src/data/scripts/dock_solv.prm

>  <Rbt.Receptor>
prm/pocket_docking_8.prm

>  <SCORE>
-16.8686

>  <SCORE.INTER>
-14.1134

>  <SCORE.INTER.CONST>
1

>  <SCORE.INTER.POLAR>
0

>  <SCORE.INTER.ROT>
2

>  <SCORE.INTER.SOLV>
7.70821

>  <SCORE.INTER.VDW>
-16.9116

>  <SCORE.INTER.norm>
-0.742808

>  <SCORE.INTRA>
-2.75525

>  <SCORE.INTRA.DIHEDRAL>
-4.8523

>  <SCORE.INTRA.DIHEDRAL.0>
6.26853

>  <SCORE.INTRA.POLAR>
0

>  <SCORE.INTRA.POLAR.0>
0

>  <SCORE.INTRA.REPUL>
0

>  <SCORE.INTRA.REPUL.0>
0

>  <SCORE.INTRA.SOLV>
-0.0566442

>  <SCORE.INTRA.SOLV.lig_0>
-38.4926

>  <SCORE.INTRA.VDW>
-0.300778

>  <SCORE.INTRA.VDW.0>
-0.59057

>  <SCORE.INTRA.norm>
-0.145013

>  <SCORE.RESTR>
0

>  <SCORE.RESTR.CAVITY>
0

>  <SCORE.RESTR.norm>
0

>  <SCORE.SYSTEM>
0

>  <SCORE.SYSTEM.CONST>
0

>  <SCORE.SYSTEM.DIHEDRAL>
0

>  <SCORE.SYSTEM.SOLV>
0

>  <SCORE.SYSTEM.norm>
0

>  <SCORE.heavy>
19

>  <SCORE.norm>
-0.887821

>  <RMSD>
8.025

$$$$
ligand
 OpenBabel11021811483D
libRbt.so/2013.1/901 2013/11/27
 19 21  0  0  0  0  0  0  0  0999 V2000
   -8.1168   -9.3918   11.0449 C   0  0  0  0  0  0  0  0  0  0  0  0
   -8.0380   -9.0047   12.4248 O   0  0  0  0  0  0  0  0  0  0  0  0
   -7.9098   -8.1769   10.1377 C   0  0  1  0  0  0  0  0  0  0  0  0
   -7.9316   -8.5669    8.7511 O   0  0  0  0  0  0  0  0  0  0  0  0
   -9.0158   -7.1549   10.3327 C   0  0  1  0  0  0  0  0  0  0  0  0
   -8.5578   -6.0381   11.1050 O   0  0  0  0  0  0  0  0  0  0  0  0
   -9.4148   -6.7099    8.9425 C   0  0  0  0  0  0  0  0  0  0  0  0
   -8.8212   -7.7372    7.9897 C   0  0  2  0  0  0  0  0  0  0  0  0
  -13.6443   -7.7594    5.9088 N   0  0  0  0  0  0  0  0  0  0  0  0
  -12.9172   -6.7247    6.4097 C   0  0  1  0  0  0  0  0  0  0  0  0
  -13.4530   -5.4810    6.4062 N   0  0  0  0  0  0  0  0  0  0  0  0
  -11.6682   -6.9109    6.9171 N   0  0  0  0  0  0  0  0  0  0  0  0
  -11.0846   -8.1397    6.9465 C   0  0  2  0  0  0  0  0  0  0  0  0
  -11.7774   -9.2297    6.4513 C   0  0  1  0  0  0  0  0  0  0  0  0
  -13.1387   -9.0125    5.8987 C   0  0  0  0  0  0  0  0  0  0  0  0
  -13.8028   -9.9660    5.4339 O   0  0  0  0  0  0  0  0  0  0  0  0
  -10.9916  -10.3118    6.5877 N   0  0  0  0  0  0  0  0  0  0  0  0
   -9.8356   -9.9045    7.1622 C   0  0  0  0  0  0  0  0  0  0  0  0
   -9.8940   -8.5783    7.3814 N   0  0  1  0  0  0  0  0  0  0  0  0
  1  2  1  0  0  0  0
  3  1  1  1  0  0  0
  3  4  1  0  0  0  0
  3  5  1  0  0  0  0
  5  6  1  1  0  0  0
  5  7  1  0  0  0  0
  7  8  1  0  0  0  0
  8  4  1  1  0  0  0
  8 19  1  0  0  0  0
  9 15  1  0  0  0  0
  9 10  1  0  0  0  0
 10 11  1  1  0  0  0
 10 12  1  0  0  0  0
 13 12  1  1  0  0  0
 13 14  1  0  0  0  0
 13 19  1  0  0  0  0
 14 15  1  6  0  0  0
 14 17  1  0  0  0  0
 15 16  2  0  0  0  0
 17 18  1  0  0  0  0
 19 18  1  6  0  0  0
M  END
>  <CHROM.1>
177.59236129,159.40251346,-10.47322833,-8.14263979,8.09396707,-0.27279139
0.74147712,-2.78999479

>  <Name>
ligand

>  <RI>
0

>  <Rbt.Current_Directory>
/home/itssahil/PROJECTS/Mol_Feturizer/New_Systems/rnas/3SKI

>  <Rbt.Executable>
rbdock ($Id: //depot/dev/client3/rdock/2013.1/src/exe/rbdock.cxx#4 $)

>  <Rbt.Library>
libRbt.so (2013.1, Build901 2013/11/27)

>  <Rbt.Parameter_File>
/export/apps/rDock/src/rDock_2013.1_src/data/scripts/dock_solv.prm

>  <Rbt.Receptor>
prm/blind_docking_20.prm

>  <SCORE>
-16.7225

>  <SCORE.INTER>
-14.1737

>  <SCORE.INTER.CONST>
1

>  <SCORE.INTER.POLAR>
0

>  <SCORE.INTER.ROT>
2

>  <SCORE.INTER.SOLV>
7.19591

>  <SCORE.INTER.VDW>
-16.7811

>  <SCORE.INTER.norm>
-0.745982

>  <SCORE.INTRA>
-2.54882

>  <SCORE.INTRA.DIHEDRAL>
-5.06212

>  <SCORE.INTRA.DIHEDRAL.0>
6.26853

>  <SCORE.INTRA.POLAR>
0

>  <SCORE.INTRA.POLAR.0>
0

>  <SCORE.INTRA.REPUL>
0

>  <SCORE.INTRA.REPUL.0>
0

>  <SCORE.INTRA.SOLV>
-0.0336168

>  <SCORE.INTRA.SOLV.lig_0>
-38.4926

>  <SCORE.INTRA.VDW>
-0.000956646

>  <SCORE.INTRA.VDW.0>
-0.59057

>  <SCORE.INTRA.norm>
-0.134149

>  <SCORE.RESTR>
0

>  <SCORE.RESTR.CAVITY>
0

>  <SCORE.RESTR.norm>
0

>  <SCORE.SYSTEM>
0

>  <SCORE.SYSTEM.CONST>
0

>  <SCORE.SYSTEM.DIHEDRAL>
0

>  <SCORE.SYSTEM.SOLV>
0

>  <SCORE.SYSTEM.norm>
0

>  <SCORE.heavy>
19

>  <SCORE.norm>
-0.880131

>  <RMSD>
8.027

$$$$
ligand
 OpenBabel11021811483D
libRbt.so/2013.1/901 2013/11/27
 19 21  0  0  0  0  0  0  0  0999 V2000
   -7.3409   -9.9361   10.4517 C   0  0  0  0  0  0  0  0  0  0  0  0
   -6.9286   -9.8642   11.8247 O   0  0  0  0  0  0  0  0  0  0  0  0
   -7.4414   -8.5322    9.8510 C   0  0  1  0  0  0  0  0  0  0  0  0
   -7.6932   -8.6010    8.4344 O   0  0  0  0  0  0  0  0  0  0  0  0
   -8.5874   -7.7532   10.4721 C   0  0  1  0  0  0  0  0  0  0  0  0
   -8.1049   -6.7826   11.4096 O   0  0  0  0  0  0  0  0  0  0  0  0
   -9.2938   -7.0719    9.3202 C   0  0  0  0  0  0  0  0  0  0  0  0
   -8.7951   -7.7616    8.0589 C   0  0  2  0  0  0  0  0  0  0  0  0
  -13.5926   -7.7345    5.9197 N   0  0  0  0  0  0  0  0  0  0  0  0
  -12.8555   -6.7052    6.4171 C   0  0  1  0  0  0  0  0  0  0  0  0
  -13.3718   -5.4534    6.3922 N   0  0  0  0  0  0  0  0  0  0  0  0
  -11.6157   -6.9044    6.9419 N   0  0  0  0  0  0  0  0  0  0  0  0
  -11.0518   -8.1417    6.9930 C   0  0  2  0  0  0  0  0  0  0  0  0
  -11.7555   -9.2267    6.5024 C   0  0  1  0  0  0  0  0  0  0  0  0
  -13.1065   -8.9953    5.9306 C   0  0  0  0  0  0  0  0  0  0  0  0
  -13.7797   -9.9439    5.4692 O   0  0  0  0  0  0  0  0  0  0  0  0
  -10.9884  -10.3192    6.6612 N   0  0  0  0  0  0  0  0  0  0  0  0
   -9.8332   -9.9229    7.2449 C   0  0  0  0  0  0  0  0  0  0  0  0
   -9.8735   -8.5934    7.4477 N   0  0  1  0  0  0  0  0  0  0  0  0
  1  2  1  0  0  0  0
  3  1  1  1  0  0  0
  3  4  1  0  0  0  0
  3  5  1  0  0  0  0
  5  6  1  1  0  0  0
  5  7  1  0  0  0  0
  7  8  1  0  0  0  0
  8  4  1  1  0  0  0
  8 19  1  0  0  0  0
  9 15  1  0  0  0  0
  9 10  1  0  0  0  0
 10 11  1  1  0  0  0
 10 12  1  0  0  0  0
 13 12  1  1  0  0  0
 13 14  1  0  0  0  0
 13 19  1  0  0  0  0
 14 15  1  6  0  0  0
 14 17  1  0  0  0  0
 15 16  2  0  0  0  0
 17 18  1  0  0  0  0
 19 18  1  6  0  0  0
M  END
>  <CHROM.1>
172.92658145,179.40009286,-10.24918691,-8.33620191,8.06192562,-0.14186614
0.68786309,-2.80662439

>  <Name>
ligand

>  <RI>
0

>  <Rbt.Current_Directory>
/home/itssahil/PROJECTS/Mol_Feturizer/New_Systems/rnas/3SKI

>  <Rbt.Executable>
rbdock ($Id: //depot/dev/client3/rdock/2013.1/src/exe/rbdock.cxx#4 $)

>  <Rbt.Library>
libRbt.so (2013.1, Build901 2013/11/27)

>  <Rbt.Parameter_File>
/export/apps/rDock/src/rDock_2013.1_src/data/scripts/dock_solv.prm

>  <Rbt.Receptor>
prm/pocket_docking_8.prm

>  <SCORE>
-16.8345

>  <SCORE.INTER>
-14.042

>  <SCORE.INTER.CONST>
1

>  <SCORE.INTER.POLAR>
0

>  <SCORE.INTER.ROT>
2

>  <SCORE.INTER.SOLV>
7.72713

>  <SCORE.INTER.VDW>
-16.8704

>  <SCORE.INTER.norm>
-0.739053

>  <SCORE.INTRA>
-2.79248

>  <SCORE.INTRA.DIHEDRAL>
-4.89016

>  <SCORE.INTRA.DIHEDRAL.0>
6.26853

>  <SCORE.INTRA.POLAR>
0

>  <SCORE.INTRA.POLAR.0>
0

>  <SCORE.INTRA.REPUL>
0

>  <SCORE.INTRA.REPUL.0>
0

>  <SCORE.INTRA.SOLV>
-0.0519571

>  <SCORE.INTRA.SOLV.lig_0>
-38.4926

>  <SCORE.INTRA.VDW>
-0.321425

>  <SCORE.INTRA.VDW.0>
-0.59057

>  <SCORE.INTRA.norm>
-0.146973

>  <SCORE.RESTR>
0

>  <SCORE.RESTR.CAVITY>
0

>  <SCORE.RESTR.norm>
0

>  <SCORE.SYSTEM>
0

>  <SCORE.SYSTEM.CONST>
0

>  <SCORE.SYSTEM.DIHEDRAL>
0

>  <SCORE.SYSTEM.SOLV>
0

>  <SCORE.SYSTEM.norm>
0

>  <SCORE.heavy>
19

>  <SCORE.norm>
-0.886026

>  <RMSD>
8.027

$$$$
ligand
 OpenBabel11021811483D
libRbt.so/2013.1/901 2013/11/27
 19 21  0  0  0  0  0  0  0  0999 V2000
   -8.1473   -9.4784   11.0673 C   0  0  0  0  0  0  0  0  0  0  0  0
   -7.1317  -10.4693   10.8508 O   0  0  0  0  0  0  0  0  0  0  0  0
   -7.9048   -8.2619   10.1711 C   0  0  1  0  0  0  0  0  0  0  0  0
   -7.9237   -8.6409    8.7815 O   0  0  0  0  0  0  0  0  0  0  0  0
   -8.9889   -7.2163   10.3647 C   0  0  1  0  0  0  0  0  0  0  0  0
   -8.5120   -6.1160   11.1493 O   0  0  0  0  0  0  0  0  0  0  0  0
   -9.3657   -6.7519    8.9745 C   0  0  0  0  0  0  0  0  0  0  0  0
   -8.7876   -7.7854    8.0189 C   0  0  2  0  0  0  0  0  0  0  0  0
  -13.6055   -7.6871    5.9283 N   0  0  0  0  0  0  0  0  0  0  0  0
  -12.8608   -6.6738    6.4468 C   0  0  1  0  0  0  0  0  0  0  0  0
  -13.3740   -5.4207    6.4619 N   0  0  0  0  0  0  0  0  0  0  0  0
  -11.6166   -6.8907    6.9538 N   0  0  0  0  0  0  0  0  0  0  0  0
  -11.0555   -8.1302    6.9650 C   0  0  2  0  0  0  0  0  0  0  0  0
  -11.7669   -9.1995    6.4513 C   0  0  1  0  0  0  0  0  0  0  0  0
  -13.1228   -8.9489    5.8994 C   0  0  0  0  0  0  0  0  0  0  0  0
  -13.8030   -9.8827    5.4184 O   0  0  0  0  0  0  0  0  0  0  0  0
  -11.0012  -10.2978    6.5722 N   0  0  0  0  0  0  0  0  0  0  0  0
   -9.8393   -9.9207    7.1554 C   0  0  0  0  0  0  0  0  0  0  0  0
   -9.8741   -8.5972    7.3954 N   0  0  1  0  0  0  0  0  0  0  0  0
  1  2  1  0  0  0  0
  3  1  1  1  0  0  0
  3  4  1  0  0  0  0
  3  5  1  0  0  0  0
  5  6  1  1  0  0  0
  5  7  1  0  0  0  0
  7  8  1  0  0  0  0
  8  4  1  1  0  0  0
  8 19  1  0  0  0  0
  9 15  1  0  0  0  0
  9 10  1  0  0  0  0
 10 11  1  1  0  0  0
 10 12  1  0  0  0  0
 13 12  1  1  0  0  0
 13 14  1  0  0  0  0
 13 19  1  0  0  0  0
 14 15  1  6  0  0  0
 14 17  1  0  0  0  0
 15 16  2  0  0  0  0
 17 18  1  0  0  0  0
 19 18  1  6  0  0  0
M  END
>  <CHROM.1>
59.79477221,158.75198401,-10.39556417,-8.23888563,8.01700512,-0.16364559
0.69863369,-2.80874811

>  <Name>
ligand

>  <RI>
0

>  <Rbt.Current_Directory>
/home/itssahil/PROJECTS/Mol_Feturizer/New_Systems/rnas/3SKI

>  <Rbt.Executable>
rbdock ($Id: //depot/dev/client3/rdock/2013.1/src/exe/rbdock.cxx#4 $)

>  <Rbt.Library>
libRbt.so (2013.1, Build901 2013/11/27)

>  <Rbt.Parameter_File>
/export/apps/rDock/src/rDock_2013.1_src/data/scripts/dock_solv.prm

>  <Rbt.Receptor>
prm/pocket_docking_7.prm

>  <SCORE>
-17.1546

>  <SCORE.INTER>
-14.4613

>  <SCORE.INTER.CONST>
1

>  <SCORE.INTER.POLAR>
0

>  <SCORE.INTER.ROT>
2

>  <SCORE.INTER.SOLV>
7.65236

>  <SCORE.INTER.VDW>
-17.125

>  <SCORE.INTER.norm>
-0.761121

>  <SCORE.INTRA>
-2.69333

>  <SCORE.INTRA.DIHEDRAL>
-5.08239

>  <SCORE.INTRA.DIHEDRAL.0>
6.26853

>  <SCORE.INTRA.POLAR>
0

>  <SCORE.INTRA.POLAR.0>
0

>  <SCORE.INTRA.REPUL>
0

>  <SCORE.INTRA.REPUL.0>
0

>  <SCORE.INTRA.SOLV>
-0.246723

>  <SCORE.INTRA.SOLV.lig_0>
-38.4926

>  <SCORE.INTRA.VDW>
-0.0287721

>  <SCORE.INTRA.VDW.0>
-0.59057

>  <SCORE.INTRA.norm>
-0.141754

>  <SCORE.RESTR>
0

>  <SCORE.RESTR.CAVITY>
0

>  <SCORE.RESTR.norm>
0

>  <SCORE.SYSTEM>
0

>  <SCORE.SYSTEM.CONST>
0

>  <SCORE.SYSTEM.DIHEDRAL>
0

>  <SCORE.SYSTEM.SOLV>
0

>  <SCORE.SYSTEM.norm>
0

>  <SCORE.heavy>
19

>  <SCORE.norm>
-0.902875

>  <RMSD>
8.029

$$$$
ligand
 OpenBabel11021811483D
libRbt.so/2013.1/901 2013/11/27
 19 21  0  0  0  0  0  0  0  0999 V2000
   -8.0417   -9.4546   10.9985 C   0  0  0  0  0  0  0  0  0  0  0  0
   -6.9481  -10.3567   10.7737 O   0  0  0  0  0  0  0  0  0  0  0  0
   -7.8803   -8.1972   10.1414 C   0  0  1  0  0  0  0  0  0  0  0  0
   -7.9160   -8.5279    8.7398 O   0  0  0  0  0  0  0  0  0  0  0  0
   -9.0079   -7.2130   10.3980 C   0  0  1  0  0  0  0  0  0  0  0  0
   -8.5646   -6.1189   11.2104 O   0  0  0  0  0  0  0  0  0  0  0  0
   -9.4413   -6.7192    9.0347 C   0  0  0  0  0  0  0  0  0  0  0  0
   -8.8387   -7.6893    8.0291 C   0  0  2  0  0  0  0  0  0  0  0  0
  -13.6473   -7.7222    5.9150 N   0  0  0  0  0  0  0  0  0  0  0  0
  -12.9320   -6.6885    6.4348 C   0  0  1  0  0  0  0  0  0  0  0  0
  -13.4779   -5.4492    6.4443 N   0  0  0  0  0  0  0  0  0  0  0  0
  -11.6850   -6.8715    6.9482 N   0  0  0  0  0  0  0  0  0  0  0  0
  -11.0917   -8.0959    6.9651 C   0  0  2  0  0  0  0  0  0  0  0  0
  -11.7722   -9.1846    6.4505 C   0  0  1  0  0  0  0  0  0  0  0  0
  -13.1315   -8.9710    5.8915 C   0  0  0  0  0  0  0  0  0  0  0  0
  -13.7846   -9.9233    5.4094 O   0  0  0  0  0  0  0  0  0  0  0  0
  -10.9786  -10.2622    6.5777 N   0  0  0  0  0  0  0  0  0  0  0  0
   -9.8299   -9.8534    7.1656 C   0  0  0  0  0  0  0  0  0  0  0  0
   -9.9005   -8.5308    7.4023 N   0  0  1  0  0  0  0  0  0  0  0  0
  1  2  1  0  0  0  0
  3  1  1  1  0  0  0
  3  4  1  0  0  0  0
  3  5  1  0  0  0  0
  5  6  1  1  0  0  0
  5  7  1  0  0  0  0
  7  8  1  0  0  0  0
  8  4  1  1  0  0  0
  8 19  1  0  0  0  0
  9 15  1  0  0  0  0
  9 10  1  0  0  0  0
 10 11  1  1  0  0  0
 10 12  1  0  0  0  0
 13 12  1  1  0  0  0
 13 14  1  0  0  0  0
 13 19  1  0  0  0  0
 14 15  1  6  0  0  0
 14 17  1  0  0  0  0
 15 16  2  0  0  0  0
 17 18  1  0  0  0  0
 19 18  1  6  0  0  0
M  END
>  <CHROM.1>
62.78376746,161.76856245,-10.40344194,-8.20975274,8.01138905,-0.19094708
0.68266195,-2.77535366

>  <Name>
ligand

>  <RI>
0

>  <Rbt.Current_Directory>
/home/itssahil/PROJECTS/Mol_Feturizer/New_Systems/rnas/3SKI

>  <Rbt.Executable>
rbdock ($Id: //depot/dev/client3/rdock/2013.1/src/exe/rbdock.cxx#4 $)

>  <Rbt.Library>
libRbt.so (2013.1, Build901 2013/11/27)

>  <Rbt.Parameter_File>
/export/apps/rDock/src/rDock_2013.1_src/data/scripts/dock_solv.prm

>  <Rbt.Receptor>
prm/pocket_docking_8.prm

>  <SCORE>
-17.1447

>  <SCORE.INTER>
-14.3662

>  <SCORE.INTER.CONST>
1

>  <SCORE.INTER.POLAR>
0

>  <SCORE.INTER.ROT>
2

>  <SCORE.INTER.SOLV>
7.40968

>  <SCORE.INTER.VDW>
-16.9807

>  <SCORE.INTER.norm>
-0.756116

>  <SCORE.INTRA>
-2.77854

>  <SCORE.INTRA.DIHEDRAL>
-5.05205

>  <SCORE.INTRA.DIHEDRAL.0>
6.26853

>  <SCORE.INTRA.POLAR>
0

>  <SCORE.INTRA.POLAR.0>
0

>  <SCORE.INTRA.REPUL>
0

>  <SCORE.INTRA.REPUL.0>
0

>  <SCORE.INTRA.SOLV>
-0.257572

>  <SCORE.INTRA.SOLV.lig_0>
-38.4926

>  <SCORE.INTRA.VDW>
-0.123735

>  <SCORE.INTRA.VDW.0>
-0.59057

>  <SCORE.INTRA.norm>
-0.146239

>  <SCORE.RESTR>
0

>  <SCORE.RESTR.CAVITY>
0

>  <SCORE.RESTR.norm>
0

>  <SCORE.SYSTEM>
0

>  <SCORE.SYSTEM.CONST>
0

>  <SCORE.SYSTEM.DIHEDRAL>
0

>  <SCORE.SYSTEM.SOLV>
0

>  <SCORE.SYSTEM.norm>
0

>  <SCORE.heavy>
19

>  <SCORE.norm>
-0.902355

>  <RMSD>
8.035

$$$$
ligand
 OpenBabel11021811483D
libRbt.so/2013.1/901 2013/11/27
 19 21  0  0  0  0  0  0  0  0999 V2000
   -7.3742   -9.9370   10.4507 C   0  0  0  0  0  0  0  0  0  0  0  0
   -6.9519   -9.8644   11.8207 O   0  0  0  0  0  0  0  0  0  0  0  0
   -7.4676   -8.5341    9.8466 C   0  0  1  0  0  0  0  0  0  0  0  0
   -7.7123   -8.6053    8.4288 O   0  0  0  0  0  0  0  0  0  0  0  0
   -8.6147   -7.7506   10.4600 C   0  0  1  0  0  0  0  0  0  0  0  0
   -8.1344   -6.7794   11.3979 O   0  0  0  0  0  0  0  0  0  0  0  0
   -9.3132   -7.0698    9.3030 C   0  0  0  0  0  0  0  0  0  0  0  0
   -8.8098   -7.7637    8.0457 C   0  0  2  0  0  0  0  0  0  0  0  0
  -13.6091   -7.7323    5.9105 N   0  0  0  0  0  0  0  0  0  0  0  0
  -12.8732   -6.7046    6.4131 C   0  0  1  0  0  0  0  0  0  0  0  0
  -13.3916   -5.4536    6.3958 N   0  0  0  0  0  0  0  0  0  0  0  0
  -11.6327   -6.9048    6.9358 N   0  0  0  0  0  0  0  0  0  0  0  0
  -11.0667   -8.1414    6.9795 C   0  0  2  0  0  0  0  0  0  0  0  0
  -11.7691   -9.2248    6.4833 C   0  0  1  0  0  0  0  0  0  0  0  0
  -13.1209   -8.9924    5.9139 C   0  0  0  0  0  0  0  0  0  0  0  0
  -13.7929   -9.9395    5.4477 O   0  0  0  0  0  0  0  0  0  0  0  0
  -11.0000  -10.3169    6.6354 N   0  0  0  0  0  0  0  0  0  0  0  0
   -9.8450   -9.9220    7.2204 C   0  0  0  0  0  0  0  0  0  0  0  0
   -9.8873   -8.5937    7.4307 N   0  0  1  0  0  0  0  0  0  0  0  0
  1  2  1  0  0  0  0
  3  1  1  1  0  0  0
  3  4  1  0  0  0  0
  3  5  1  0  0  0  0
  5  6  1  1  0  0  0
  5  7  1  0  0  0  0
  7  8  1  0  0  0  0
  8  4  1  1  0  0  0
  8 19  1  0  0  0  0
  9 15  1  0  0  0  0
  9 10  1  0  0  0  0
 10 11  1  1  0  0  0
 10 12  1  0  0  0  0
 13 12  1  1  0  0  0
 13 14  1  0  0  0  0
 13 19  1  0  0  0  0
 14 15  1  6  0  0  0
 14 17  1  0  0  0  0
 15 16  2  0  0  0  0
 17 18  1  0  0  0  0
 19 18  1  6  0  0  0
M  END
>  <CHROM.1>
172.17737600,178.78224595,-10.26817535,-8.33551258,8.05033691,-0.14628047
0.68861871,-2.80014118

>  <Name>
ligand

>  <RI>
0

>  <Rbt.Current_Directory>
/home/itssahil/PROJECTS/Mol_Feturizer/New_Systems/rnas/3SKI

>  <Rbt.Executable>
rbdock ($Id: //depot/dev/client3/rdock/2013.1/src/exe/rbdock.cxx#4 $)

>  <Rbt.Library>
libRbt.so (2013.1, Build901 2013/11/27)

>  <Rbt.Parameter_File>
/export/apps/rDock/src/rDock_2013.1_src/data/scripts/dock_solv.prm

>  <Rbt.Receptor>
prm/blind_docking_20.prm

>  <SCORE>
-16.8257

>  <SCORE.INTER>
-14.0538

>  <SCORE.INTER.CONST>
1

>  <SCORE.INTER.POLAR>
0

>  <SCORE.INTER.ROT>
2

>  <SCORE.INTER.SOLV>
7.69078

>  <SCORE.INTER.VDW>
-16.8661

>  <SCORE.INTER.norm>
-0.739671

>  <SCORE.INTRA>
-2.77192

>  <SCORE.INTRA.DIHEDRAL>
-4.85168

>  <SCORE.INTRA.DIHEDRAL.0>
6.26853

>  <SCORE.INTRA.POLAR>
0

>  <SCORE.INTRA.POLAR.0>
0

>  <SCORE.INTRA.REPUL>
0

>  <SCORE.INTRA.REPUL.0>
0

>  <SCORE.INTRA.SOLV>
-0.0560381

>  <SCORE.INTRA.SOLV.lig_0>
-38.4926

>  <SCORE.INTRA.VDW>
-0.318056

>  <SCORE.INTRA.VDW.0>
-0.59057

>  <SCORE.INTRA.norm>
-0.14589

>  <SCORE.RESTR>
0

>  <SCORE.RESTR.CAVITY>
0

>  <SCORE.RESTR.norm>
0

>  <SCORE.SYSTEM>
0

>  <SCORE.SYSTEM.CONST>
0

>  <SCORE.SYSTEM.DIHEDRAL>
0

>  <SCORE.SYSTEM.SOLV>
0

>  <SCORE.SYSTEM.norm>
0

>  <SCORE.heavy>
19

>  <SCORE.norm>
-0.885561

>  <RMSD>
8.038

$$$$
ligand
 OpenBabel11021811483D
libRbt.so/2013.1/901 2013/11/27
 19 21  0  0  0  0  0  0  0  0999 V2000
   -8.1775   -9.4744   11.0892 C   0  0  0  0  0  0  0  0  0  0  0  0
   -7.2093  -10.5015   10.8286 O   0  0  0  0  0  0  0  0  0  0  0  0
   -7.9257   -8.2634   10.1880 C   0  0  1  0  0  0  0  0  0  0  0  0
   -7.9304   -8.6511    8.8007 O   0  0  0  0  0  0  0  0  0  0  0  0
   -9.0116   -7.2166   10.3640 C   0  0  1  0  0  0  0  0  0  0  0  0
   -8.5427   -6.1116   11.1466 O   0  0  0  0  0  0  0  0  0  0  0  0
   -9.3741   -6.7608    8.9672 C   0  0  0  0  0  0  0  0  0  0  0  0
   -8.7864   -7.8003    8.0240 C   0  0  2  0  0  0  0  0  0  0  0  0
  -13.6107   -7.7266    5.9472 N   0  0  0  0  0  0  0  0  0  0  0  0
  -12.8746   -6.7118    6.4749 C   0  0  1  0  0  0  0  0  0  0  0  0
  -13.4001   -5.4640    6.5051 N   0  0  0  0  0  0  0  0  0  0  0  0
  -11.6270   -6.9219    6.9762 N   0  0  0  0  0  0  0  0  0  0  0  0
  -11.0537   -8.1559    6.9722 C   0  0  2  0  0  0  0  0  0  0  0  0
  -11.7559   -9.2264    6.4487 C   0  0  1  0  0  0  0  0  0  0  0  0
  -13.1156   -8.9832    5.9031 C   0  0  0  0  0  0  0  0  0  0  0  0
  -13.7879   -9.9183    5.4136 O   0  0  0  0  0  0  0  0  0  0  0  0
  -10.9790  -10.3184    6.5555 N   0  0  0  0  0  0  0  0  0  0  0  0
   -9.8194   -9.9362    7.1397 C   0  0  0  0  0  0  0  0  0  0  0  0
   -9.8666   -8.6159    7.3944 N   0  0  1  0  0  0  0  0  0  0  0  0
  1  2  1  0  0  0  0
  3  1  1  1  0  0  0
  3  4  1  0  0  0  0
  3  5  1  0  0  0  0
  5  6  1  1  0  0  0
  5  7  1  0  0  0  0
  7  8  1  0  0  0  0
  8  4  1  1  0  0  0
  8 19  1  0  0  0  0
  9 15  1  0  0  0  0
  9 10  1  0  0  0  0
 10 11  1  1  0  0  0
 10 12  1  0  0  0  0
 13 12  1  1  0  0  0
 13 14  1  0  0  0  0
 13 19  1  0  0  0  0
 14 15  1  6  0  0  0
 14 17  1  0  0  0  0
 15 16  2  0  0  0  0
 17 18  1  0  0  0  0
 19 18  1  6  0  0  0
M  END
>  <CHROM.1>
56.14542158,157.39445031,-10.40530150,-8.25916394,8.02274602,-0.17730236
0.69767085,-2.79767773

>  <Name>
ligand

>  <RI>
0

>  <Rbt.Current_Directory>
/home/itssahil/PROJECTS/Mol_Feturizer/New_Systems/rnas/3SKI

>  <Rbt.Executable>
rbdock ($Id: //depot/dev/client3/rdock/2013.1/src/exe/rbdock.cxx#4 $)

>  <Rbt.Library>
libRbt.so (2013.1, Build901 2013/11/27)

>  <Rbt.Parameter_File>
/export/apps/rDock/src/rDock_2013.1_src/data/scripts/dock_solv.prm

>  <Rbt.Receptor>
prm/pocket_docking_7.prm

>  <SCORE>
-17.0922

>  <SCORE.INTER>
-14.4726

>  <SCORE.INTER.CONST>
1

>  <SCORE.INTER.POLAR>
0

>  <SCORE.INTER.ROT>
2

>  <SCORE.INTER.SOLV>
7.6698

>  <SCORE.INTER.VDW>
-17.1383

>  <SCORE.INTER.norm>
-0.761715

>  <SCORE.INTRA>
-2.61958

>  <SCORE.INTRA.DIHEDRAL>
-5.03083

>  <SCORE.INTRA.DIHEDRAL.0>
6.26853

>  <SCORE.INTRA.POLAR>
0

>  <SCORE.INTRA.POLAR.0>
0

>  <SCORE.INTRA.REPUL>
0

>  <SCORE.INTRA.REPUL.0>
0

>  <SCORE.INTRA.SOLV>
-0.232967

>  <SCORE.INTRA.SOLV.lig_0>
-38.4926

>  <SCORE.INTRA.VDW>
0.0123215

>  <SCORE.INTRA.VDW.0>
-0.59057

>  <SCORE.INTRA.norm>
-0.137873

>  <SCORE.RESTR>
0

>  <SCORE.RESTR.CAVITY>
0

>  <SCORE.RESTR.norm>
0

>  <SCORE.SYSTEM>
0

>  <SCORE.SYSTEM.CONST>
0

>  <SCORE.SYSTEM.DIHEDRAL>
0

>  <SCORE.SYSTEM.SOLV>
0

>  <SCORE.SYSTEM.norm>
0

>  <SCORE.heavy>
19

>  <SCORE.norm>
-0.899588

>  <RMSD>
8.042

$$$$
ligand
 OpenBabel11021811483D
libRbt.so/2013.1/901 2013/11/27
 19 21  0  0  0  0  0  0  0  0999 V2000
   -8.1052   -9.3942   11.0473 C   0  0  0  0  0  0  0  0  0  0  0  0
   -7.9425   -9.0263   12.4252 O   0  0  0  0  0  0  0  0  0  0  0  0
   -7.9242   -8.1722   10.1442 C   0  0  1  0  0  0  0  0  0  0  0  0
   -7.9681   -8.5537    8.7559 O   0  0  0  0  0  0  0  0  0  0  0  0
   -9.0345   -7.1602   10.3656 C   0  0  1  0  0  0  0  0  0  0  0  0
   -8.5711   -6.0446   11.1366 O   0  0  0  0  0  0  0  0  0  0  0  0
   -9.4620   -6.7098    8.9857 C   0  0  0  0  0  0  0  0  0  0  0  0
   -8.8778   -7.7265    8.0158 C   0  0  2  0  0  0  0  0  0  0  0  0
  -13.6199   -7.7370    5.7563 N   0  0  0  0  0  0  0  0  0  0  0  0
  -12.8778   -6.6945    6.2175 C   0  0  1  0  0  0  0  0  0  0  0  0
  -13.3718   -5.4379    6.1137 N   0  0  0  0  0  0  0  0  0  0  0  0
  -11.6550   -6.8853    6.7836 N   0  0  0  0  0  0  0  0  0  0  0  0
  -11.1137   -8.1268    6.9141 C   0  0  2  0  0  0  0  0  0  0  0  0
  -11.8236   -9.2251    6.4634 C   0  0  1  0  0  0  0  0  0  0  0  0
  -13.1559   -9.0030    5.8460 C   0  0  0  0  0  0  0  0  0  0  0  0
  -13.8337   -9.9640    5.4180 O   0  0  0  0  0  0  0  0  0  0  0  0
  -11.0794  -10.3196    6.6991 N   0  0  0  0  0  0  0  0  0  0  0  0
   -9.9323   -9.9112    7.2904 C   0  0  0  0  0  0  0  0  0  0  0  0
   -9.9549   -8.5723    7.4219 N   0  0  1  0  0  0  0  0  0  0  0  0
  1  2  1  0  0  0  0
  3  1  1  1  0  0  0
  3  4  1  0  0  0  0
  3  5  1  0  0  0  0
  5  6  1  1  0  0  0
  5  7  1  0  0  0  0
  7  8  1  0  0  0  0
  8  4  1  1  0  0  0
  8 19  1  0  0  0  0
  9 15  1  0  0  0  0
  9 10  1  0  0  0  0
 10 11  1  1  0  0  0
 10 12  1  0  0  0  0
 13 12  1  1  0  0  0
 13 14  1  0  0  0  0
 13 19  1  0  0  0  0
 14 15  1  6  0  0  0
 14 17  1  0  0  0  0
 15 16  2  0  0  0  0
 17 18  1  0  0  0  0
 19 18  1  6  0  0  0
M  END
>  <CHROM.1>
174.91141816,165.04919294,-10.48719432,-8.13592892,8.07178448,-0.20706247
0.77018407,-2.87539939

>  <Name>
ligand

>  <RI>
0

>  <Rbt.Current_Directory>
/home/itssahil/PROJECTS/Mol_Feturizer/New_Systems/rnas/3SKI

>  <Rbt.Executable>
rbdock ($Id: //depot/dev/client3/rdock/2013.1/src/exe/rbdock.cxx#4 $)

>  <Rbt.Library>
libRbt.so (2013.1, Build901 2013/11/27)

>  <Rbt.Parameter_File>
/export/apps/rDock/src/rDock_2013.1_src/data/scripts/dock_solv.prm

>  <Rbt.Receptor>
prm/pocket_docking_7.prm

>  <SCORE>
-16.5896

>  <SCORE.INTER>
-13.9281

>  <SCORE.INTER.CONST>
1

>  <SCORE.INTER.POLAR>
0

>  <SCORE.INTER.ROT>
2

>  <SCORE.INTER.SOLV>
7.47232

>  <SCORE.INTER.VDW>
-16.7095

>  <SCORE.INTER.norm>
-0.73306

>  <SCORE.INTRA>
-2.66141

>  <SCORE.INTRA.DIHEDRAL>
-4.98772

>  <SCORE.INTRA.DIHEDRAL.0>
6.26853

>  <SCORE.INTRA.POLAR>
0

>  <SCORE.INTRA.POLAR.0>
0

>  <SCORE.INTRA.REPUL>
0

>  <SCORE.INTRA.REPUL.0>
0

>  <SCORE.INTRA.SOLV>
-0.0463911

>  <SCORE.INTRA.SOLV.lig_0>
-38.4926

>  <SCORE.INTRA.VDW>
-0.144351

>  <SCORE.INTRA.VDW.0>
-0.59057

>  <SCORE.INTRA.norm>
-0.140074

>  <SCORE.RESTR>
0

>  <SCORE.RESTR.CAVITY>
0

>  <SCORE.RESTR.norm>
0

>  <SCORE.SYSTEM>
0

>  <SCORE.SYSTEM.CONST>
0

>  <SCORE.SYSTEM.DIHEDRAL>
0

>  <SCORE.SYSTEM.SOLV>
0

>  <SCORE.SYSTEM.norm>
0

>  <SCORE.heavy>
19

>  <SCORE.norm>
-0.873134

>  <RMSD>
8.045

$$$$
ligand
 OpenBabel11021811483D
libRbt.so/2013.1/901 2013/11/27
 19 21  0  0  0  0  0  0  0  0999 V2000
   -7.4137   -9.9365   10.4624 C   0  0  0  0  0  0  0  0  0  0  0  0
   -6.9821   -9.8467   11.8284 O   0  0  0  0  0  0  0  0  0  0  0  0
   -7.4832   -8.5436    9.8325 C   0  0  1  0  0  0  0  0  0  0  0  0
   -7.7344   -8.6364    8.4171 O   0  0  0  0  0  0  0  0  0  0  0  0
   -8.6131   -7.7275   10.4351 C   0  0  1  0  0  0  0  0  0  0  0  0
   -8.1113   -6.7482   11.3531 O   0  0  0  0  0  0  0  0  0  0  0  0
   -9.3031   -7.0553    9.2680 C   0  0  0  0  0  0  0  0  0  0  0  0
   -8.8174   -7.7817    8.0222 C   0  0  2  0  0  0  0  0  0  0  0  0
  -13.5804   -7.6890    5.8090 N   0  0  0  0  0  0  0  0  0  0  0  0
  -12.8186   -6.6645    6.2782 C   0  0  1  0  0  0  0  0  0  0  0  0
  -13.2949   -5.3994    6.1977 N   0  0  0  0  0  0  0  0  0  0  0  0
  -11.5934   -6.8816    6.8295 N   0  0  0  0  0  0  0  0  0  0  0  0
  -11.0694   -8.1328    6.9364 C   0  0  2  0  0  0  0  0  0  0  0  0
  -11.7997   -9.2137    6.4766 C   0  0  1  0  0  0  0  0  0  0  0  0
  -13.1344   -8.9629    5.8755 C   0  0  0  0  0  0  0  0  0  0  0  0
  -13.8304   -9.9074    5.4400 O   0  0  0  0  0  0  0  0  0  0  0  0
  -11.0696  -10.3224    6.6889 N   0  0  0  0  0  0  0  0  0  0  0  0
   -9.9111   -9.9397    7.2749 C   0  0  0  0  0  0  0  0  0  0  0  0
   -9.9126   -8.6027    7.4263 N   0  0  1  0  0  0  0  0  0  0  0  0
  1  2  1  0  0  0  0
  3  1  1  1  0  0  0
  3  4  1  0  0  0  0
  3  5  1  0  0  0  0
  5  6  1  1  0  0  0
  5  7  1  0  0  0  0
  7  8  1  0  0  0  0
  8  4  1  1  0  0  0
  8 19  1  0  0  0  0
  9 15  1  0  0  0  0
  9 10  1  0  0  0  0
 10 11  1  1  0  0  0
 10 12  1  0  0  0  0
 13 12  1  1  0  0  0
 13 14  1  0  0  0  0
 13 19  1  0  0  0  0
 14 15  1  6  0  0  0
 14 17  1  0  0  0  0
 15 16  2  0  0  0  0
 17 18  1  0  0  0  0
 19 18  1  6  0  0  0
M  END
>  <CHROM.1>
172.04294260,-179.22099890,-10.27385694,-8.32287620,8.01563129,-0.10319553
0.70523914,-2.86387779

>  <Name>
ligand

>  <RI>
0

>  <Rbt.Current_Directory>
/home/itssahil/PROJECTS/Mol_Feturizer/New_Systems/rnas/3SKI

>  <Rbt.Executable>
rbdock ($Id: //depot/dev/client3/rdock/2013.1/src/exe/rbdock.cxx#4 $)

>  <Rbt.Library>
libRbt.so (2013.1, Build901 2013/11/27)

>  <Rbt.Parameter_File>
/export/apps/rDock/src/rDock_2013.1_src/data/scripts/dock_solv.prm

>  <Rbt.Receptor>
prm/pocket_docking_8.prm

>  <SCORE>
-16.7656

>  <SCORE.INTER>
-13.9746

>  <SCORE.INTER.CONST>
1

>  <SCORE.INTER.POLAR>
0

>  <SCORE.INTER.ROT>
2

>  <SCORE.INTER.SOLV>
7.93891

>  <SCORE.INTER.VDW>
-16.8961

>  <SCORE.INTER.norm>
-0.735508

>  <SCORE.INTRA>
-2.79093

>  <SCORE.INTRA.DIHEDRAL>
-4.84232

>  <SCORE.INTRA.DIHEDRAL.0>
6.26853

>  <SCORE.INTRA.POLAR>
0

>  <SCORE.INTRA.POLAR.0>
0

>  <SCORE.INTRA.REPUL>
0

>  <SCORE.INTRA.REPUL.0>
0

>  <SCORE.INTRA.SOLV>
-0.0559946

>  <SCORE.INTRA.SOLV.lig_0>
-38.4926

>  <SCORE.INTRA.VDW>
-0.341768

>  <SCORE.INTRA.VDW.0>
-0.59057

>  <SCORE.INTRA.norm>
-0.146891

>  <SCORE.RESTR>
0

>  <SCORE.RESTR.CAVITY>
0

>  <SCORE.RESTR.norm>
0

>  <SCORE.SYSTEM>
0

>  <SCORE.SYSTEM.CONST>
0

>  <SCORE.SYSTEM.DIHEDRAL>
0

>  <SCORE.SYSTEM.SOLV>
0

>  <SCORE.SYSTEM.norm>
0

>  <SCORE.heavy>
19

>  <SCORE.norm>
-0.882399

>  <RMSD>
8.045

$$$$
ligand
 OpenBabel11021811483D
libRbt.so/2013.1/901 2013/11/27
 19 21  0  0  0  0  0  0  0  0999 V2000
   -8.0154   -9.4972   10.9820 C   0  0  0  0  0  0  0  0  0  0  0  0
   -6.9451  -10.4190   10.7271 O   0  0  0  0  0  0  0  0  0  0  0  0
   -7.8549   -8.2425   10.1208 C   0  0  1  0  0  0  0  0  0  0  0  0
   -7.9011   -8.5764    8.7203 O   0  0  0  0  0  0  0  0  0  0  0  0
   -8.9769   -7.2533   10.3824 C   0  0  1  0  0  0  0  0  0  0  0  0
   -8.5240   -6.1590   11.1893 O   0  0  0  0  0  0  0  0  0  0  0  0
   -9.4175   -6.7611    9.0209 C   0  0  0  0  0  0  0  0  0  0  0  0
   -8.8253   -7.7360    8.0137 C   0  0  2  0  0  0  0  0  0  0  0  0
  -13.6486   -7.7556    5.9332 N   0  0  0  0  0  0  0  0  0  0  0  0
  -12.9260   -6.7236    6.4459 C   0  0  1  0  0  0  0  0  0  0  0  0
  -13.4673   -5.4823    6.4568 N   0  0  0  0  0  0  0  0  0  0  0  0
  -11.6761   -6.9100    6.9510 N   0  0  0  0  0  0  0  0  0  0  0  0
  -11.0871   -8.1365    6.9662 C   0  0  2  0  0  0  0  0  0  0  0  0
  -11.7752   -9.2238    6.4586 C   0  0  1  0  0  0  0  0  0  0  0  0
  -13.1375   -9.0063    5.9086 C   0  0  0  0  0  0  0  0  0  0  0  0
  -13.7974   -9.9573    5.4330 O   0  0  0  0  0  0  0  0  0  0  0  0
  -10.9845  -10.3040    6.5824 N   0  0  0  0  0  0  0  0  0  0  0  0
   -9.8303   -9.8982    7.1614 C   0  0  0  0  0  0  0  0  0  0  0  0
   -9.8945   -8.5748    7.3960 N   0  0  1  0  0  0  0  0  0  0  0  0
  1  2  1  0  0  0  0
  3  1  1  1  0  0  0
  3  4  1  0  0  0  0
  3  5  1  0  0  0  0
  5  6  1  1  0  0  0
  5  7  1  0  0  0  0
  7  8  1  0  0  0  0
  8  4  1  1  0  0  0
  8 19  1  0  0  0  0
  9 15  1  0  0  0  0
  9 10  1  0  0  0  0
 10 11  1  1  0  0  0
 10 12  1  0  0  0  0
 13 12  1  1  0  0  0
 13 14  1  0  0  0  0
 13 19  1  0  0  0  0
 14 15  1  6  0  0  0
 14 17  1  0  0  0  0
 15 16  2  0  0  0  0
 17 18  1  0  0  0  0
 19 18  1  6  0  0  0
M  END
>  <CHROM.1>
61.31760902,161.73477440,-10.39343673,-8.25142497,8.00652613,-0.18316681
0.67737617,-2.78237412

>  <Name>
ligand

>  <RI>
0

>  <Rbt.Current_Directory>
/home/itssahil/PROJECTS/Mol_Feturizer/New_Systems/rnas/3SKI

>  <Rbt.Executable>
rbdock ($Id: //depot/dev/client3/rdock/2013.1/src/exe/rbdock.cxx#4 $)

>  <Rbt.Library>
libRbt.so (2013.1, Build901 2013/11/27)

>  <Rbt.Parameter_File>
/export/apps/rDock/src/rDock_2013.1_src/data/scripts/dock_solv.prm

>  <Rbt.Receptor>
prm/pocket_docking_8.prm

>  <SCORE>
-17.0997

>  <SCORE.INTER>
-14.3343

>  <SCORE.INTER.CONST>
1

>  <SCORE.INTER.POLAR>
0

>  <SCORE.INTER.ROT>
2

>  <SCORE.INTER.SOLV>
7.57163

>  <SCORE.INTER.VDW>
-17.0134

>  <SCORE.INTER.norm>
-0.754438

>  <SCORE.INTRA>
-2.76534

>  <SCORE.INTRA.DIHEDRAL>
-5.07428

>  <SCORE.INTRA.DIHEDRAL.0>
6.26853

>  <SCORE.INTRA.POLAR>
0

>  <SCORE.INTRA.POLAR.0>
0

>  <SCORE.INTRA.REPUL>
0

>  <SCORE.INTRA.REPUL.0>
0

>  <SCORE.INTRA.SOLV>
-0.252089

>  <SCORE.INTRA.SOLV.lig_0>
-38.4926

>  <SCORE.INTRA.VDW>
-0.102156

>  <SCORE.INTRA.VDW.0>
-0.59057

>  <SCORE.INTRA.norm>
-0.145544

>  <SCORE.RESTR>
0

>  <SCORE.RESTR.CAVITY>
0

>  <SCORE.RESTR.norm>
0

>  <SCORE.SYSTEM>
0

>  <SCORE.SYSTEM.CONST>
0

>  <SCORE.SYSTEM.DIHEDRAL>
0

>  <SCORE.SYSTEM.SOLV>
0

>  <SCORE.SYSTEM.norm>
0

>  <SCORE.heavy>
19

>  <SCORE.norm>
-0.899983

>  <RMSD>
8.056

$$$$
ligand
 OpenBabel11021811483D
libRbt.so/2013.1/901 2013/11/27
 19 21  0  0  0  0  0  0  0  0999 V2000
   -8.2290   -9.4562   11.0855 C   0  0  0  0  0  0  0  0  0  0  0  0
   -7.2372  -10.4733   10.8806 O   0  0  0  0  0  0  0  0  0  0  0  0
   -7.9608   -8.2582   10.1718 C   0  0  1  0  0  0  0  0  0  0  0  0
   -7.9630   -8.6615    8.7890 O   0  0  0  0  0  0  0  0  0  0  0  0
   -9.0368   -7.1985   10.3308 C   0  0  1  0  0  0  0  0  0  0  0  0
   -8.5603   -6.0894   11.1030 O   0  0  0  0  0  0  0  0  0  0  0  0
   -9.3881   -6.7550    8.9272 C   0  0  0  0  0  0  0  0  0  0  0  0
   -8.8066   -7.8110    7.9987 C   0  0  2  0  0  0  0  0  0  0  0  0
  -13.6335   -7.7178    5.9284 N   0  0  0  0  0  0  0  0  0  0  0  0
  -12.8911   -6.7053    6.4518 C   0  0  1  0  0  0  0  0  0  0  0  0
  -13.4097   -5.4546    6.4787 N   0  0  0  0  0  0  0  0  0  0  0  0
  -11.6439   -6.9205    6.9520 N   0  0  0  0  0  0  0  0  0  0  0  0
  -11.0773   -8.1576    6.9512 C   0  0  2  0  0  0  0  0  0  0  0  0
  -11.7861   -9.2260    6.4321 C   0  0  1  0  0  0  0  0  0  0  0  0
  -13.1453   -8.9772    5.8877 C   0  0  0  0  0  0  0  0  0  0  0  0
  -13.8233   -9.9102    5.4022 O   0  0  0  0  0  0  0  0  0  0  0  0
  -11.0151  -10.3218    6.5414 N   0  0  0  0  0  0  0  0  0  0  0  0
   -9.8525   -9.9441    7.1227 C   0  0  0  0  0  0  0  0  0  0  0  0
   -9.8921   -8.6227    7.3732 N   0  0  1  0  0  0  0  0  0  0  0  0
  1  2  1  0  0  0  0
  3  1  1  1  0  0  0
  3  4  1  0  0  0  0
  3  5  1  0  0  0  0
  5  6  1  1  0  0  0
  5  7  1  0  0  0  0
  7  8  1  0  0  0  0
  8  4  1  1  0  0  0
  8 19  1  0  0  0  0
  9 15  1  0  0  0  0
  9 10  1  0  0  0  0
 10 11  1  1  0  0  0
 10 12  1  0  0  0  0
 13 12  1  1  0  0  0
 13 14  1  0  0  0  0
 13 19  1  0  0  0  0
 14 15  1  6  0  0  0
 14 17  1  0  0  0  0
 15 16  2  0  0  0  0
 17 18  1  0  0  0  0
 19 18  1  6  0  0  0
M  END
>  <CHROM.1>
58.53984744,156.75172208,-10.43186682,-8.25363260,8.00588666,-0.17224935
0.70077642,-2.80798952

>  <Name>
ligand

>  <RI>
0

>  <Rbt.Current_Directory>
/home/itssahil/PROJECTS/Mol_Feturizer/New_Systems/rnas/3SKI

>  <Rbt.Executable>
rbdock ($Id: //depot/dev/client3/rdock/2013.1/src/exe/rbdock.cxx#4 $)

>  <Rbt.Library>
libRbt.so (2013.1, Build901 2013/11/27)

>  <Rbt.Parameter_File>
/export/apps/rDock/src/rDock_2013.1_src/data/scripts/dock_solv.prm

>  <Rbt.Receptor>
prm/pocket_docking_7.prm

>  <SCORE>
-17.1466

>  <SCORE.INTER>
-14.5129

>  <SCORE.INTER.CONST>
1

>  <SCORE.INTER.POLAR>
0

>  <SCORE.INTER.ROT>
2

>  <SCORE.INTER.SOLV>
7.60982

>  <SCORE.INTER.VDW>
-17.1452

>  <SCORE.INTER.norm>
-0.763836

>  <SCORE.INTRA>
-2.63369

>  <SCORE.INTRA.DIHEDRAL>
-5.07603

>  <SCORE.INTRA.DIHEDRAL.0>
6.26853

>  <SCORE.INTRA.POLAR>
0

>  <SCORE.INTRA.POLAR.0>
0

>  <SCORE.INTRA.REPUL>
0

>  <SCORE.INTRA.REPUL.0>
0

>  <SCORE.INTRA.SOLV>
-0.242189

>  <SCORE.INTRA.SOLV.lig_0>
-38.4926

>  <SCORE.INTRA.VDW>
0.0254223

>  <SCORE.INTRA.VDW.0>
-0.59057

>  <SCORE.INTRA.norm>
-0.138615

>  <SCORE.RESTR>
0

>  <SCORE.RESTR.CAVITY>
0

>  <SCORE.RESTR.norm>
0

>  <SCORE.SYSTEM>
0

>  <SCORE.SYSTEM.CONST>
0

>  <SCORE.SYSTEM.DIHEDRAL>
0

>  <SCORE.SYSTEM.SOLV>
0

>  <SCORE.SYSTEM.norm>
0

>  <SCORE.heavy>
19

>  <SCORE.norm>
-0.902451

>  <RMSD>
8.059

$$$$
ligand
 OpenBabel11021811483D
libRbt.so/2013.1/901 2013/11/27
 19 21  0  0  0  0  0  0  0  0999 V2000
  -10.6327   -4.3678    9.6530 C   0  0  0  0  0  0  0  0  0  0  0  0
  -10.9347   -5.7369    9.9603 O   0  0  0  0  0  0  0  0  0  0  0  0
  -11.4139   -3.9137    8.4179 C   0  0  1  0  0  0  0  0  0  0  0  0
  -11.0634   -4.7122    7.2714 O   0  0  0  0  0  0  0  0  0  0  0  0
  -12.9095   -4.0681    8.6306 C   0  0  1  0  0  0  0  0  0  0  0  0
  -13.5299   -2.8008    8.8809 O   0  0  0  0  0  0  0  0  0  0  0  0
  -13.4460   -4.6777    7.3537 C   0  0  0  0  0  0  0  0  0  0  0  0
  -12.2329   -5.2071    6.6028 C   0  0  2  0  0  0  0  0  0  0  0  0
   -9.4620   -9.5042    7.8070 N   0  0  0  0  0  0  0  0  0  0  0  0
   -9.1362   -8.1909    7.9463 C   0  0  1  0  0  0  0  0  0  0  0  0
   -7.9294   -7.8637    8.4664 N   0  0  0  0  0  0  0  0  0  0  0  0
   -9.9912   -7.2006    7.5718 N   0  0  0  0  0  0  0  0  0  0  0  0
  -11.2141   -7.4748    7.0420 C   0  0  2  0  0  0  0  0  0  0  0  0
  -11.5995   -8.7928    6.8761 C   0  0  1  0  0  0  0  0  0  0  0  0
  -10.6579   -9.8639    7.2906 C   0  0  0  0  0  0  0  0  0  0  0  0
  -10.9632  -11.0711    7.1657 O   0  0  0  0  0  0  0  0  0  0  0  0
  -12.8353   -8.7955    6.3470 N   0  0  0  0  0  0  0  0  0  0  0  0
  -13.2088   -7.5051    6.1810 C   0  0  0  0  0  0  0  0  0  0  0  0
  -12.2178   -6.6998    6.6050 N   0  0  1  0  0  0  0  0  0  0  0  0
  1  2  1  0  0  0  0
  3  1  1  1  0  0  0
  3  4  1  0  0  0  0
  3  5  1  0  0  0  0
  5  6  1  6  0  0  0
  5  7  1  0  0  0  0
  7  8  1  0  0  0  0
  8  4  1  1  0  0  0
  8 19  1  0  0  0  0
  9 15  1  0  0  0  0
  9 10  1  0  0  0  0
 10 11  1  6  0  0  0
 10 12  1  0  0  0  0
 13 12  1  6  0  0  0
 13 14  1  0  0  0  0
 13 19  1  0  0  0  0
 14 15  1  1  0  0  0
 14 17  1  0  0  0  0
 15 16  2  0  0  0  0
 17 18  1  0  0  0  0
 19 18  1  1  0  0  0
M  END
>  <CHROM.1>
-60.60923366,-6.03089458,-11.34151793,-6.70473271,7.72876369,-1.96587703
0.48832406,-2.75133997

>  <Name>
ligand

>  <RI>
0

>  <Rbt.Current_Directory>
/home/itssahil/PROJECTS/Mol_Feturizer/New_Systems/rnas/3SKI

>  <Rbt.Executable>
rbdock ($Id: //depot/dev/client3/rdock/2013.1/src/exe/rbdock.cxx#4 $)

>  <Rbt.Library>
libRbt.so (2013.1, Build901 2013/11/27)

>  <Rbt.Parameter_File>
/export/apps/rDock/src/rDock_2013.1_src/data/scripts/dock_solv.prm

>  <Rbt.Receptor>
prm/pocket_docking_8.prm

>  <SCORE>
-16.7407

>  <SCORE.INTER>
-13.7036

>  <SCORE.INTER.CONST>
1

>  <SCORE.INTER.POLAR>
0

>  <SCORE.INTER.ROT>
2

>  <SCORE.INTER.SOLV>
12.0128

>  <SCORE.INTER.VDW>
-18.0734

>  <SCORE.INTER.norm>
-0.721245

>  <SCORE.INTRA>
-3.03705

>  <SCORE.INTRA.DIHEDRAL>
-5.05842

>  <SCORE.INTRA.DIHEDRAL.0>
6.26853

>  <SCORE.INTRA.POLAR>
0

>  <SCORE.INTRA.POLAR.0>
0

>  <SCORE.INTRA.REPUL>
0

>  <SCORE.INTRA.REPUL.0>
0

>  <SCORE.INTRA.SOLV>
1.01244

>  <SCORE.INTRA.SOLV.lig_0>
-38.4926

>  <SCORE.INTRA.VDW>
-1.01406

>  <SCORE.INTRA.VDW.0>
-0.59057

>  <SCORE.INTRA.norm>
-0.159845

>  <SCORE.RESTR>
0

>  <SCORE.RESTR.CAVITY>
0

>  <SCORE.RESTR.norm>
0

>  <SCORE.SYSTEM>
0

>  <SCORE.SYSTEM.CONST>
0

>  <SCORE.SYSTEM.DIHEDRAL>
0

>  <SCORE.SYSTEM.SOLV>
0

>  <SCORE.SYSTEM.norm>
0

>  <SCORE.heavy>
19

>  <SCORE.norm>
-0.881089

>  <RMSD>
8.241

$$$$
ligand
 OpenBabel11021811483D
libRbt.so/2013.1/901 2013/11/27
 19 21  0  0  0  0  0  0  0  0999 V2000
  -11.2385   -4.4813    8.8401 C   0  0  0  0  0  0  0  0  0  0  0  0
  -12.3558   -4.1903    9.6928 O   0  0  0  0  0  0  0  0  0  0  0  0
  -10.2562   -5.4166    9.5488 C   0  0  1  0  0  0  0  0  0  0  0  0
  -10.8212   -6.7337    9.6939 O   0  0  0  0  0  0  0  0  0  0  0  0
   -8.9722   -5.5655    8.7519 C   0  0  1  0  0  0  0  0  0  0  0  0
   -7.9082   -4.8061    9.3389 O   0  0  0  0  0  0  0  0  0  0  0  0
   -8.6436   -7.0425    8.7734 C   0  0  0  0  0  0  0  0  0  0  0  0
   -9.9117   -7.7450    9.2360 C   0  0  2  0  0  0  0  0  0  0  0  0
  -13.6475   -7.7341    5.5432 N   0  0  0  0  0  0  0  0  0  0  0  0
  -13.3442   -6.7930    6.4773 C   0  0  1  0  0  0  0  0  0  0  0  0
  -14.0738   -5.6531    6.5244 N   0  0  0  0  0  0  0  0  0  0  0  0
  -12.3295   -6.9721    7.3664 N   0  0  0  0  0  0  0  0  0  0  0  0
  -11.5675   -8.0994    7.3636 C   0  0  2  0  0  0  0  0  0  0  0  0
  -11.8307   -9.0915    6.4364 C   0  0  1  0  0  0  0  0  0  0  0  0
  -12.9394   -8.8828    5.4705 C   0  0  0  0  0  0  0  0  0  0  0  0
  -13.2123   -9.7485    4.6091 O   0  0  0  0  0  0  0  0  0  0  0  0
  -10.9464  -10.0844    6.6357 N   0  0  0  0  0  0  0  0  0  0  0  0
  -10.1533   -9.7202    7.6703 C   0  0  0  0  0  0  0  0  0  0  0  0
  -10.5341   -8.5085    8.1144 N   0  0  1  0  0  0  0  0  0  0  0  0
  1  2  1  0  0  0  0
  3  1  1  6  0  0  0
  3  4  1  0  0  0  0
  3  5  1  0  0  0  0
  5  6  1  1  0  0  0
  5  7  1  0  0  0  0
  7  8  1  0  0  0  0
  8  4  1  6  0  0  0
  8 19  1  0  0  0  0
  9 15  1  0  0  0  0
  9 10  1  0  0  0  0
 10 11  1  1  0  0  0
 10 12  1  0  0  0  0
 13 12  1  1  0  0  0
 13 14  1  0  0  0  0
 13 19  1  0  0  0  0
 14 15  1  6  0  0  0
 14 17  1  0  0  0  0
 15 16  2  0  0  0  0
 17 18  1  0  0  0  0
 19 18  1  6  0  0  0
M  END
>  <CHROM.1>
69.78627427,19.08210697,-11.28468259,-7.16009303,7.73014212,0.93122711,-0.48727547
0.47743105

>  <Name>
ligand

>  <RI>
0

>  <Rbt.Current_Directory>
/home/itssahil/PROJECTS/Mol_Feturizer/New_Systems/rnas/3SKI

>  <Rbt.Executable>
rbdock ($Id: //depot/dev/client3/rdock/2013.1/src/exe/rbdock.cxx#4 $)

>  <Rbt.Library>
libRbt.so (2013.1, Build901 2013/11/27)

>  <Rbt.Parameter_File>
/export/apps/rDock/src/rDock_2013.1_src/data/scripts/dock_solv.prm

>  <Rbt.Receptor>
prm/pocket_docking_8.prm

>  <SCORE>
-17.181

>  <SCORE.INTER>
-14.3184

>  <SCORE.INTER.CONST>
1

>  <SCORE.INTER.POLAR>
0

>  <SCORE.INTER.ROT>
2

>  <SCORE.INTER.SOLV>
7.82712

>  <SCORE.INTER.VDW>
-17.088

>  <SCORE.INTER.norm>
-0.753599

>  <SCORE.INTRA>
-2.86266

>  <SCORE.INTRA.DIHEDRAL>
-4.7391

>  <SCORE.INTRA.DIHEDRAL.0>
6.26853

>  <SCORE.INTRA.POLAR>
0

>  <SCORE.INTRA.POLAR.0>
0

>  <SCORE.INTRA.REPUL>
0

>  <SCORE.INTRA.REPUL.0>
0

>  <SCORE.INTRA.SOLV>
1.35446

>  <SCORE.INTRA.SOLV.lig_0>
-38.4926

>  <SCORE.INTRA.VDW>
-1.17034

>  <SCORE.INTRA.VDW.0>
-0.59057

>  <SCORE.INTRA.norm>
-0.150666

>  <SCORE.RESTR>
0

>  <SCORE.RESTR.CAVITY>
0

>  <SCORE.RESTR.norm>
0

>  <SCORE.SYSTEM>
0

>  <SCORE.SYSTEM.CONST>
0

>  <SCORE.SYSTEM.DIHEDRAL>
0

>  <SCORE.SYSTEM.SOLV>
0

>  <SCORE.SYSTEM.norm>
0

>  <SCORE.heavy>
19

>  <SCORE.norm>
-0.904265

>  <RMSD>
8.344

$$$$
ligand
 OpenBabel11021811483D
libRbt.so/2013.1/901 2013/11/27
 19 21  0  0  0  0  0  0  0  0999 V2000
  -11.2761   -4.4599    8.8169 C   0  0  0  0  0  0  0  0  0  0  0  0
  -12.3863   -4.1876    9.6848 O   0  0  0  0  0  0  0  0  0  0  0  0
  -10.2723   -5.3845    9.5092 C   0  0  1  0  0  0  0  0  0  0  0  0
  -10.8201   -6.7080    9.6619 O   0  0  0  0  0  0  0  0  0  0  0  0
   -8.9994   -5.5184    8.6921 C   0  0  1  0  0  0  0  0  0  0  0  0
   -7.9349   -4.7474    9.2630 O   0  0  0  0  0  0  0  0  0  0  0  0
   -8.6538   -6.9916    8.7070 C   0  0  0  0  0  0  0  0  0  0  0  0
   -9.9065   -7.7087    9.1888 C   0  0  2  0  0  0  0  0  0  0  0  0
  -13.6597   -7.7101    5.5137 N   0  0  0  0  0  0  0  0  0  0  0  0
  -13.3475   -6.7629    6.4387 C   0  0  1  0  0  0  0  0  0  0  0  0
  -14.0715   -5.6191    6.4799 N   0  0  0  0  0  0  0  0  0  0  0  0
  -12.3295   -6.9396    7.3244 N   0  0  0  0  0  0  0  0  0  0  0  0
  -11.5729   -8.0705    7.3272 C   0  0  2  0  0  0  0  0  0  0  0  0
  -11.8451   -9.0688    6.4094 C   0  0  1  0  0  0  0  0  0  0  0  0
  -12.9574   -8.8626    5.4471 C   0  0  0  0  0  0  0  0  0  0  0  0
  -13.2385   -9.7341    4.5941 O   0  0  0  0  0  0  0  0  0  0  0  0
  -10.9646  -10.0642    6.6126 N   0  0  0  0  0  0  0  0  0  0  0  0
  -10.1649   -9.6954    7.6405 C   0  0  0  0  0  0  0  0  0  0  0  0
  -10.5378   -8.4784    8.0764 N   0  0  1  0  0  0  0  0  0  0  0  0
  1  2  1  0  0  0  0
  3  1  1  6  0  0  0
  3  4  1  0  0  0  0
  3  5  1  0  0  0  0
  5  6  1  1  0  0  0
  5  7  1  0  0  0  0
  7  8  1  0  0  0  0
  8  4  1  6  0  0  0
  8 19  1  0  0  0  0
  9 15  1  0  0  0  0
  9 10  1  0  0  0  0
 10 11  1  1  0  0  0
 10 12  1  0  0  0  0
 13 12  1  1  0  0  0
 13 14  1  0  0  0  0
 13 19  1  0  0  0  0
 14 15  1  6  0  0  0
 14 17  1  0  0  0  0
 15 16  2  0  0  0  0
 17 18  1  0  0  0  0
 19 18  1  6  0  0  0
M  END
>  <CHROM.1>
69.49423123,20.30910087,-11.29831781,-7.13086918,7.69337327,0.93534979,-0.48360226
0.47578724

>  <Name>
ligand

>  <RI>
0

>  <Rbt.Current_Directory>
/home/itssahil/PROJECTS/Mol_Feturizer/New_Systems/rnas/3SKI

>  <Rbt.Executable>
rbdock ($Id: //depot/dev/client3/rdock/2013.1/src/exe/rbdock.cxx#4 $)

>  <Rbt.Library>
libRbt.so (2013.1, Build901 2013/11/27)

>  <Rbt.Parameter_File>
/export/apps/rDock/src/rDock_2013.1_src/data/scripts/dock_solv.prm

>  <Rbt.Receptor>
prm/blind_docking_20.prm

>  <SCORE>
-17.1945

>  <SCORE.INTER>
-14.3189

>  <SCORE.INTER.CONST>
1

>  <SCORE.INTER.POLAR>
0

>  <SCORE.INTER.ROT>
2

>  <SCORE.INTER.SOLV>
7.89246

>  <SCORE.INTER.VDW>
-17.1101

>  <SCORE.INTER.norm>
-0.753624

>  <SCORE.INTRA>
-2.87563

>  <SCORE.INTRA.DIHEDRAL>
-4.75933

>  <SCORE.INTRA.DIHEDRAL.0>
6.26853

>  <SCORE.INTRA.POLAR>
0

>  <SCORE.INTRA.POLAR.0>
0

>  <SCORE.INTRA.REPUL>
0

>  <SCORE.INTRA.REPUL.0>
0

>  <SCORE.INTRA.SOLV>
1.37496

>  <SCORE.INTRA.SOLV.lig_0>
-38.4926

>  <SCORE.INTRA.VDW>
-1.18345

>  <SCORE.INTRA.VDW.0>
-0.59057

>  <SCORE.INTRA.norm>
-0.151349

>  <SCORE.RESTR>
0

>  <SCORE.RESTR.CAVITY>
0

>  <SCORE.RESTR.norm>
0

>  <SCORE.SYSTEM>
0

>  <SCORE.SYSTEM.CONST>
0

>  <SCORE.SYSTEM.DIHEDRAL>
0

>  <SCORE.SYSTEM.SOLV>
0

>  <SCORE.SYSTEM.norm>
0

>  <SCORE.heavy>
19

>  <SCORE.norm>
-0.904973

>  <RMSD>
8.351

$$$$
ligand
 OpenBabel11021811483D
libRbt.so/2013.1/901 2013/11/27
 19 21  0  0  0  0  0  0  0  0999 V2000
  -11.2531   -4.4878    8.8352 C   0  0  0  0  0  0  0  0  0  0  0  0
  -12.3733   -4.1695    9.6744 O   0  0  0  0  0  0  0  0  0  0  0  0
  -10.2926   -5.4309    9.5629 C   0  0  1  0  0  0  0  0  0  0  0  0
  -10.8673   -6.7459    9.6885 O   0  0  0  0  0  0  0  0  0  0  0  0
   -8.9907   -5.5828    8.7962 C   0  0  1  0  0  0  0  0  0  0  0  0
   -7.9373   -4.8311    9.4118 O   0  0  0  0  0  0  0  0  0  0  0  0
   -8.6698   -7.0614    8.8188 C   0  0  0  0  0  0  0  0  0  0  0  0
   -9.9520   -7.7596    9.2479 C   0  0  2  0  0  0  0  0  0  0  0  0
  -13.6842   -7.7733    5.5515 N   0  0  0  0  0  0  0  0  0  0  0  0
  -13.4091   -6.8454    6.5072 C   0  0  1  0  0  0  0  0  0  0  0  0
  -14.1717   -5.7286    6.5794 N   0  0  0  0  0  0  0  0  0  0  0  0
  -12.3902   -7.0151    7.3933 N   0  0  0  0  0  0  0  0  0  0  0  0
  -11.5956   -8.1193    7.3658 C   0  0  2  0  0  0  0  0  0  0  0  0
  -11.8291   -9.0972    6.4158 C   0  0  1  0  0  0  0  0  0  0  0  0
  -12.9428   -8.8988    5.4535 C   0  0  0  0  0  0  0  0  0  0  0  0
  -13.1898   -9.7523    4.5722 O   0  0  0  0  0  0  0  0  0  0  0  0
  -10.9164  -10.0681    6.5935 N   0  0  0  0  0  0  0  0  0  0  0  0
  -10.1348   -9.7048    7.6372 C   0  0  0  0  0  0  0  0  0  0  0  0
  -10.5511   -8.5152    8.1083 N   0  0  1  0  0  0  0  0  0  0  0  0
  1  2  1  0  0  0  0
  3  1  1  6  0  0  0
  3  4  1  0  0  0  0
  3  5  1  0  0  0  0
  5  6  1  1  0  0  0
  5  7  1  0  0  0  0
  7  8  1  0  0  0  0
  8  4  1  6  0  0  0
  8 19  1  0  0  0  0
  9 15  1  0  0  0  0
  9 10  1  0  0  0  0
 10 11  1  1  0  0  0
 10 12  1  0  0  0  0
 13 12  1  1  0  0  0
 13 14  1  0  0  0  0
 13 19  1  0  0  0  0
 14 15  1  6  0  0  0
 14 17  1  0  0  0  0
 15 16  2  0  0  0  0
 17 18  1  0  0  0  0
 19 18  1  6  0  0  0
M  END
>  <CHROM.1>
71.15837729,16.50403875,-11.30918672,-7.17655709,7.73704871,0.93770397,-0.47866107
0.49322859

>  <Name>
ligand

>  <RI>
0

>  <Rbt.Current_Directory>
/home/itssahil/PROJECTS/Mol_Feturizer/New_Systems/rnas/3SKI

>  <Rbt.Executable>
rbdock ($Id: //depot/dev/client3/rdock/2013.1/src/exe/rbdock.cxx#4 $)

>  <Rbt.Library>
libRbt.so (2013.1, Build901 2013/11/27)

>  <Rbt.Parameter_File>
/export/apps/rDock/src/rDock_2013.1_src/data/scripts/dock_solv.prm

>  <Rbt.Receptor>
prm/pocket_docking_8.prm

>  <SCORE>
-17.162

>  <SCORE.INTER>
-14.3429

>  <SCORE.INTER.CONST>
1

>  <SCORE.INTER.POLAR>
0

>  <SCORE.INTER.ROT>
2

>  <SCORE.INTER.SOLV>
7.74076

>  <SCORE.INTER.VDW>
-17.0756

>  <SCORE.INTER.norm>
-0.754892

>  <SCORE.INTRA>
-2.81909

>  <SCORE.INTRA.DIHEDRAL>
-4.63842

>  <SCORE.INTRA.DIHEDRAL.0>
6.26853

>  <SCORE.INTRA.POLAR>
0

>  <SCORE.INTRA.POLAR.0>
0

>  <SCORE.INTRA.REPUL>
0

>  <SCORE.INTRA.REPUL.0>
0

>  <SCORE.INTRA.SOLV>
1.27339

>  <SCORE.INTRA.SOLV.lig_0>
-38.4926

>  <SCORE.INTRA.VDW>
-1.13657

>  <SCORE.INTRA.VDW.0>
-0.59057

>  <SCORE.INTRA.norm>
-0.148373

>  <SCORE.RESTR>
0

>  <SCORE.RESTR.CAVITY>
0

>  <SCORE.RESTR.norm>
0

>  <SCORE.SYSTEM>
0

>  <SCORE.SYSTEM.CONST>
0

>  <SCORE.SYSTEM.DIHEDRAL>
0

>  <SCORE.SYSTEM.SOLV>
0

>  <SCORE.SYSTEM.norm>
0

>  <SCORE.heavy>
19

>  <SCORE.norm>
-0.903265

>  <RMSD>
8.367

$$$$
ligand
 OpenBabel11021811483D
libRbt.so/2013.1/901 2013/11/27
 19 21  0  0  0  0  0  0  0  0999 V2000
  -13.6420   -6.6231    4.7101 C   0  0  0  0  0  0  0  0  0  0  0  0
  -14.6885   -5.6465    4.8162 O   0  0  0  0  0  0  0  0  0  0  0  0
  -14.1019   -7.9626    5.2899 C   0  0  1  0  0  0  0  0  0  0  0  0
  -13.0811   -8.9658    5.1269 O   0  0  0  0  0  0  0  0  0  0  0  0
  -14.3818   -7.8464    6.7779 C   0  0  1  0  0  0  0  0  0  0  0  0
  -15.7906   -7.8107    7.0379 O   0  0  0  0  0  0  0  0  0  0  0  0
  -13.7568   -9.0705    7.4110 C   0  0  0  0  0  0  0  0  0  0  0  0
  -12.8217   -9.6516    6.3606 C   0  0  2  0  0  0  0  0  0  0  0  0
   -9.3221   -6.3206    8.4221 N   0  0  0  0  0  0  0  0  0  0  0  0
  -10.6506   -6.1505    8.1846 C   0  0  1  0  0  0  0  0  0  0  0  0
  -11.2298   -4.9679    8.5007 N   0  0  0  0  0  0  0  0  0  0  0  0
  -11.4085   -7.1377    7.6338 N   0  0  0  0  0  0  0  0  0  0  0  0
  -10.8758   -8.3433    7.2958 C   0  0  2  0  0  0  0  0  0  0  0  0
   -9.5293   -8.5730    7.5138 C   0  0  1  0  0  0  0  0  0  0  0  0
   -8.7140   -7.4882    8.1172 C   0  0  0  0  0  0  0  0  0  0  0  0
   -7.4931   -7.6500    8.3391 O   0  0  0  0  0  0  0  0  0  0  0  0
   -9.2553   -9.8244    7.1062 N   0  0  0  0  0  0  0  0  0  0  0  0
  -10.4068  -10.3603    6.6379 C   0  0  0  0  0  0  0  0  0  0  0  0
  -11.3951   -9.4547    6.7535 N   0  0  1  0  0  0  0  0  0  0  0  0
  1  2  1  0  0  0  0
  3  1  1  1  0  0  0
  3  4  1  0  0  0  0
  3  5  1  0  0  0  0
  5  6  1  6  0  0  0
  5  7  1  0  0  0  0
  7  8  1  0  0  0  0
  8  4  1  6  0  0  0
  8 19  1  0  0  0  0
  9 15  1  0  0  0  0
  9 10  1  0  0  0  0
 10 11  1  6  0  0  0
 10 12  1  0  0  0  0
 13 12  1  6  0  0  0
 13 14  1  0  0  0  0
 13 19  1  0  0  0  0
 14 15  1  1  0  0  0
 14 17  1  0  0  0  0
 15 16  2  0  0  0  0
 17 18  1  0  0  0  0
 19 18  1  1  0  0  0
M  END
>  <CHROM.1>
177.14044330,76.72751213,-11.78601597,-7.85732797,6.91639197,3.09045961,0.37661096
-2.90049484

>  <Name>
ligand

>  <RI>
0

>  <Rbt.Current_Directory>
/home/itssahil/PROJECTS/Mol_Feturizer/New_Systems/rnas/3SKI

>  <Rbt.Executable>
rbdock ($Id: //depot/dev/client3/rdock/2013.1/src/exe/rbdock.cxx#4 $)

>  <Rbt.Library>
libRbt.so (2013.1, Build901 2013/11/27)

>  <Rbt.Parameter_File>
/export/apps/rDock/src/rDock_2013.1_src/data/scripts/dock_solv.prm

>  <Rbt.Receptor>
prm/blind_docking_100.prm

>  <SCORE>
-16.3911

>  <SCORE.INTER>
-13.0936

>  <SCORE.INTER.CONST>
1

>  <SCORE.INTER.POLAR>
0

>  <SCORE.INTER.ROT>
2

>  <SCORE.INTER.SOLV>
7.216

>  <SCORE.INTER.VDW>
-16.0677

>  <SCORE.INTER.norm>
-0.689134

>  <SCORE.INTRA>
-3.2976

>  <SCORE.INTRA.DIHEDRAL>
-5.02299

>  <SCORE.INTRA.DIHEDRAL.0>
6.26853

>  <SCORE.INTRA.POLAR>
0

>  <SCORE.INTRA.POLAR.0>
0

>  <SCORE.INTRA.REPUL>
0

>  <SCORE.INTRA.REPUL.0>
0

>  <SCORE.INTRA.SOLV>
0.0236799

>  <SCORE.INTRA.SOLV.lig_0>
-38.4926

>  <SCORE.INTRA.VDW>
-0.797939

>  <SCORE.INTRA.VDW.0>
-0.59057

>  <SCORE.INTRA.norm>
-0.173558

>  <SCORE.RESTR>
0

>  <SCORE.RESTR.CAVITY>
0

>  <SCORE.RESTR.norm>
0

>  <SCORE.SYSTEM>
0

>  <SCORE.SYSTEM.CONST>
0

>  <SCORE.SYSTEM.DIHEDRAL>
0

>  <SCORE.SYSTEM.SOLV>
0

>  <SCORE.SYSTEM.norm>
0

>  <SCORE.heavy>
19

>  <SCORE.norm>
-0.862692

>  <RMSD>
8.370

$$$$
ligand
 OpenBabel11021811483D
libRbt.so/2013.1/901 2013/11/27
 19 21  0  0  0  0  0  0  0  0999 V2000
  -11.2599   -4.5862    8.8613 C   0  0  0  0  0  0  0  0  0  0  0  0
  -12.3390   -4.2319    9.7389 O   0  0  0  0  0  0  0  0  0  0  0  0
  -10.2830   -5.5268    9.5702 C   0  0  1  0  0  0  0  0  0  0  0  0
  -10.8420   -6.8494    9.6853 O   0  0  0  0  0  0  0  0  0  0  0  0
   -8.9859   -5.6553    8.7912 C   0  0  1  0  0  0  0  0  0  0  0  0
   -7.9358   -4.8990    9.4068 O   0  0  0  0  0  0  0  0  0  0  0  0
   -8.6484   -7.1304    8.7941 C   0  0  0  0  0  0  0  0  0  0  0  0
   -9.9192   -7.8478    9.2255 C   0  0  2  0  0  0  0  0  0  0  0  0
  -13.6975   -7.8732    5.5763 N   0  0  0  0  0  0  0  0  0  0  0  0
  -13.4266   -6.9548    6.5424 C   0  0  1  0  0  0  0  0  0  0  0  0
  -14.2079   -5.8530    6.6410 N   0  0  0  0  0  0  0  0  0  0  0  0
  -12.3936   -7.1194    7.4131 N   0  0  0  0  0  0  0  0  0  0  0  0
  -11.5801   -8.2088    7.3589 C   0  0  2  0  0  0  0  0  0  0  0  0
  -11.8083   -9.1764    6.3972 C   0  0  1  0  0  0  0  0  0  0  0  0
  -12.9375   -8.9837    5.4521 C   0  0  0  0  0  0  0  0  0  0  0  0
  -13.1806   -9.8282    4.5611 O   0  0  0  0  0  0  0  0  0  0  0  0
  -10.8764  -10.1334    6.5488 N   0  0  0  0  0  0  0  0  0  0  0  0
  -10.0881   -9.7717    7.5881 C   0  0  0  0  0  0  0  0  0  0  0  0
  -10.5194   -8.5969    8.0823 N   0  0  1  0  0  0  0  0  0  0  0  0
  1  2  1  0  0  0  0
  3  1  1  6  0  0  0
  3  4  1  0  0  0  0
  3  5  1  0  0  0  0
  5  6  1  1  0  0  0
  5  7  1  0  0  0  0
  7  8  1  0  0  0  0
  8  4  1  6  0  0  0
  8 19  1  0  0  0  0
  9 15  1  0  0  0  0
  9 10  1  0  0  0  0
 10 11  1  1  0  0  0
 10 12  1  0  0  0  0
 13 12  1  1  0  0  0
 13 14  1  0  0  0  0
 13 19  1  0  0  0  0
 14 15  1  6  0  0  0
 14 17  1  0  0  0  0
 15 16  2  0  0  0  0
 17 18  1  0  0  0  0
 19 18  1  6  0  0  0
M  END
>  <CHROM.1>
74.30387693,16.00546599,-11.29748790,-7.26258355,7.73891611,0.94719172,-0.46098046
0.50817040

>  <Name>
ligand

>  <RI>
0

>  <Rbt.Current_Directory>
/home/itssahil/PROJECTS/Mol_Feturizer/New_Systems/rnas/3SKI

>  <Rbt.Executable>
rbdock ($Id: //depot/dev/client3/rdock/2013.1/src/exe/rbdock.cxx#4 $)

>  <Rbt.Library>
libRbt.so (2013.1, Build901 2013/11/27)

>  <Rbt.Parameter_File>
/export/apps/rDock/src/rDock_2013.1_src/data/scripts/dock_solv.prm

>  <Rbt.Receptor>
prm/pocket_docking_8.prm

>  <SCORE>
-17.238

>  <SCORE.INTER>
-14.5216

>  <SCORE.INTER.CONST>
1

>  <SCORE.INTER.POLAR>
0

>  <SCORE.INTER.ROT>
2

>  <SCORE.INTER.SOLV>
7.83689

>  <SCORE.INTER.VDW>
-17.2267

>  <SCORE.INTER.norm>
-0.764297

>  <SCORE.INTRA>
-2.71637

>  <SCORE.INTRA.DIHEDRAL>
-4.36896

>  <SCORE.INTRA.DIHEDRAL.0>
6.26853

>  <SCORE.INTRA.POLAR>
0

>  <SCORE.INTRA.POLAR.0>
0

>  <SCORE.INTRA.REPUL>
0

>  <SCORE.INTRA.REPUL.0>
0

>  <SCORE.INTRA.SOLV>
1.1735

>  <SCORE.INTRA.SOLV.lig_0>
-38.4926

>  <SCORE.INTRA.VDW>
-1.11864

>  <SCORE.INTRA.VDW.0>
-0.59057

>  <SCORE.INTRA.norm>
-0.142967

>  <SCORE.RESTR>
0

>  <SCORE.RESTR.CAVITY>
0

>  <SCORE.RESTR.norm>
0

>  <SCORE.SYSTEM>
0

>  <SCORE.SYSTEM.CONST>
0

>  <SCORE.SYSTEM.DIHEDRAL>
0

>  <SCORE.SYSTEM.SOLV>
0

>  <SCORE.SYSTEM.norm>
0

>  <SCORE.heavy>
19

>  <SCORE.norm>
-0.907264

>  <RMSD>
8.397

$$$$
ligand
 OpenBabel11021811483D
libRbt.so/2013.1/901 2013/11/27
 19 21  0  0  0  0  0  0  0  0999 V2000
  -11.1876   -4.5510    8.7238 C   0  0  0  0  0  0  0  0  0  0  0  0
  -12.3286   -4.2239    9.5309 O   0  0  0  0  0  0  0  0  0  0  0  0
  -10.2570   -5.5038    9.4773 C   0  0  1  0  0  0  0  0  0  0  0  0
  -10.8607   -6.8047    9.6128 O   0  0  0  0  0  0  0  0  0  0  0  0
   -8.9484   -5.6933    8.7306 C   0  0  1  0  0  0  0  0  0  0  0  0
   -7.8877   -4.9554    9.3503 O   0  0  0  0  0  0  0  0  0  0  0  0
   -8.6590   -7.1779    8.7776 C   0  0  0  0  0  0  0  0  0  0  0  0
   -9.9611   -7.8432    9.1984 C   0  0  2  0  0  0  0  0  0  0  0  0
  -13.7581   -7.9152    5.5692 N   0  0  0  0  0  0  0  0  0  0  0  0
  -13.4902   -6.9909    6.5305 C   0  0  1  0  0  0  0  0  0  0  0  0
  -14.2805   -5.8956    6.6292 N   0  0  0  0  0  0  0  0  0  0  0  0
  -12.4513   -7.1433    7.3963 N   0  0  0  0  0  0  0  0  0  0  0  0
  -11.6285   -8.2257    7.3419 C   0  0  2  0  0  0  0  0  0  0  0  0
  -11.8533   -9.1988    6.3850 C   0  0  1  0  0  0  0  0  0  0  0  0
  -12.9891   -9.0195    5.4451 C   0  0  0  0  0  0  0  0  0  0  0  0
  -13.2295   -9.8694    4.5586 O   0  0  0  0  0  0  0  0  0  0  0  0
  -10.9123  -10.1471    6.5353 N   0  0  0  0  0  0  0  0  0  0  0  0
  -10.1219   -9.7747    7.5690 C   0  0  0  0  0  0  0  0  0  0  0  0
  -10.5607   -8.6018    8.0611 N   0  0  1  0  0  0  0  0  0  0  0  0
  1  2  1  0  0  0  0
  3  1  1  6  0  0  0
  3  4  1  0  0  0  0
  3  5  1  0  0  0  0
  5  6  1  1  0  0  0
  5  7  1  0  0  0  0
  7  8  1  0  0  0  0
  8  4  1  6  0  0  0
  8 19  1  0  0  0  0
  9 15  1  0  0  0  0
  9 10  1  0  0  0  0
 10 11  1  1  0  0  0
 10 12  1  0  0  0  0
 13 12  1  1  0  0  0
 13 14  1  0  0  0  0
 13 19  1  0  0  0  0
 14 15  1  6  0  0  0
 14 17  1  0  0  0  0
 15 16  2  0  0  0  0
 17 18  1  0  0  0  0
 19 18  1  6  0  0  0
M  END
>  <CHROM.1>
69.74566552,12.94480043,-11.31918660,-7.27858205,7.69398615,0.91842806,-0.45579325
0.48454188

>  <Name>
ligand

>  <RI>
0

>  <Rbt.Current_Directory>
/home/itssahil/PROJECTS/Mol_Feturizer/New_Systems/rnas/3SKI

>  <Rbt.Executable>
rbdock ($Id: //depot/dev/client3/rdock/2013.1/src/exe/rbdock.cxx#4 $)

>  <Rbt.Library>
libRbt.so (2013.1, Build901 2013/11/27)

>  <Rbt.Parameter_File>
/export/apps/rDock/src/rDock_2013.1_src/data/scripts/dock_solv.prm

>  <Rbt.Receptor>
prm/pocket_docking_8.prm

>  <SCORE>
-17.2157

>  <SCORE.INTER>
-14.3628

>  <SCORE.INTER.CONST>
1

>  <SCORE.INTER.POLAR>
0

>  <SCORE.INTER.ROT>
2

>  <SCORE.INTER.SOLV>
7.55462

>  <SCORE.INTER.VDW>
-17.0268

>  <SCORE.INTER.norm>
-0.755938

>  <SCORE.INTRA>
-2.85283

>  <SCORE.INTRA.DIHEDRAL>
-4.7378

>  <SCORE.INTRA.DIHEDRAL.0>
6.26853

>  <SCORE.INTRA.POLAR>
0

>  <SCORE.INTRA.POLAR.0>
0

>  <SCORE.INTRA.REPUL>
0

>  <SCORE.INTRA.REPUL.0>
0

>  <SCORE.INTRA.SOLV>
1.22131

>  <SCORE.INTRA.SOLV.lig_0>
-38.4926

>  <SCORE.INTRA.VDW>
-1.09458

>  <SCORE.INTRA.VDW.0>
-0.59057

>  <SCORE.INTRA.norm>
-0.150149

>  <SCORE.RESTR>
0

>  <SCORE.RESTR.CAVITY>
0

>  <SCORE.RESTR.norm>
0

>  <SCORE.SYSTEM>
0

>  <SCORE.SYSTEM.CONST>
0

>  <SCORE.SYSTEM.DIHEDRAL>
0

>  <SCORE.SYSTEM.SOLV>
0

>  <SCORE.SYSTEM.norm>
0

>  <SCORE.heavy>
19

>  <SCORE.norm>
-0.906087

>  <RMSD>
8.445

$$$$
ligand
 OpenBabel11021811483D
libRbt.so/2013.1/901 2013/11/27
 19 21  0  0  0  0  0  0  0  0999 V2000
  -11.4787   -4.7348    8.9297 C   0  0  0  0  0  0  0  0  0  0  0  0
  -11.0077   -3.3880    8.7742 O   0  0  0  0  0  0  0  0  0  0  0  0
  -10.3842   -5.6158    9.5362 C   0  0  1  0  0  0  0  0  0  0  0  0
  -10.8364   -6.9780    9.6589 O   0  0  0  0  0  0  0  0  0  0  0  0
   -9.1466   -5.6325    8.6564 C   0  0  1  0  0  0  0  0  0  0  0  0
   -8.1082   -4.8142    9.2092 O   0  0  0  0  0  0  0  0  0  0  0  0
   -8.7053   -7.0786    8.5943 C   0  0  0  0  0  0  0  0  0  0  0  0
   -9.8836   -7.8961    9.1032 C   0  0  2  0  0  0  0  0  0  0  0  0
  -13.7270   -7.9483    5.5228 N   0  0  0  0  0  0  0  0  0  0  0  0
  -13.4234   -7.0107    6.4604 C   0  0  1  0  0  0  0  0  0  0  0  0
  -14.1841   -5.8935    6.5446 N   0  0  0  0  0  0  0  0  0  0  0  0
  -12.3778   -7.1711    7.3166 N   0  0  0  0  0  0  0  0  0  0  0  0
  -11.5837   -8.2753    7.2758 C   0  0  2  0  0  0  0  0  0  0  0  0
  -11.8454   -9.2628    6.3433 C   0  0  1  0  0  0  0  0  0  0  0  0
  -12.9881   -9.0745    5.4136 C   0  0  0  0  0  0  0  0  0  0  0  0
  -13.2614   -9.9368    4.5488 O   0  0  0  0  0  0  0  0  0  0  0  0
  -10.9271  -10.2315    6.5028 N   0  0  0  0  0  0  0  0  0  0  0  0
  -10.1143   -9.8574    7.5184 C   0  0  0  0  0  0  0  0  0  0  0  0
  -10.5168   -8.6633    7.9901 N   0  0  1  0  0  0  0  0  0  0  0  0
  1  2  1  0  0  0  0
  3  1  1  6  0  0  0
  3  4  1  0  0  0  0
  3  5  1  0  0  0  0
  5  6  1  1  0  0  0
  5  7  1  0  0  0  0
  7  8  1  0  0  0  0
  8  4  1  6  0  0  0
  8 19  1  0  0  0  0
  9 15  1  0  0  0  0
  9 10  1  0  0  0  0
 10 11  1  1  0  0  0
 10 12  1  0  0  0  0
 13 12  1  1  0  0  0
 13 14  1  0  0  0  0
 13 19  1  0  0  0  0
 14 15  1  6  0  0  0
 14 17  1  0  0  0  0
 15 16  2  0  0  0  0
 17 18  1  0  0  0  0
 19 18  1  6  0  0  0
M  END
>  <CHROM.1>
-178.30890580,22.79692246,-11.26448041,-7.26664457,7.60809981,0.93428190
-0.52796713,0.37440868

>  <Name>
ligand

>  <RI>
0

>  <Rbt.Current_Directory>
/home/itssahil/PROJECTS/Mol_Feturizer/New_Systems/rnas/3SKI

>  <Rbt.Executable>
rbdock ($Id: //depot/dev/client3/rdock/2013.1/src/exe/rbdock.cxx#4 $)

>  <Rbt.Library>
libRbt.so (2013.1, Build901 2013/11/27)

>  <Rbt.Parameter_File>
/export/apps/rDock/src/rDock_2013.1_src/data/scripts/dock_solv.prm

>  <Rbt.Receptor>
prm/pocket_docking_8.prm

>  <SCORE>
-17.0579

>  <SCORE.INTER>
-14.1225

>  <SCORE.INTER.CONST>
1

>  <SCORE.INTER.POLAR>
0

>  <SCORE.INTER.ROT>
2

>  <SCORE.INTER.SOLV>
8.33237

>  <SCORE.INTER.VDW>
-17.1258

>  <SCORE.INTER.norm>
-0.743287

>  <SCORE.INTRA>
-2.93547

>  <SCORE.INTRA.DIHEDRAL>
-5.07191

>  <SCORE.INTRA.DIHEDRAL.0>
6.26853

>  <SCORE.INTRA.POLAR>
0

>  <SCORE.INTRA.POLAR.0>
0

>  <SCORE.INTRA.REPUL>
0

>  <SCORE.INTRA.REPUL.0>
0

>  <SCORE.INTRA.SOLV>
1.15921

>  <SCORE.INTRA.SOLV.lig_0>
-38.4926

>  <SCORE.INTRA.VDW>
-0.979116

>  <SCORE.INTRA.VDW.0>
-0.59057

>  <SCORE.INTRA.norm>
-0.154498

>  <SCORE.RESTR>
0

>  <SCORE.RESTR.CAVITY>
0

>  <SCORE.RESTR.norm>
0

>  <SCORE.SYSTEM>
0

>  <SCORE.SYSTEM.CONST>
0

>  <SCORE.SYSTEM.DIHEDRAL>
0

>  <SCORE.SYSTEM.SOLV>
0

>  <SCORE.SYSTEM.norm>
0

>  <SCORE.heavy>
19

>  <SCORE.norm>
-0.897786

>  <RMSD>
8.456

$$$$
ligand
 OpenBabel11021811483D
libRbt.so/2013.1/901 2013/11/27
 19 21  0  0  0  0  0  0  0  0999 V2000
  -11.2481   -4.4418    8.6202 C   0  0  0  0  0  0  0  0  0  0  0  0
  -12.4116   -4.1434    9.4061 O   0  0  0  0  0  0  0  0  0  0  0  0
  -10.3136   -5.3806    9.3864 C   0  0  1  0  0  0  0  0  0  0  0  0
  -10.9155   -6.6794    9.5468 O   0  0  0  0  0  0  0  0  0  0  0  0
   -9.0077   -5.5817    8.6379 C   0  0  1  0  0  0  0  0  0  0  0  0
   -7.9454   -4.8322    9.2406 O   0  0  0  0  0  0  0  0  0  0  0  0
   -8.7167   -7.0650    8.7094 C   0  0  0  0  0  0  0  0  0  0  0  0
  -10.0165   -7.7242    9.1469 C   0  0  2  0  0  0  0  0  0  0  0  0
  -13.7826   -7.8280    5.4865 N   0  0  0  0  0  0  0  0  0  0  0  0
  -13.5064   -6.8826    6.4246 C   0  0  1  0  0  0  0  0  0  0  0  0
  -14.2776   -5.7711    6.4860 N   0  0  0  0  0  0  0  0  0  0  0  0
  -12.4780   -7.0297    7.3037 N   0  0  0  0  0  0  0  0  0  0  0  0
  -11.6744   -8.1276    7.2863 C   0  0  2  0  0  0  0  0  0  0  0  0
  -11.9085   -9.1225    6.3544 C   0  0  1  0  0  0  0  0  0  0  0  0
  -13.0327   -8.9489    5.3996 C   0  0  0  0  0  0  0  0  0  0  0  0
  -13.2807   -9.8184    4.5344 O   0  0  0  0  0  0  0  0  0  0  0  0
  -10.9861  -10.0829    6.5390 N   0  0  0  0  0  0  0  0  0  0  0  0
  -10.1980   -9.6964    7.5694 C   0  0  0  0  0  0  0  0  0  0  0  0
  -10.6199   -8.5029    8.0253 N   0  0  1  0  0  0  0  0  0  0  0  0
  1  2  1  0  0  0  0
  3  1  1  6  0  0  0
  3  4  1  0  0  0  0
  3  5  1  0  0  0  0
  5  6  1  1  0  0  0
  5  7  1  0  0  0  0
  7  8  1  0  0  0  0
  8  4  1  6  0  0  0
  8 19  1  0  0  0  0
  9 15  1  0  0  0  0
  9 10  1  0  0  0  0
 10 11  1  1  0  0  0
 10 12  1  0  0  0  0
 13 12  1  1  0  0  0
 13 14  1  0  0  0  0
 13 19  1  0  0  0  0
 14 15  1  6  0  0  0
 14 17  1  0  0  0  0
 15 16  2  0  0  0  0
 17 18  1  0  0  0  0
 19 18  1  6  0  0  0
M  END
>  <CHROM.1>
67.50077455,14.37601938,-11.36979565,-7.17969656,7.62343567,0.91614705,-0.46887736
0.46280091

>  <Name>
ligand

>  <RI>
0

>  <Rbt.Current_Directory>
/home/itssahil/PROJECTS/Mol_Feturizer/New_Systems/rnas/3SKI

>  <Rbt.Executable>
rbdock ($Id: //depot/dev/client3/rdock/2013.1/src/exe/rbdock.cxx#4 $)

>  <Rbt.Library>
libRbt.so (2013.1, Build901 2013/11/27)

>  <Rbt.Parameter_File>
/export/apps/rDock/src/rDock_2013.1_src/data/scripts/dock_solv.prm

>  <Rbt.Receptor>
prm/blind_docking_100.prm

>  <SCORE>
-17.1525

>  <SCORE.INTER>
-14.2561

>  <SCORE.INTER.CONST>
1

>  <SCORE.INTER.POLAR>
0

>  <SCORE.INTER.ROT>
2

>  <SCORE.INTER.SOLV>
7.53014

>  <SCORE.INTER.VDW>
-16.9474

>  <SCORE.INTER.norm>
-0.750319

>  <SCORE.INTRA>
-2.89646

>  <SCORE.INTRA.DIHEDRAL>
-4.87476

>  <SCORE.INTRA.DIHEDRAL.0>
6.26853

>  <SCORE.INTRA.POLAR>
0

>  <SCORE.INTRA.POLAR.0>
0

>  <SCORE.INTRA.REPUL>
0

>  <SCORE.INTRA.REPUL.0>
0

>  <SCORE.INTRA.SOLV>
1.3292

>  <SCORE.INTRA.SOLV.lig_0>
-38.4926

>  <SCORE.INTRA.VDW>
-1.12368

>  <SCORE.INTRA.VDW.0>
-0.59057

>  <SCORE.INTRA.norm>
-0.152445

>  <SCORE.RESTR>
0

>  <SCORE.RESTR.CAVITY>
0

>  <SCORE.RESTR.norm>
0

>  <SCORE.SYSTEM>
0

>  <SCORE.SYSTEM.CONST>
0

>  <SCORE.SYSTEM.DIHEDRAL>
0

>  <SCORE.SYSTEM.SOLV>
0

>  <SCORE.SYSTEM.norm>
0

>  <SCORE.heavy>
19

>  <SCORE.norm>
-0.902764

>  <RMSD>
8.459

$$$$
ligand
 OpenBabel11021811483D
libRbt.so/2013.1/901 2013/11/27
 19 21  0  0  0  0  0  0  0  0999 V2000
  -11.5126   -4.7260    8.8522 C   0  0  0  0  0  0  0  0  0  0  0  0
  -11.0169   -3.3902    8.6788 O   0  0  0  0  0  0  0  0  0  0  0  0
  -10.4409   -5.6141    9.4883 C   0  0  1  0  0  0  0  0  0  0  0  0
  -10.9097   -6.9707    9.6098 O   0  0  0  0  0  0  0  0  0  0  0  0
   -9.1845   -5.6492    8.6362 C   0  0  1  0  0  0  0  0  0  0  0  0
   -8.1500   -4.8379    9.2064 O   0  0  0  0  0  0  0  0  0  0  0  0
   -8.7569   -7.1002    8.5930 C   0  0  0  0  0  0  0  0  0  0  0  0
   -9.9545   -7.9022    9.0810 C   0  0  2  0  0  0  0  0  0  0  0  0
  -13.8265   -8.0217    5.5334 N   0  0  0  0  0  0  0  0  0  0  0  0
  -13.5469   -7.0916    6.4857 C   0  0  1  0  0  0  0  0  0  0  0  0
  -14.3451   -6.0033    6.5974 N   0  0  0  0  0  0  0  0  0  0  0  0
  -12.4886   -7.2314    7.3298 N   0  0  0  0  0  0  0  0  0  0  0  0
  -11.6572   -8.3064    7.2615 C   0  0  2  0  0  0  0  0  0  0  0  0
  -11.8932   -9.2850    6.3129 C   0  0  1  0  0  0  0  0  0  0  0  0
  -13.0502   -9.1194    5.3967 C   0  0  0  0  0  0  0  0  0  0  0  0
  -13.3014   -9.9746    4.5182 O   0  0  0  0  0  0  0  0  0  0  0  0
  -10.9405  -10.2241    6.4463 N   0  0  0  0  0  0  0  0  0  0  0  0
  -10.1318   -9.8408    7.4618 C   0  0  0  0  0  0  0  0  0  0  0  0
  -10.5710   -8.6703    7.9592 N   0  0  1  0  0  0  0  0  0  0  0  0
  1  2  1  0  0  0  0
  3  1  1  6  0  0  0
  3  4  1  0  0  0  0
  3  5  1  0  0  0  0
  5  6  1  1  0  0  0
  5  7  1  0  0  0  0
  7  8  1  0  0  0  0
  8  4  1  6  0  0  0
  8 19  1  0  0  0  0
  9 15  1  0  0  0  0
  9 10  1  0  0  0  0
 10 11  1  1  0  0  0
 10 12  1  0  0  0  0
 13 12  1  1  0  0  0
 13 14  1  0  0  0  0
 13 19  1  0  0  0  0
 14 15  1  6  0  0  0
 14 17  1  0  0  0  0
 15 16  2  0  0  0  0
 17 18  1  0  0  0  0
 19 18  1  6  0  0  0
M  END
>  <CHROM.1>
-177.38793414,19.35558555,-11.32584588,-7.29234226,7.58363351,0.93253462
-0.50681485,0.38034867

>  <Name>
ligand

>  <RI>
0

>  <Rbt.Current_Directory>
/home/itssahil/PROJECTS/Mol_Feturizer/New_Systems/rnas/3SKI

>  <Rbt.Executable>
rbdock ($Id: //depot/dev/client3/rdock/2013.1/src/exe/rbdock.cxx#4 $)

>  <Rbt.Library>
libRbt.so (2013.1, Build901 2013/11/27)

>  <Rbt.Parameter_File>
/export/apps/rDock/src/rDock_2013.1_src/data/scripts/dock_solv.prm

>  <Rbt.Receptor>
prm/pocket_docking_8.prm

>  <SCORE>
-17.0132

>  <SCORE.INTER>
-14.1045

>  <SCORE.INTER.CONST>
1

>  <SCORE.INTER.POLAR>
0

>  <SCORE.INTER.ROT>
2

>  <SCORE.INTER.SOLV>
8.17147

>  <SCORE.INTER.VDW>
-17.0601

>  <SCORE.INTER.norm>
-0.742341

>  <SCORE.INTRA>
-2.90876

>  <SCORE.INTRA.DIHEDRAL>
-5.05573

>  <SCORE.INTRA.DIHEDRAL.0>
6.26853

>  <SCORE.INTRA.POLAR>
0

>  <SCORE.INTRA.POLAR.0>
0

>  <SCORE.INTRA.REPUL>
0

>  <SCORE.INTRA.REPUL.0>
0

>  <SCORE.INTRA.SOLV>
1.10223

>  <SCORE.INTRA.SOLV.lig_0>
-38.4926

>  <SCORE.INTRA.VDW>
-0.93201

>  <SCORE.INTRA.VDW.0>
-0.59057

>  <SCORE.INTRA.norm>
-0.153093

>  <SCORE.RESTR>
0

>  <SCORE.RESTR.CAVITY>
0

>  <SCORE.RESTR.norm>
0

>  <SCORE.SYSTEM>
0

>  <SCORE.SYSTEM.CONST>
0

>  <SCORE.SYSTEM.DIHEDRAL>
0

>  <SCORE.SYSTEM.SOLV>
0

>  <SCORE.SYSTEM.norm>
0

>  <SCORE.heavy>
19

>  <SCORE.norm>
-0.895434

>  <RMSD>
8.523

$$$$
ligand
 OpenBabel11021811483D
libRbt.so/2013.1/901 2013/11/27
 19 21  0  0  0  0  0  0  0  0999 V2000
  -11.4869   -4.7230    8.8426 C   0  0  0  0  0  0  0  0  0  0  0  0
  -11.0126   -3.3702    8.7712 O   0  0  0  0  0  0  0  0  0  0  0  0
  -10.4221   -5.6292    9.4645 C   0  0  1  0  0  0  0  0  0  0  0  0
  -10.9083   -6.9800    9.5823 O   0  0  0  0  0  0  0  0  0  0  0  0
   -9.1735   -5.6766    8.6016 C   0  0  1  0  0  0  0  0  0  0  0  0
   -8.1232   -4.8827    9.1677 O   0  0  0  0  0  0  0  0  0  0  0  0
   -8.7661   -7.1329    8.5467 C   0  0  0  0  0  0  0  0  0  0  0  0
   -9.9704   -7.9214    9.0403 C   0  0  2  0  0  0  0  0  0  0  0  0
  -13.8775   -7.9713    5.5296 N   0  0  0  0  0  0  0  0  0  0  0  0
  -13.5778   -7.0511    6.4854 C   0  0  1  0  0  0  0  0  0  0  0  0
  -14.3619   -5.9542    6.6121 N   0  0  0  0  0  0  0  0  0  0  0  0
  -12.5131   -7.2090    7.3182 N   0  0  0  0  0  0  0  0  0  0  0  0
  -11.6952   -8.2932    7.2347 C   0  0  2  0  0  0  0  0  0  0  0  0
  -11.9518   -9.2625    6.2819 C   0  0  1  0  0  0  0  0  0  0  0  0
  -13.1156   -9.0771    5.3781 C   0  0  0  0  0  0  0  0  0  0  0  0
  -13.3853   -9.9233    4.4965 O   0  0  0  0  0  0  0  0  0  0  0  0
  -11.0091  -10.2136    6.3998 N   0  0  0  0  0  0  0  0  0  0  0  0
  -10.1862   -9.8467    7.4100 C   0  0  0  0  0  0  0  0  0  0  0  0
  -10.6067   -8.6745    7.9194 N   0  0  1  0  0  0  0  0  0  0  0  0
  1  2  1  0  0  0  0
  3  1  1  6  0  0  0
  3  4  1  0  0  0  0
  3  5  1  0  0  0  0
  5  6  1  1  0  0  0
  5  7  1  0  0  0  0
  7  8  1  0  0  0  0
  8  4  1  6  0  0  0
  8 19  1  0  0  0  0
  9 15  1  0  0  0  0
  9 10  1  0  0  0  0
 10 11  1  1  0  0  0
 10 12  1  0  0  0  0
 13 12  1  1  0  0  0
 13 14  1  0  0  0  0
 13 19  1  0  0  0  0
 14 15  1  6  0  0  0
 14 17  1  0  0  0  0
 15 16  2  0  0  0  0
 17 18  1  0  0  0  0
 19 18  1  6  0  0  0
M  END
>  <CHROM.1>
178.00086369,19.21582703,-11.34933055,-7.28390476,7.56539538,0.92126809,-0.49935000
0.38451841

>  <Name>
ligand

>  <RI>
0

>  <Rbt.Current_Directory>
/home/itssahil/PROJECTS/Mol_Feturizer/New_Systems/rnas/3SKI

>  <Rbt.Executable>
rbdock ($Id: //depot/dev/client3/rdock/2013.1/src/exe/rbdock.cxx#4 $)

>  <Rbt.Library>
libRbt.so (2013.1, Build901 2013/11/27)

>  <Rbt.Parameter_File>
/export/apps/rDock/src/rDock_2013.1_src/data/scripts/dock_solv.prm

>  <Rbt.Receptor>
prm/blind_docking_60.prm

>  <SCORE>
-17.0053

>  <SCORE.INTER>
-14.0382

>  <SCORE.INTER.CONST>
1

>  <SCORE.INTER.POLAR>
0

>  <SCORE.INTER.ROT>
2

>  <SCORE.INTER.SOLV>
8.11772

>  <SCORE.INTER.VDW>
-16.998

>  <SCORE.INTER.norm>
-0.73885

>  <SCORE.INTRA>
-2.96717

>  <SCORE.INTRA.DIHEDRAL>
-5.06749

>  <SCORE.INTRA.DIHEDRAL.0>
6.26853

>  <SCORE.INTRA.POLAR>
0

>  <SCORE.INTRA.POLAR.0>
0

>  <SCORE.INTRA.REPUL>
0

>  <SCORE.INTRA.REPUL.0>
0

>  <SCORE.INTRA.SOLV>
1.07687

>  <SCORE.INTRA.SOLV.lig_0>
-38.4926

>  <SCORE.INTRA.VDW>
-0.971858

>  <SCORE.INTRA.VDW.0>
-0.59057

>  <SCORE.INTRA.norm>
-0.156167

>  <SCORE.RESTR>
0

>  <SCORE.RESTR.CAVITY>
0

>  <SCORE.RESTR.norm>
0

>  <SCORE.SYSTEM>
0

>  <SCORE.SYSTEM.CONST>
0

>  <SCORE.SYSTEM.DIHEDRAL>
0

>  <SCORE.SYSTEM.SOLV>
0

>  <SCORE.SYSTEM.norm>
0

>  <SCORE.heavy>
19

>  <SCORE.norm>
-0.895017

>  <RMSD>
8.537

$$$$
ligand
 OpenBabel11021811483D
libRbt.so/2013.1/901 2013/11/27
 19 21  0  0  0  0  0  0  0  0999 V2000
  -14.1366   -7.7365    4.4632 C   0  0  0  0  0  0  0  0  0  0  0  0
  -15.1762   -6.7654    4.2724 O   0  0  0  0  0  0  0  0  0  0  0  0
  -14.5088   -8.7014    5.5912 C   0  0  1  0  0  0  0  0  0  0  0  0
  -13.5370   -9.7592    5.6981 O   0  0  0  0  0  0  0  0  0  0  0  0
  -14.5431   -7.9878    6.9311 C   0  0  1  0  0  0  0  0  0  0  0  0
  -15.8909   -7.7496    7.3559 O   0  0  0  0  0  0  0  0  0  0  0  0
  -13.8351   -8.9053    7.9042 C   0  0  0  0  0  0  0  0  0  0  0  0
  -13.0876   -9.9201    7.0516 C   0  0  2  0  0  0  0  0  0  0  0  0
   -9.2976   -6.5372    8.3872 N   0  0  0  0  0  0  0  0  0  0  0  0
  -10.6492   -6.4027    8.4587 C   0  0  1  0  0  0  0  0  0  0  0  0
  -11.1715   -5.2477    8.9354 N   0  0  0  0  0  0  0  0  0  0  0  0
  -11.4869   -7.3980    8.0591 N   0  0  0  0  0  0  0  0  0  0  0  0
  -11.0142   -8.5768    7.5707 C   0  0  2  0  0  0  0  0  0  0  0  0
   -9.6479   -8.7698    7.4741 C   0  0  1  0  0  0  0  0  0  0  0  0
   -8.7449   -7.6765    7.9155 C   0  0  0  0  0  0  0  0  0  0  0  0
   -7.5017   -7.8058    7.8531 O   0  0  0  0  0  0  0  0  0  0  0  0
   -9.4417  -10.0006    6.9743 N   0  0  0  0  0  0  0  0  0  0  0  0
  -10.6554  -10.5597    6.7580 C   0  0  0  0  0  0  0  0  0  0  0  0
  -11.6145   -9.6890    7.1217 N   0  0  1  0  0  0  0  0  0  0  0  0
  1  2  1  0  0  0  0
  3  1  1  6  0  0  0
  3  4  1  0  0  0  0
  3  5  1  0  0  0  0
  5  6  1  1  0  0  0
  5  7  1  0  0  0  0
  7  8  1  0  0  0  0
  8  4  1  6  0  0  0
  8 19  1  0  0  0  0
  9 15  1  0  0  0  0
  9 10  1  0  0  0  0
 10 11  1  6  0  0  0
 10 12  1  0  0  0  0
 13 12  1  6  0  0  0
 13 14  1  0  0  0  0
 13 19  1  0  0  0  0
 14 15  1  1  0  0  0
 14 17  1  0  0  0  0
 15 16  2  0  0  0  0
 17 18  1  0  0  0  0
 19 18  1  1  0  0  0
M  END
>  <CHROM.1>
174.12276024,102.56253020,-11.96897217,-8.20025485,7.05468280,-2.95910189
-0.31481747,0.38240528

>  <Name>
ligand

>  <RI>
0

>  <Rbt.Current_Directory>
/home/itssahil/PROJECTS/Mol_Feturizer/New_Systems/rnas/3SKI

>  <Rbt.Executable>
rbdock ($Id: //depot/dev/client3/rdock/2013.1/src/exe/rbdock.cxx#4 $)

>  <Rbt.Library>
libRbt.so (2013.1, Build901 2013/11/27)

>  <Rbt.Parameter_File>
/export/apps/rDock/src/rDock_2013.1_src/data/scripts/dock_solv.prm

>  <Rbt.Receptor>
prm/blind_docking_100.prm

>  <SCORE>
-15.0739

>  <SCORE.INTER>
-13.0411

>  <SCORE.INTER.CONST>
1

>  <SCORE.INTER.POLAR>
0

>  <SCORE.INTER.ROT>
2

>  <SCORE.INTER.SOLV>
8.062

>  <SCORE.INTER.VDW>
-16.3147

>  <SCORE.INTER.norm>
-0.686372

>  <SCORE.INTRA>
-2.03285

>  <SCORE.INTRA.DIHEDRAL>
-4.92887

>  <SCORE.INTRA.DIHEDRAL.0>
6.26853

>  <SCORE.INTRA.POLAR>
0

>  <SCORE.INTRA.POLAR.0>
0

>  <SCORE.INTRA.REPUL>
0

>  <SCORE.INTRA.REPUL.0>
0

>  <SCORE.INTRA.SOLV>
0.0340305

>  <SCORE.INTRA.SOLV.lig_0>
-38.4926

>  <SCORE.INTRA.VDW>
0.414571

>  <SCORE.INTRA.VDW.0>
-0.59057

>  <SCORE.INTRA.norm>
-0.106992

>  <SCORE.RESTR>
0

>  <SCORE.RESTR.CAVITY>
0

>  <SCORE.RESTR.norm>
0

>  <SCORE.SYSTEM>
0

>  <SCORE.SYSTEM.CONST>
0

>  <SCORE.SYSTEM.DIHEDRAL>
0

>  <SCORE.SYSTEM.SOLV>
0

>  <SCORE.SYSTEM.norm>
0

>  <SCORE.heavy>
19

>  <SCORE.norm>
-0.793364

>  <RMSD>
8.587

$$$$
ligand
 OpenBabel11021811483D
libRbt.so/2013.1/901 2013/11/27
 19 21  0  0  0  0  0  0  0  0999 V2000
  -11.0068   -4.6095    8.4911 C   0  0  0  0  0  0  0  0  0  0  0  0
  -11.1240   -5.1014    7.1479 O   0  0  0  0  0  0  0  0  0  0  0  0
  -10.2539   -5.6161    9.3639 C   0  0  1  0  0  0  0  0  0  0  0  0
  -10.9810   -6.8564    9.4537 O   0  0  0  0  0  0  0  0  0  0  0  0
   -8.8915   -5.9375    8.7754 C   0  0  1  0  0  0  0  0  0  0  0  0
   -7.8465   -5.2751    9.4984 O   0  0  0  0  0  0  0  0  0  0  0  0
   -8.7406   -7.4394    8.8830 C   0  0  0  0  0  0  0  0  0  0  0  0
  -10.1352   -7.9792    9.1645 C   0  0  2  0  0  0  0  0  0  0  0  0
  -13.8612   -8.1065    5.4640 N   0  0  0  0  0  0  0  0  0  0  0  0
  -13.6674   -7.2161    6.4739 C   0  0  1  0  0  0  0  0  0  0  0  0
  -14.5265   -6.1782    6.6104 N   0  0  0  0  0  0  0  0  0  0  0  0
  -12.6351   -7.3465    7.3511 N   0  0  0  0  0  0  0  0  0  0  0  0
  -11.7452   -8.3718    7.2600 C   0  0  2  0  0  0  0  0  0  0  0  0
  -11.8929   -9.3084    6.2530 C   0  0  1  0  0  0  0  0  0  0  0  0
  -13.0225   -9.1535    5.3013 C   0  0  0  0  0  0  0  0  0  0  0  0
  -13.1946   -9.9717    4.3702 O   0  0  0  0  0  0  0  0  0  0  0  0
  -10.8967  -10.2028    6.3751 N   0  0  0  0  0  0  0  0  0  0  0  0
  -10.1479   -9.8338    7.4407 C   0  0  0  0  0  0  0  0  0  0  0  0
  -10.6675   -8.7162    7.9805 N   0  0  1  0  0  0  0  0  0  0  0  0
  1  2  1  0  0  0  0
  3  1  1  6  0  0  0
  3  4  1  0  0  0  0
  3  5  1  0  0  0  0
  5  6  1  1  0  0  0
  5  7  1  0  0  0  0
  7  8  1  0  0  0  0
  8  4  1  6  0  0  0
  8 19  1  0  0  0  0
  9 15  1  0  0  0  0
  9 10  1  0  0  0  0
 10 11  1  1  0  0  0
 10 12  1  0  0  0  0
 13 12  1  1  0  0  0
 13 14  1  0  0  0  0
 13 19  1  0  0  0  0
 14 15  1  6  0  0  0
 14 17  1  0  0  0  0
 15 16  2  0  0  0  0
 17 18  1  0  0  0  0
 19 18  1  6  0  0  0
M  END
>  <CHROM.1>
-62.76951077,1.95379155,-11.29999994,-7.47950729,7.47691148,0.75175006,-0.52460546
0.37453634

>  <Name>
ligand

>  <RI>
0

>  <Rbt.Current_Directory>
/home/itssahil/PROJECTS/Mol_Feturizer/New_Systems/rnas/3SKI

>  <Rbt.Executable>
rbdock ($Id: //depot/dev/client3/rdock/2013.1/src/exe/rbdock.cxx#4 $)

>  <Rbt.Library>
libRbt.so (2013.1, Build901 2013/11/27)

>  <Rbt.Parameter_File>
/export/apps/rDock/src/rDock_2013.1_src/data/scripts/dock_solv.prm

>  <Rbt.Receptor>
prm/blind_docking_40.prm

>  <SCORE>
-16.4802

>  <SCORE.INTER>
-13.8212

>  <SCORE.INTER.CONST>
1

>  <SCORE.INTER.POLAR>
0

>  <SCORE.INTER.ROT>
2

>  <SCORE.INTER.SOLV>
6.79693

>  <SCORE.INTER.VDW>
-16.4131

>  <SCORE.INTER.norm>
-0.727434

>  <SCORE.INTRA>
-2.65899

>  <SCORE.INTRA.DIHEDRAL>
-5.04054

>  <SCORE.INTRA.DIHEDRAL.0>
6.26853

>  <SCORE.INTRA.POLAR>
0

>  <SCORE.INTRA.POLAR.0>
0

>  <SCORE.INTRA.REPUL>
0

>  <SCORE.INTRA.REPUL.0>
0

>  <SCORE.INTRA.SOLV>
1.82905

>  <SCORE.INTRA.SOLV.lig_0>
-38.4926

>  <SCORE.INTRA.VDW>
-1.05324

>  <SCORE.INTRA.VDW.0>
-0.59057

>  <SCORE.INTRA.norm>
-0.139947

>  <SCORE.RESTR>
0

>  <SCORE.RESTR.CAVITY>
0

>  <SCORE.RESTR.norm>
0

>  <SCORE.SYSTEM>
0

>  <SCORE.SYSTEM.CONST>
0

>  <SCORE.SYSTEM.DIHEDRAL>
0

>  <SCORE.SYSTEM.SOLV>
0

>  <SCORE.SYSTEM.norm>
0

>  <SCORE.heavy>
19

>  <SCORE.norm>
-0.86738

>  <RMSD>
8.595

$$$$
ligand
 OpenBabel11021811483D
libRbt.so/2013.1/901 2013/11/27
 19 21  0  0  0  0  0  0  0  0999 V2000
   -7.5939   -7.9959   10.1890 C   0  0  0  0  0  0  0  0  0  0  0  0
   -6.4393   -8.8320   10.0216 O   0  0  0  0  0  0  0  0  0  0  0  0
   -7.8589   -7.1914    8.9145 C   0  0  1  0  0  0  0  0  0  0  0  0
   -8.1604   -8.0681    7.8120 O   0  0  0  0  0  0  0  0  0  0  0  0
   -9.0507   -6.2670    9.0902 C   0  0  1  0  0  0  0  0  0  0  0  0
   -8.6298   -4.9091    9.2706 O   0  0  0  0  0  0  0  0  0  0  0  0
   -9.8684   -6.4046    7.8243 C   0  0  0  0  0  0  0  0  0  0  0  0
   -9.3553   -7.6581    7.1309 C   0  0  2  0  0  0  0  0  0  0  0  0
  -14.4657   -8.8418    6.8561 N   0  0  0  0  0  0  0  0  0  0  0  0
  -13.8445   -7.6363    6.7509 C   0  0  1  0  0  0  0  0  0  0  0  0
  -14.5923   -6.5262    6.5446 N   0  0  0  0  0  0  0  0  0  0  0  0
  -12.4924   -7.5197    6.8524 N   0  0  0  0  0  0  0  0  0  0  0  0
  -11.6955   -8.6025    7.0617 C   0  0  2  0  0  0  0  0  0  0  0  0
  -12.2720   -9.8545    7.1776 C   0  0  1  0  0  0  0  0  0  0  0  0
  -13.7483   -9.9682    7.0630 C   0  0  0  0  0  0  0  0  0  0  0  0
  -14.3159  -11.0796    7.1552 O   0  0  0  0  0  0  0  0  0  0  0  0
  -11.2837  -10.7449    7.3717 N   0  0  0  0  0  0  0  0  0  0  0  0
  -10.1163  -10.0599    7.3829 C   0  0  0  0  0  0  0  0  0  0  0  0
  -10.3692   -8.7519    7.1944 N   0  0  1  0  0  0  0  0  0  0  0  0
  1  2  1  0  0  0  0
  3  1  1  1  0  0  0
  3  4  1  0  0  0  0
  3  5  1  0  0  0  0
  5  6  1  6  0  0  0
  5  7  1  0  0  0  0
  7  8  1  0  0  0  0
  8  4  1  1  0  0  0
  8 19  1  0  0  0  0
  9 15  1  0  0  0  0
  9 10  1  0  0  0  0
 10 11  1  1  0  0  0
 10 12  1  0  0  0  0
 13 12  1  1  0  0  0
 13 14  1  0  0  0  0
 13 19  1  0  0  0  0
 14 15  1  6  0  0  0
 14 17  1  0  0  0  0
 15 16  2  0  0  0  0
 17 18  1  0  0  0  0
 19 18  1  6  0  0  0
M  END
>  <CHROM.1>
62.95599852,157.49682305,-10.77215325,-8.23417478,7.81543403,-0.29210512
0.36071805,-3.10741006

>  <Name>
ligand

>  <RI>
0

>  <Rbt.Current_Directory>
/home/itssahil/PROJECTS/Mol_Feturizer/New_Systems/rnas/3SKI

>  <Rbt.Executable>
rbdock ($Id: //depot/dev/client3/rdock/2013.1/src/exe/rbdock.cxx#4 $)

>  <Rbt.Library>
libRbt.so (2013.1, Build901 2013/11/27)

>  <Rbt.Parameter_File>
/export/apps/rDock/src/rDock_2013.1_src/data/scripts/dock_solv.prm

>  <Rbt.Receptor>
prm/pocket_docking_8.prm

>  <SCORE>
-15.5631

>  <SCORE.INTER>
-12.8895

>  <SCORE.INTER.CONST>
1

>  <SCORE.INTER.POLAR>
0

>  <SCORE.INTER.ROT>
2

>  <SCORE.INTER.SOLV>
6.63837

>  <SCORE.INTER.VDW>
-15.7392

>  <SCORE.INTER.norm>
-0.678397

>  <SCORE.INTRA>
-2.67359

>  <SCORE.INTRA.DIHEDRAL>
-5.05038

>  <SCORE.INTRA.DIHEDRAL.0>
6.26853

>  <SCORE.INTRA.POLAR>
0

>  <SCORE.INTRA.POLAR.0>
0

>  <SCORE.INTRA.REPUL>
0

>  <SCORE.INTRA.REPUL.0>
0

>  <SCORE.INTRA.SOLV>
-0.258766

>  <SCORE.INTRA.SOLV.lig_0>
-38.4926

>  <SCORE.INTRA.VDW>
-0.0190141

>  <SCORE.INTRA.VDW.0>
-0.59057

>  <SCORE.INTRA.norm>
-0.140715

>  <SCORE.RESTR>
0

>  <SCORE.RESTR.CAVITY>
0

>  <SCORE.RESTR.norm>
0

>  <SCORE.SYSTEM>
0

>  <SCORE.SYSTEM.CONST>
0

>  <SCORE.SYSTEM.DIHEDRAL>
0

>  <SCORE.SYSTEM.SOLV>
0

>  <SCORE.SYSTEM.norm>
0

>  <SCORE.heavy>
19

>  <SCORE.norm>
-0.819112

>  <RMSD>
8.650

$$$$
ligand
 OpenBabel11021811483D
libRbt.so/2013.1/901 2013/11/27
 19 21  0  0  0  0  0  0  0  0999 V2000
   -7.1815   -8.4746    9.7575 C   0  0  0  0  0  0  0  0  0  0  0  0
   -6.6143   -7.7465   10.8568 O   0  0  0  0  0  0  0  0  0  0  0  0
   -7.6122   -7.5137    8.6471 C   0  0  1  0  0  0  0  0  0  0  0  0
   -8.1116   -8.2416    7.5088 O   0  0  0  0  0  0  0  0  0  0  0  0
   -8.7291   -6.5994    9.1189 C   0  0  1  0  0  0  0  0  0  0  0  0
   -8.2377   -5.2814    9.3926 O   0  0  0  0  0  0  0  0  0  0  0  0
   -9.7373   -6.5655    7.9909 C   0  0  0  0  0  0  0  0  0  0  0  0
   -9.3823   -7.7311    7.0794 C   0  0  2  0  0  0  0  0  0  0  0  0
  -14.5149   -8.8352    6.9073 N   0  0  0  0  0  0  0  0  0  0  0  0
  -13.8768   -7.6406    6.7810 C   0  0  1  0  0  0  0  0  0  0  0  0
  -14.6106   -6.5204    6.5793 N   0  0  0  0  0  0  0  0  0  0  0  0
  -12.5214   -7.5448    6.8569 N   0  0  0  0  0  0  0  0  0  0  0  0
  -11.7380   -8.6385    7.0605 C   0  0  2  0  0  0  0  0  0  0  0  0
  -12.3320   -9.8802    7.1971 C   0  0  1  0  0  0  0  0  0  0  0  0
  -13.8118   -9.9712    7.1103 C   0  0  0  0  0  0  0  0  0  0  0  0
  -14.3951  -11.0727    7.2218 O   0  0  0  0  0  0  0  0  0  0  0  0
  -11.3545  -10.7847    7.3804 N   0  0  0  0  0  0  0  0  0  0  0  0
  -10.1764  -10.1184    7.3648 C   0  0  0  0  0  0  0  0  0  0  0  0
  -10.4120   -8.8080    7.1702 N   0  0  1  0  0  0  0  0  0  0  0  0
  1  2  1  0  0  0  0
  3  1  1  1  0  0  0
  3  4  1  0  0  0  0
  3  5  1  0  0  0  0
  5  6  1  6  0  0  0
  5  7  1  0  0  0  0
  7  8  1  0  0  0  0
  8  4  1  1  0  0  0
  8 19  1  0  0  0  0
  9 15  1  0  0  0  0
  9 10  1  0  0  0  0
 10 11  1  1  0  0  0
 10 12  1  0  0  0  0
 13 12  1  1  0  0  0
 13 14  1  0  0  0  0
 13 19  1  0  0  0  0
 14 15  1  6  0  0  0
 14 17  1  0  0  0  0
 15 16  2  0  0  0  0
 17 18  1  0  0  0  0
 19 18  1  6  0  0  0
M  END
>  <CHROM.1>
176.69459379,168.47365660,-10.72771018,-8.28299295,7.83847968,-0.29027354
0.36005270,-3.10145627

>  <Name>
ligand

>  <RI>
0

>  <Rbt.Current_Directory>
/home/itssahil/PROJECTS/Mol_Feturizer/New_Systems/rnas/3SKI

>  <Rbt.Executable>
rbdock ($Id: //depot/dev/client3/rdock/2013.1/src/exe/rbdock.cxx#4 $)

>  <Rbt.Library>
libRbt.so (2013.1, Build901 2013/11/27)

>  <Rbt.Parameter_File>
/export/apps/rDock/src/rDock_2013.1_src/data/scripts/dock_solv.prm

>  <Rbt.Receptor>
prm/blind_docking_40.prm

>  <SCORE>
-15.7997

>  <SCORE.INTER>
-13.0668

>  <SCORE.INTER.CONST>
1

>  <SCORE.INTER.POLAR>
0

>  <SCORE.INTER.ROT>
2

>  <SCORE.INTER.SOLV>
6.55095

>  <SCORE.INTER.VDW>
-15.8282

>  <SCORE.INTER.norm>
-0.687728

>  <SCORE.INTRA>
-2.73288

>  <SCORE.INTRA.DIHEDRAL>
-5.03822

>  <SCORE.INTRA.DIHEDRAL.0>
6.26853

>  <SCORE.INTRA.POLAR>
0

>  <SCORE.INTRA.POLAR.0>
0

>  <SCORE.INTRA.REPUL>
0

>  <SCORE.INTRA.REPUL.0>
0

>  <SCORE.INTRA.SOLV>
-0.0368324

>  <SCORE.INTRA.SOLV.lig_0>
-38.4926

>  <SCORE.INTRA.VDW>
-0.19536

>  <SCORE.INTRA.VDW.0>
-0.59057

>  <SCORE.INTRA.norm>
-0.143836

>  <SCORE.RESTR>
0

>  <SCORE.RESTR.CAVITY>
0

>  <SCORE.RESTR.norm>
0

>  <SCORE.SYSTEM>
0

>  <SCORE.SYSTEM.CONST>
0

>  <SCORE.SYSTEM.DIHEDRAL>
0

>  <SCORE.SYSTEM.SOLV>
0

>  <SCORE.SYSTEM.norm>
0

>  <SCORE.heavy>
19

>  <SCORE.norm>
-0.831564

>  <RMSD>
8.672

$$$$
ligand
 OpenBabel11021811483D
libRbt.so/2013.1/901 2013/11/27
 19 21  0  0  0  0  0  0  0  0999 V2000
   -7.3130   -8.8690    9.8408 C   0  0  0  0  0  0  0  0  0  0  0  0
   -6.7251   -8.1816   10.9553 O   0  0  0  0  0  0  0  0  0  0  0  0
   -7.5843   -7.8920    8.6946 C   0  0  1  0  0  0  0  0  0  0  0  0
   -8.0999   -8.5877    7.5435 O   0  0  0  0  0  0  0  0  0  0  0  0
   -8.6210   -6.8566    9.0935 C   0  0  1  0  0  0  0  0  0  0  0  0
   -8.0081   -5.5915    9.3716 O   0  0  0  0  0  0  0  0  0  0  0  0
   -9.5625   -6.7415    7.9143 C   0  0  0  0  0  0  0  0  0  0  0  0
   -9.2869   -7.9567    7.0408 C   0  0  2  0  0  0  0  0  0  0  0  0
  -14.4344   -8.6139    6.2262 N   0  0  0  0  0  0  0  0  0  0  0  0
  -13.6622   -7.5057    6.0656 C   0  0  1  0  0  0  0  0  0  0  0  0
  -14.2385   -6.3587    5.6340 N   0  0  0  0  0  0  0  0  0  0  0  0
  -12.3278   -7.5218    6.3322 N   0  0  0  0  0  0  0  0  0  0  0  0
  -11.7001   -8.6468    6.7702 C   0  0  2  0  0  0  0  0  0  0  0  0
  -12.4353   -9.8042    6.9526 C   0  0  1  0  0  0  0  0  0  0  0  0
  -13.8902   -9.7736    6.6562 C   0  0  0  0  0  0  0  0  0  0  0  0
  -14.5966  -10.7965    6.8001 O   0  0  0  0  0  0  0  0  0  0  0  0
  -11.5937  -10.7619    7.3788 N   0  0  0  0  0  0  0  0  0  0  0  0
  -10.3608  -10.2099    7.4661 C   0  0  0  0  0  0  0  0  0  0  0  0
  -10.4274   -8.9183    7.0950 N   0  0  1  0  0  0  0  0  0  0  0  0
  1  2  1  0  0  0  0
  3  1  1  1  0  0  0
  3  4  1  0  0  0  0
  3  5  1  0  0  0  0
  5  6  1  6  0  0  0
  5  7  1  0  0  0  0
  7  8  1  0  0  0  0
  8  4  1  1  0  0  0
  8 19  1  0  0  0  0
  9 15  1  0  0  0  0
  9 10  1  0  0  0  0
 10 11  1  1  0  0  0
 10 12  1  0  0  0  0
 13 12  1  1  0  0  0
 13 14  1  0  0  0  0
 13 19  1  0  0  0  0
 14 15  1  6  0  0  0
 14 17  1  0  0  0  0
 15 16  2  0  0  0  0
 17 18  1  0  0  0  0
 19 18  1  6  0  0  0
M  END
>  <CHROM.1>
176.55935667,176.33415381,-10.70242128,-8.37521621,7.62584613,-0.13297157
0.47198968,3.01885763

>  <Name>
ligand

>  <RI>
0

>  <Rbt.Current_Directory>
/home/itssahil/PROJECTS/Mol_Feturizer/New_Systems/rnas/3SKI

>  <Rbt.Executable>
rbdock ($Id: //depot/dev/client3/rdock/2013.1/src/exe/rbdock.cxx#4 $)

>  <Rbt.Library>
libRbt.so (2013.1, Build901 2013/11/27)

>  <Rbt.Parameter_File>
/export/apps/rDock/src/rDock_2013.1_src/data/scripts/dock_solv.prm

>  <Rbt.Receptor>
prm/blind_docking_40.prm

>  <SCORE>
-15.7536

>  <SCORE.INTER>
-12.9615

>  <SCORE.INTER.CONST>
1

>  <SCORE.INTER.POLAR>
0

>  <SCORE.INTER.ROT>
2

>  <SCORE.INTER.SOLV>
6.43332

>  <SCORE.INTER.VDW>
-15.7188

>  <SCORE.INTER.norm>
-0.682183

>  <SCORE.INTRA>
-2.79214

>  <SCORE.INTRA.DIHEDRAL>
-5.028

>  <SCORE.INTRA.DIHEDRAL.0>
6.26853

>  <SCORE.INTRA.POLAR>
0

>  <SCORE.INTRA.POLAR.0>
0

>  <SCORE.INTRA.REPUL>
0

>  <SCORE.INTRA.REPUL.0>
0

>  <SCORE.INTRA.SOLV>
-0.0346647

>  <SCORE.INTRA.SOLV.lig_0>
-38.4926

>  <SCORE.INTRA.VDW>
-0.260807

>  <SCORE.INTRA.VDW.0>
-0.59057

>  <SCORE.INTRA.norm>
-0.146955

>  <SCORE.RESTR>
0

>  <SCORE.RESTR.CAVITY>
0

>  <SCORE.RESTR.norm>
0

>  <SCORE.SYSTEM>
0

>  <SCORE.SYSTEM.CONST>
0

>  <SCORE.SYSTEM.DIHEDRAL>
0

>  <SCORE.SYSTEM.SOLV>
0

>  <SCORE.SYSTEM.norm>
0

>  <SCORE.heavy>
19

>  <SCORE.norm>
-0.829138

>  <RMSD>
8.724

$$$$
ligand
 OpenBabel11021811483D
libRbt.so/2013.1/901 2013/11/27
 19 21  0  0  0  0  0  0  0  0999 V2000
   -7.2768   -8.8626    9.8184 C   0  0  0  0  0  0  0  0  0  0  0  0
   -8.4560   -9.6191   10.1304 O   0  0  0  0  0  0  0  0  0  0  0  0
   -7.5689   -7.8550    8.7044 C   0  0  1  0  0  0  0  0  0  0  0  0
   -8.0897   -8.5214    7.5383 O   0  0  0  0  0  0  0  0  0  0  0  0
   -8.6112   -6.8419    9.1439 C   0  0  1  0  0  0  0  0  0  0  0  0
   -8.0073   -5.5796    9.4532 O   0  0  0  0  0  0  0  0  0  0  0  0
   -9.5657   -6.7012    7.9780 C   0  0  0  0  0  0  0  0  0  0  0  0
   -9.2875   -7.8874    7.0663 C   0  0  2  0  0  0  0  0  0  0  0  0
  -14.4204   -8.5923    6.2002 N   0  0  0  0  0  0  0  0  0  0  0  0
  -13.6584   -7.4750    6.0544 C   0  0  1  0  0  0  0  0  0  0  0  0
  -14.2427   -6.3311    5.6256 N   0  0  0  0  0  0  0  0  0  0  0  0
  -12.3263   -7.4792    6.3331 N   0  0  0  0  0  0  0  0  0  0  0  0
  -11.6909   -8.6007    6.7688 C   0  0  2  0  0  0  0  0  0  0  0  0
  -12.4155   -9.7669    6.9365 C   0  0  1  0  0  0  0  0  0  0  0  0
  -13.8679   -9.7494    6.6270 C   0  0  0  0  0  0  0  0  0  0  0  0
  -14.5648  -10.7806    6.7573 O   0  0  0  0  0  0  0  0  0  0  0  0
  -11.5678  -10.7189    7.3636 N   0  0  0  0  0  0  0  0  0  0  0  0
  -10.3417  -10.1546    7.4660 C   0  0  0  0  0  0  0  0  0  0  0  0
  -10.4184   -8.8612    7.1033 N   0  0  1  0  0  0  0  0  0  0  0  0
  1  2  1  0  0  0  0
  3  1  1  1  0  0  0
  3  4  1  0  0  0  0
  3  5  1  0  0  0  0
  5  6  1  6  0  0  0
  5  7  1  0  0  0  0
  7  8  1  0  0  0  0
  8  4  1  1  0  0  0
  8 19  1  0  0  0  0
  9 15  1  0  0  0  0
  9 10  1  0  0  0  0
 10 11  1  1  0  0  0
 10 12  1  0  0  0  0
 13 12  1  1  0  0  0
 13 14  1  0  0  0  0
 13 19  1  0  0  0  0
 14 15  1  6  0  0  0
 14 17  1  0  0  0  0
 15 16  2  0  0  0  0
 17 18  1  0  0  0  0
 19 18  1  6  0  0  0
M  END
>  <CHROM.1>
-56.16600189,178.02355387,-10.79693400,-8.42976139,7.57904561,-0.10261700
0.45892352,2.98443349

>  <Name>
ligand

>  <RI>
0

>  <Rbt.Current_Directory>
/home/itssahil/PROJECTS/Mol_Feturizer/New_Systems/rnas/3SKI

>  <Rbt.Executable>
rbdock ($Id: //depot/dev/client3/rdock/2013.1/src/exe/rbdock.cxx#4 $)

>  <Rbt.Library>
libRbt.so (2013.1, Build901 2013/11/27)

>  <Rbt.Parameter_File>
/export/apps/rDock/src/rDock_2013.1_src/data/scripts/dock_solv.prm

>  <Rbt.Receptor>
prm/pocket_docking_8.prm

>  <SCORE>
-16.401

>  <SCORE.INTER>
-13.4699

>  <SCORE.INTER.CONST>
1

>  <SCORE.INTER.POLAR>
0

>  <SCORE.INTER.ROT>
2

>  <SCORE.INTER.SOLV>
7.15334

>  <SCORE.INTER.VDW>
-16.2977

>  <SCORE.INTER.norm>
-0.708943

>  <SCORE.INTRA>
-2.93111

>  <SCORE.INTRA.DIHEDRAL>
-5.01351

>  <SCORE.INTRA.DIHEDRAL.0>
6.26853

>  <SCORE.INTRA.POLAR>
0

>  <SCORE.INTRA.POLAR.0>
0

>  <SCORE.INTRA.REPUL>
0

>  <SCORE.INTRA.REPUL.0>
0

>  <SCORE.INTRA.SOLV>
0.254172

>  <SCORE.INTRA.SOLV.lig_0>
-38.4926

>  <SCORE.INTRA.VDW>
-0.551438

>  <SCORE.INTRA.VDW.0>
-0.59057

>  <SCORE.INTRA.norm>
-0.154269

>  <SCORE.RESTR>
0

>  <SCORE.RESTR.CAVITY>
0

>  <SCORE.RESTR.norm>
0

>  <SCORE.SYSTEM>
0

>  <SCORE.SYSTEM.CONST>
0

>  <SCORE.SYSTEM.DIHEDRAL>
0

>  <SCORE.SYSTEM.SOLV>
0

>  <SCORE.SYSTEM.norm>
0

>  <SCORE.heavy>
19

>  <SCORE.norm>
-0.863212

>  <RMSD>
8.749

$$$$
ligand
 OpenBabel11021811483D
libRbt.so/2013.1/901 2013/11/27
 19 21  0  0  0  0  0  0  0  0999 V2000
  -14.0649   -6.5554    4.3127 C   0  0  0  0  0  0  0  0  0  0  0  0
  -15.2573   -5.7563    4.3208 O   0  0  0  0  0  0  0  0  0  0  0  0
  -14.3958   -8.0104    4.6522 C   0  0  1  0  0  0  0  0  0  0  0  0
  -13.2173   -8.8342    4.5666 O   0  0  0  0  0  0  0  0  0  0  0  0
  -14.9260   -8.1334    6.0699 C   0  0  1  0  0  0  0  0  0  0  0  0
  -16.3461   -8.3251    6.0761 O   0  0  0  0  0  0  0  0  0  0  0  0
  -14.2265   -9.3346    6.6680 C   0  0  0  0  0  0  0  0  0  0  0  0
  -13.0551   -9.6371    5.7450 C   0  0  2  0  0  0  0  0  0  0  0  0
  -10.1393   -5.8151    7.8623 N   0  0  0  0  0  0  0  0  0  0  0  0
  -11.3770   -5.7563    7.3012 C   0  0  1  0  0  0  0  0  0  0  0  0
  -12.0173   -4.5645    7.2426 N   0  0  0  0  0  0  0  0  0  0  0  0
  -11.9834   -6.8643    6.7946 N   0  0  0  0  0  0  0  0  0  0  0  0
  -11.3832   -8.0851    6.8262 C   0  0  2  0  0  0  0  0  0  0  0  0
  -10.1233   -8.2052    7.3843 C   0  0  1  0  0  0  0  0  0  0  0  0
   -9.4734   -6.9888    7.9353 C   0  0  0  0  0  0  0  0  0  0  0  0
   -8.3368   -7.0475    8.4555 O   0  0  0  0  0  0  0  0  0  0  0  0
   -9.7584   -9.4963    7.2996 N   0  0  0  0  0  0  0  0  0  0  0  0
  -10.7682  -10.1649    6.6950 C   0  0  0  0  0  0  0  0  0  0  0  0
  -11.7592   -9.3020    6.4058 N   0  0  1  0  0  0  0  0  0  0  0  0
  1  2  1  0  0  0  0
  3  1  1  1  0  0  0
  3  4  1  0  0  0  0
  3  5  1  0  0  0  0
  5  6  1  6  0  0  0
  5  7  1  0  0  0  0
  7  8  1  0  0  0  0
  8  4  1  6  0  0  0
  8 19  1  0  0  0  0
  9 15  1  0  0  0  0
  9 10  1  0  0  0  0
 10 11  1  6  0  0  0
 10 12  1  0  0  0  0
 13 12  1  6  0  0  0
 13 14  1  0  0  0  0
 13 19  1  0  0  0  0
 14 15  1  1  0  0  0
 14 17  1  0  0  0  0
 15 16  2  0  0  0  0
 17 18  1  0  0  0  0
 19 18  1  1  0  0  0
M  END
>  <CHROM.1>
176.51137349,57.03758559,-12.31522166,-7.70907070,6.41627508,3.04517088,0.45326609
-3.07477780

>  <Name>
ligand

>  <RI>
0

>  <Rbt.Current_Directory>
/home/itssahil/PROJECTS/Mol_Feturizer/New_Systems/rnas/3SKI

>  <Rbt.Executable>
rbdock ($Id: //depot/dev/client3/rdock/2013.1/src/exe/rbdock.cxx#4 $)

>  <Rbt.Library>
libRbt.so (2013.1, Build901 2013/11/27)

>  <Rbt.Parameter_File>
/export/apps/rDock/src/rDock_2013.1_src/data/scripts/dock_solv.prm

>  <Rbt.Receptor>
prm/blind_docking_100.prm

>  <SCORE>
-15.765

>  <SCORE.INTER>
-12.3734

>  <SCORE.INTER.CONST>
1

>  <SCORE.INTER.POLAR>
0

>  <SCORE.INTER.ROT>
2

>  <SCORE.INTER.SOLV>
6.99654

>  <SCORE.INTER.VDW>
-15.5145

>  <SCORE.INTER.norm>
-0.651234

>  <SCORE.INTRA>
-3.39154

>  <SCORE.INTRA.DIHEDRAL>
-5.02615

>  <SCORE.INTRA.DIHEDRAL.0>
6.26853

>  <SCORE.INTRA.POLAR>
0

>  <SCORE.INTRA.POLAR.0>
0

>  <SCORE.INTRA.REPUL>
0

>  <SCORE.INTRA.REPUL.0>
0

>  <SCORE.INTRA.SOLV>
0.756423

>  <SCORE.INTRA.SOLV.lig_0>
-38.4926

>  <SCORE.INTRA.VDW>
-1.25667

>  <SCORE.INTRA.VDW.0>
-0.59057

>  <SCORE.INTRA.norm>
-0.178502

>  <SCORE.RESTR>
0

>  <SCORE.RESTR.CAVITY>
0

>  <SCORE.RESTR.norm>
0

>  <SCORE.SYSTEM>
0

>  <SCORE.SYSTEM.CONST>
0

>  <SCORE.SYSTEM.DIHEDRAL>
0

>  <SCORE.SYSTEM.SOLV>
0

>  <SCORE.SYSTEM.norm>
0

>  <SCORE.heavy>
19

>  <SCORE.norm>
-0.829736

>  <RMSD>
8.804

$$$$
ligand
 OpenBabel11021811483D
libRbt.so/2013.1/901 2013/11/27
 19 21  0  0  0  0  0  0  0  0999 V2000
  -15.4956   -4.9341    7.7847 C   0  0  0  0  0  0  0  0  0  0  0  0
  -16.2108   -4.8856    9.0282 O   0  0  0  0  0  0  0  0  0  0  0  0
  -14.4449   -3.8228    7.7302 C   0  0  1  0  0  0  0  0  0  0  0  0
  -13.3971   -4.0649    8.6885 O   0  0  0  0  0  0  0  0  0  0  0  0
  -13.7921   -3.7552    6.3608 C   0  0  1  0  0  0  0  0  0  0  0  0
  -14.2910   -2.6449    5.6044 O   0  0  0  0  0  0  0  0  0  0  0  0
  -12.3095   -3.5971    6.6190 C   0  0  0  0  0  0  0  0  0  0  0  0
  -12.1006   -3.9574    8.0826 C   0  0  2  0  0  0  0  0  0  0  0  0
  -12.0514   -9.0323    6.7276 N   0  0  0  0  0  0  0  0  0  0  0  0
  -12.9415   -8.0547    6.4082 C   0  0  1  0  0  0  0  0  0  0  0  0
  -14.0036   -8.3614    5.6260 N   0  0  0  0  0  0  0  0  0  0  0  0
  -12.7921   -6.7794    6.8591 N   0  0  0  0  0  0  0  0  0  0  0  0
  -11.7446   -6.4189    7.6492 C   0  0  2  0  0  0  0  0  0  0  0  0
  -10.8080   -7.3716    8.0072 C   0  0  1  0  0  0  0  0  0  0  0  0
  -10.9817   -8.7591    7.5069 C   0  0  0  0  0  0  0  0  0  0  0  0
  -10.1579   -9.6548    7.7986 O   0  0  0  0  0  0  0  0  0  0  0  0
   -9.8832   -6.7696    8.7751 N   0  0  0  0  0  0  0  0  0  0  0  0
  -10.2408   -5.4699    8.8979 C   0  0  0  0  0  0  0  0  0  0  0  0
  -11.3779   -5.2573    8.2107 N   0  0  1  0  0  0  0  0  0  0  0  0
  1  2  1  0  0  0  0
  3  1  1  6  0  0  0
  3  4  1  0  0  0  0
  3  5  1  0  0  0  0
  5  6  1  6  0  0  0
  5  7  1  0  0  0  0
  7  8  1  0  0  0  0
  8  4  1  1  0  0  0
  8 19  1  0  0  0  0
  9 15  1  0  0  0  0
  9 10  1  0  0  0  0
 10 11  1  1  0  0  0
 10 12  1  0  0  0  0
 13 12  1  1  0  0  0
 13 14  1  0  0  0  0
 13 19  1  0  0  0  0
 14 15  1  6  0  0  0
 14 17  1  0  0  0  0
 15 16  2  0  0  0  0
 17 18  1  0  0  0  0
 19 18  1  6  0  0  0
M  END
>  <CHROM.1>
67.78548712,64.22635568,-12.64636342,-5.93485435,7.49507011,2.25217848,-0.33852931
0.22109628

>  <Name>
ligand

>  <RI>
0

>  <Rbt.Current_Directory>
/home/itssahil/PROJECTS/Mol_Feturizer/New_Systems/rnas/3SKI

>  <Rbt.Executable>
rbdock ($Id: //depot/dev/client3/rdock/2013.1/src/exe/rbdock.cxx#4 $)

>  <Rbt.Library>
libRbt.so (2013.1, Build901 2013/11/27)

>  <Rbt.Parameter_File>
/export/apps/rDock/src/rDock_2013.1_src/data/scripts/dock_solv.prm

>  <Rbt.Receptor>
prm/blind_docking_100.prm

>  <SCORE>
-13.5291

>  <SCORE.INTER>
-10.0216

>  <SCORE.INTER.CONST>
1

>  <SCORE.INTER.POLAR>
0

>  <SCORE.INTER.ROT>
2

>  <SCORE.INTER.SOLV>
6.25099

>  <SCORE.INTER.VDW>
-13.698

>  <SCORE.INTER.norm>
-0.527452

>  <SCORE.INTRA>
-3.50756

>  <SCORE.INTRA.DIHEDRAL>
-4.84301

>  <SCORE.INTRA.DIHEDRAL.0>
6.26853

>  <SCORE.INTRA.POLAR>
0

>  <SCORE.INTRA.POLAR.0>
0

>  <SCORE.INTRA.REPUL>
0

>  <SCORE.INTRA.REPUL.0>
0

>  <SCORE.INTRA.SOLV>
0.246028

>  <SCORE.INTRA.SOLV.lig_0>
-38.4926

>  <SCORE.INTRA.VDW>
-1.20907

>  <SCORE.INTRA.VDW.0>
-0.59057

>  <SCORE.INTRA.norm>
-0.184609

>  <SCORE.RESTR>
0

>  <SCORE.RESTR.CAVITY>
0

>  <SCORE.RESTR.norm>
0

>  <SCORE.SYSTEM>
0

>  <SCORE.SYSTEM.CONST>
0

>  <SCORE.SYSTEM.DIHEDRAL>
0

>  <SCORE.SYSTEM.SOLV>
0

>  <SCORE.SYSTEM.norm>
0

>  <SCORE.heavy>
19

>  <SCORE.norm>
-0.71206

>  <RMSD>
8.804

$$$$
ligand
 OpenBabel11021811483D
libRbt.so/2013.1/901 2013/11/27
 19 21  0  0  0  0  0  0  0  0999 V2000
  -10.5431   -6.5876    8.7137 C   0  0  0  0  0  0  0  0  0  0  0  0
   -9.2168   -6.2053    9.1076 O   0  0  0  0  0  0  0  0  0  0  0  0
  -10.6678   -8.1121    8.6702 C   0  0  1  0  0  0  0  0  0  0  0  0
  -12.0023   -8.5036    8.2948 O   0  0  0  0  0  0  0  0  0  0  0  0
   -9.7210   -8.7084    7.6436 C   0  0  1  0  0  0  0  0  0  0  0  0
   -8.5856   -9.3119    8.2764 O   0  0  0  0  0  0  0  0  0  0  0  0
  -10.5265   -9.7489    6.8963 C   0  0  0  0  0  0  0  0  0  0  0  0
  -11.9838   -9.4683    7.2324 C   0  0  2  0  0  0  0  0  0  0  0  0
  -14.0184   -5.1650    5.0109 N   0  0  0  0  0  0  0  0  0  0  0  0
  -13.3841   -5.3110    6.2053 C   0  0  1  0  0  0  0  0  0  0  0  0
  -13.2153   -4.2261    6.9980 N   0  0  0  0  0  0  0  0  0  0  0  0
  -12.9202   -6.5203    6.6229 N   0  0  0  0  0  0  0  0  0  0  0  0
  -13.0658   -7.6418    5.8662 C   0  0  2  0  0  0  0  0  0  0  0  0
  -13.7037   -7.5537    4.6421 C   0  0  1  0  0  0  0  0  0  0  0  0
  -14.2035   -6.2279    4.1972 C   0  0  0  0  0  0  0  0  0  0  0  0
  -14.7820   -6.0963    3.0954 O   0  0  0  0  0  0  0  0  0  0  0  0
  -13.7137   -8.7819    4.0953 N   0  0  0  0  0  0  0  0  0  0  0  0
  -13.1001   -9.6184    4.9647 C   0  0  0  0  0  0  0  0  0  0  0  0
  -12.7057   -8.9213    6.0458 N   0  0  1  0  0  0  0  0  0  0  0  0
  1  2  1  0  0  0  0
  3  1  1  6  0  0  0
  3  4  1  0  0  0  0
  3  5  1  0  0  0  0
  5  6  1  1  0  0  0
  5  7  1  0  0  0  0
  7  8  1  0  0  0  0
  8  4  1  1  0  0  0
  8 19  1  0  0  0  0
  9 15  1  0  0  0  0
  9 10  1  0  0  0  0
 10 11  1  1  0  0  0
 10 12  1  0  0  0  0
 13 12  1  1  0  0  0
 13 14  1  0  0  0  0
 13 19  1  0  0  0  0
 14 15  1  6  0  0  0
 14 17  1  0  0  0  0
 15 16  2  0  0  0  0
 17 18  1  0  0  0  0
 19 18  1  6  0  0  0
M  END
>  <CHROM.1>
179.14331681,13.48379422,-12.14816000,-7.50669116,6.50728754,-0.08189384
-0.78805783,0.33077437

>  <Name>
ligand

>  <RI>
0

>  <Rbt.Current_Directory>
/home/itssahil/PROJECTS/Mol_Feturizer/New_Systems/rnas/3SKI

>  <Rbt.Executable>
rbdock ($Id: //depot/dev/client3/rdock/2013.1/src/exe/rbdock.cxx#4 $)

>  <Rbt.Library>
libRbt.so (2013.1, Build901 2013/11/27)

>  <Rbt.Parameter_File>
/export/apps/rDock/src/rDock_2013.1_src/data/scripts/dock_solv.prm

>  <Rbt.Receptor>
prm/blind_docking_40.prm

>  <SCORE>
-17.1388

>  <SCORE.INTER>
-14.1845

>  <SCORE.INTER.CONST>
1

>  <SCORE.INTER.POLAR>
0

>  <SCORE.INTER.ROT>
2

>  <SCORE.INTER.SOLV>
7.65048

>  <SCORE.INTER.VDW>
-16.9398

>  <SCORE.INTER.norm>
-0.746554

>  <SCORE.INTRA>
-2.95426

>  <SCORE.INTRA.DIHEDRAL>
-5.07515

>  <SCORE.INTRA.DIHEDRAL.0>
6.26853

>  <SCORE.INTRA.POLAR>
0

>  <SCORE.INTRA.POLAR.0>
0

>  <SCORE.INTRA.REPUL>
0

>  <SCORE.INTRA.REPUL.0>
0

>  <SCORE.INTRA.SOLV>
0.942561

>  <SCORE.INTRA.SOLV.lig_0>
-38.4926

>  <SCORE.INTRA.VDW>
-0.887969

>  <SCORE.INTRA.VDW.0>
-0.59057

>  <SCORE.INTRA.norm>
-0.155487

>  <SCORE.RESTR>
0

>  <SCORE.RESTR.CAVITY>
0

>  <SCORE.RESTR.norm>
0

>  <SCORE.SYSTEM>
0

>  <SCORE.SYSTEM.CONST>
0

>  <SCORE.SYSTEM.DIHEDRAL>
0

>  <SCORE.SYSTEM.SOLV>
0

>  <SCORE.SYSTEM.norm>
0

>  <SCORE.heavy>
19

>  <SCORE.norm>
-0.902041

>  <RMSD>
8.919

$$$$
ligand
 OpenBabel11021811483D
libRbt.so/2013.1/901 2013/11/27
 19 21  0  0  0  0  0  0  0  0999 V2000
  -10.2673   -6.3669    7.4122 C   0  0  0  0  0  0  0  0  0  0  0  0
  -10.8698   -5.3776    8.2599 O   0  0  0  0  0  0  0  0  0  0  0  0
  -10.6204   -7.7737    7.9001 C   0  0  1  0  0  0  0  0  0  0  0  0
  -12.0392   -8.0043    7.8065 O   0  0  0  0  0  0  0  0  0  0  0  0
   -9.9378   -8.8329    7.0528 C   0  0  1  0  0  0  0  0  0  0  0  0
   -8.8213   -9.4074    7.7434 O   0  0  0  0  0  0  0  0  0  0  0  0
  -10.9914   -9.8848    6.7816 C   0  0  0  0  0  0  0  0  0  0  0  0
  -12.3238   -9.2416    7.1375 C   0  0  2  0  0  0  0  0  0  0  0  0
  -15.0735   -5.6527    4.4632 N   0  0  0  0  0  0  0  0  0  0  0  0
  -14.4251   -5.5428    5.6539 C   0  0  1  0  0  0  0  0  0  0  0  0
  -14.4489   -4.3580    6.3095 N   0  0  0  0  0  0  0  0  0  0  0  0
  -13.7583   -6.5947    6.2024 N   0  0  0  0  0  0  0  0  0  0  0  0
  -13.7053   -7.8068    5.5864 C   0  0  2  0  0  0  0  0  0  0  0  0
  -14.3472   -7.9777    4.3731 C   0  0  1  0  0  0  0  0  0  0  0  0
  -15.0696   -6.8213    3.7846 C   0  0  0  0  0  0  0  0  0  0  0  0
  -15.6607   -6.9246    2.6864 O   0  0  0  0  0  0  0  0  0  0  0  0
  -14.1424   -9.2455    3.9756 N   0  0  0  0  0  0  0  0  0  0  0  0
  -13.3937   -9.8531    4.9256 C   0  0  0  0  0  0  0  0  0  0  0  0
  -13.1283   -8.9739    5.9089 N   0  0  1  0  0  0  0  0  0  0  0  0
  1  2  1  0  0  0  0
  3  1  1  6  0  0  0
  3  4  1  0  0  0  0
  3  5  1  0  0  0  0
  5  6  1  1  0  0  0
  5  7  1  0  0  0  0
  7  8  1  0  0  0  0
  8  4  1  6  0  0  0
  8 19  1  0  0  0  0
  9 15  1  0  0  0  0
  9 10  1  0  0  0  0
 10 11  1  1  0  0  0
 10 12  1  0  0  0  0
 13 12  1  1  0  0  0
 13 14  1  0  0  0  0
 13 19  1  0  0  0  0
 14 15  1  6  0  0  0
 14 17  1  0  0  0  0
 15 16  2  0  0  0  0
 17 18  1  0  0  0  0
 19 18  1  6  0  0  0
M  END
>  <CHROM.1>
63.73982714,-10.90371505,-12.72899983,-7.59619429,6.04515702,-0.04830280
-0.67439494,0.35859971

>  <Name>
ligand

>  <RI>
0

>  <Rbt.Current_Directory>
/home/itssahil/PROJECTS/Mol_Feturizer/New_Systems/rnas/3SKI

>  <Rbt.Executable>
rbdock ($Id: //depot/dev/client3/rdock/2013.1/src/exe/rbdock.cxx#4 $)

>  <Rbt.Library>
libRbt.so (2013.1, Build901 2013/11/27)

>  <Rbt.Parameter_File>
/export/apps/rDock/src/rDock_2013.1_src/data/scripts/dock_solv.prm

>  <Rbt.Receptor>
prm/blind_docking_40.prm

>  <SCORE>
-17.901

>  <SCORE.INTER>
-14.7735

>  <SCORE.INTER.CONST>
1

>  <SCORE.INTER.POLAR>
0

>  <SCORE.INTER.ROT>
2

>  <SCORE.INTER.SOLV>
5.8839

>  <SCORE.INTER.VDW>
-16.7436

>  <SCORE.INTER.norm>
-0.77755

>  <SCORE.INTRA>
-3.1275

>  <SCORE.INTRA.DIHEDRAL>
-5.00357

>  <SCORE.INTRA.DIHEDRAL.0>
6.26853

>  <SCORE.INTRA.POLAR>
0

>  <SCORE.INTRA.POLAR.0>
0

>  <SCORE.INTRA.REPUL>
0

>  <SCORE.INTRA.REPUL.0>
0

>  <SCORE.INTRA.SOLV>
-0.0173917

>  <SCORE.INTRA.SOLV.lig_0>
-38.4926

>  <SCORE.INTRA.VDW>
-0.617024

>  <SCORE.INTRA.VDW.0>
-0.59057

>  <SCORE.INTRA.norm>
-0.164606

>  <SCORE.RESTR>
0

>  <SCORE.RESTR.CAVITY>
0

>  <SCORE.RESTR.norm>
0

>  <SCORE.SYSTEM>
0

>  <SCORE.SYSTEM.CONST>
0

>  <SCORE.SYSTEM.DIHEDRAL>
0

>  <SCORE.SYSTEM.SOLV>
0

>  <SCORE.SYSTEM.norm>
0

>  <SCORE.heavy>
19

>  <SCORE.norm>
-0.942156

>  <RMSD>
9.679

$$$$
ligand
 OpenBabel11021811483D
libRbt.so/2013.1/901 2013/11/27
 19 21  0  0  0  0  0  0  0  0999 V2000
  -10.3488   -6.2309    7.3358 C   0  0  0  0  0  0  0  0  0  0  0  0
  -10.9987   -5.2250    8.1270 O   0  0  0  0  0  0  0  0  0  0  0  0
  -10.6892   -7.6265    7.8633 C   0  0  1  0  0  0  0  0  0  0  0  0
  -12.1032   -7.8801    7.7579 O   0  0  0  0  0  0  0  0  0  0  0  0
   -9.9804   -8.7021    7.0592 C   0  0  1  0  0  0  0  0  0  0  0  0
   -8.8657   -9.2386    7.7826 O   0  0  0  0  0  0  0  0  0  0  0  0
  -11.0155   -9.7769    6.8072 C   0  0  0  0  0  0  0  0  0  0  0  0
  -12.3614   -9.1418    7.1246 C   0  0  2  0  0  0  0  0  0  0  0  0
  -15.2985   -5.7433    4.4013 N   0  0  0  0  0  0  0  0  0  0  0  0
  -14.6899   -5.5952    5.6087 C   0  0  1  0  0  0  0  0  0  0  0  0
  -14.8166   -4.4203    6.2701 N   0  0  0  0  0  0  0  0  0  0  0  0
  -13.9618   -6.5997    6.1681 N   0  0  0  0  0  0  0  0  0  0  0  0
  -13.8050   -7.8001    5.5469 C   0  0  2  0  0  0  0  0  0  0  0  0
  -14.4021   -8.0084    4.3168 C   0  0  1  0  0  0  0  0  0  0  0  0
  -15.1922   -6.9034    3.7164 C   0  0  0  0  0  0  0  0  0  0  0  0
  -15.7465   -7.0414    2.6030 O   0  0  0  0  0  0  0  0  0  0  0  0
  -14.0953   -9.2549    3.9175 N   0  0  0  0  0  0  0  0  0  0  0  0
  -13.3281   -9.8133    4.8828 C   0  0  0  0  0  0  0  0  0  0  0  0
  -13.1524   -8.9244    5.8774 N   0  0  1  0  0  0  0  0  0  0  0  0
  1  2  1  0  0  0  0
  3  1  1  6  0  0  0
  3  4  1  0  0  0  0
  3  5  1  0  0  0  0
  5  6  1  1  0  0  0
  5  7  1  0  0  0  0
  7  8  1  0  0  0  0
  8  4  1  6  0  0  0
  8 19  1  0  0  0  0
  9 15  1  0  0  0  0
  9 10  1  0  0  0  0
 10 11  1  1  0  0  0
 10 12  1  0  0  0  0
 13 12  1  1  0  0  0
 13 14  1  0  0  0  0
 13 19  1  0  0  0  0
 14 15  1  6  0  0  0
 14 17  1  0  0  0  0
 15 16  2  0  0  0  0
 17 18  1  0  0  0  0
 19 18  1  6  0  0  0
M  END
>  <CHROM.1>
62.56013501,-14.98732398,-12.82525738,-7.55589279,6.00279383,0.00327890,-0.65923192
0.39498025

>  <Name>
ligand

>  <RI>
0

>  <Rbt.Current_Directory>
/home/itssahil/PROJECTS/Mol_Feturizer/New_Systems/rnas/3SKI

>  <Rbt.Executable>
rbdock ($Id: //depot/dev/client3/rdock/2013.1/src/exe/rbdock.cxx#4 $)

>  <Rbt.Library>
libRbt.so (2013.1, Build901 2013/11/27)

>  <Rbt.Parameter_File>
/export/apps/rDock/src/rDock_2013.1_src/data/scripts/dock_solv.prm

>  <Rbt.Receptor>
prm/blind_docking_100.prm

>  <SCORE>
-18.012

>  <SCORE.INTER>
-14.8807

>  <SCORE.INTER.CONST>
1

>  <SCORE.INTER.POLAR>
0

>  <SCORE.INTER.ROT>
2

>  <SCORE.INTER.SOLV>
5.44265

>  <SCORE.INTER.VDW>
-16.668

>  <SCORE.INTER.norm>
-0.783195

>  <SCORE.INTRA>
-3.13133

>  <SCORE.INTRA.DIHEDRAL>
-5.02766

>  <SCORE.INTRA.DIHEDRAL.0>
6.26853

>  <SCORE.INTRA.POLAR>
0

>  <SCORE.INTRA.POLAR.0>
0

>  <SCORE.INTRA.REPUL>
0

>  <SCORE.INTRA.REPUL.0>
0

>  <SCORE.INTRA.SOLV>
-0.165804

>  <SCORE.INTRA.SOLV.lig_0>
-38.4926

>  <SCORE.INTRA.VDW>
-0.534595

>  <SCORE.INTRA.VDW.0>
-0.59057

>  <SCORE.INTRA.norm>
-0.164807

>  <SCORE.RESTR>
0

>  <SCORE.RESTR.CAVITY>
0

>  <SCORE.RESTR.norm>
0

>  <SCORE.SYSTEM>
0

>  <SCORE.SYSTEM.CONST>
0

>  <SCORE.SYSTEM.DIHEDRAL>
0

>  <SCORE.SYSTEM.SOLV>
0

>  <SCORE.SYSTEM.norm>
0

>  <SCORE.heavy>
19

>  <SCORE.norm>
-0.948002

>  <RMSD>
9.776

$$$$
ligand
 OpenBabel11021811483D
libRbt.so/2013.1/901 2013/11/27
 19 21  0  0  0  0  0  0  0  0999 V2000
  -10.4622   -6.2847    7.2282 C   0  0  0  0  0  0  0  0  0  0  0  0
  -11.1027   -5.2452    7.9827 O   0  0  0  0  0  0  0  0  0  0  0  0
  -10.8424   -7.6588    7.7842 C   0  0  1  0  0  0  0  0  0  0  0  0
  -12.2604   -7.8821    7.6647 O   0  0  0  0  0  0  0  0  0  0  0  0
  -10.1480   -8.7698    7.0164 C   0  0  1  0  0  0  0  0  0  0  0  0
   -9.0563   -9.3140    7.7685 O   0  0  0  0  0  0  0  0  0  0  0  0
  -11.2045   -9.8261    6.7756 C   0  0  0  0  0  0  0  0  0  0  0  0
  -12.5394   -9.1526    7.0583 C   0  0  2  0  0  0  0  0  0  0  0  0
  -15.3616   -5.7558    4.2140 N   0  0  0  0  0  0  0  0  0  0  0  0
  -14.7668   -5.5926    5.4264 C   0  0  1  0  0  0  0  0  0  0  0  0
  -14.8766   -4.3998    6.0583 N   0  0  0  0  0  0  0  0  0  0  0  0
  -14.0692   -6.5993    6.0196 N   0  0  0  0  0  0  0  0  0  0  0  0
  -13.9305   -7.8173    5.4289 C   0  0  2  0  0  0  0  0  0  0  0  0
  -14.5148   -8.0414    4.1954 C   0  0  1  0  0  0  0  0  0  0  0  0
  -15.2716   -6.9339    3.5581 C   0  0  0  0  0  0  0  0  0  0  0  0
  -15.8132   -7.0860    2.4402 O   0  0  0  0  0  0  0  0  0  0  0  0
  -14.2303   -9.3034    3.8298 N   0  0  0  0  0  0  0  0  0  0  0  0
  -13.4893   -9.8555    4.8190 C   0  0  0  0  0  0  0  0  0  0  0  0
  -13.3077   -8.9474    5.7950 N   0  0  1  0  0  0  0  0  0  0  0  0
  1  2  1  0  0  0  0
  3  1  1  6  0  0  0
  3  4  1  0  0  0  0
  3  5  1  0  0  0  0
  5  6  1  1  0  0  0
  5  7  1  0  0  0  0
  7  8  1  0  0  0  0
  8  4  1  6  0  0  0
  8 19  1  0  0  0  0
  9 15  1  0  0  0  0
  9 10  1  0  0  0  0
 10 11  1  1  0  0  0
 10 12  1  0  0  0  0
 13 12  1  1  0  0  0
 13 14  1  0  0  0  0
 13 19  1  0  0  0  0
 14 15  1  6  0  0  0
 14 17  1  0  0  0  0
 15 16  2  0  0  0  0
 17 18  1  0  0  0  0
 19 18  1  6  0  0  0
M  END
>  <CHROM.1>
62.36729752,-15.06721415,-12.95160860,-7.58457284,5.89246598,-0.01736425
-0.68043076,0.35876420

>  <Name>
ligand

>  <RI>
0

>  <Rbt.Current_Directory>
/home/itssahil/PROJECTS/Mol_Feturizer/New_Systems/rnas/3SKI

>  <Rbt.Executable>
rbdock ($Id: //depot/dev/client3/rdock/2013.1/src/exe/rbdock.cxx#4 $)

>  <Rbt.Library>
libRbt.so (2013.1, Build901 2013/11/27)

>  <Rbt.Parameter_File>
/export/apps/rDock/src/rDock_2013.1_src/data/scripts/dock_solv.prm

>  <Rbt.Receptor>
prm/blind_docking_100.prm

>  <SCORE>
-18.016

>  <SCORE.INTER>
-14.8849

>  <SCORE.INTER.CONST>
1

>  <SCORE.INTER.POLAR>
0

>  <SCORE.INTER.ROT>
2

>  <SCORE.INTER.SOLV>
5.56635

>  <SCORE.INTER.VDW>
-16.712

>  <SCORE.INTER.norm>
-0.783414

>  <SCORE.INTRA>
-3.13118

>  <SCORE.INTRA.DIHEDRAL>
-5.0311

>  <SCORE.INTRA.DIHEDRAL.0>
6.26853

>  <SCORE.INTRA.POLAR>
0

>  <SCORE.INTRA.POLAR.0>
0

>  <SCORE.INTRA.REPUL>
0

>  <SCORE.INTRA.REPUL.0>
0

>  <SCORE.INTRA.SOLV>
-0.164578

>  <SCORE.INTRA.SOLV.lig_0>
-38.4926

>  <SCORE.INTRA.VDW>
-0.533343

>  <SCORE.INTRA.VDW.0>
-0.59057

>  <SCORE.INTRA.norm>
-0.164799

>  <SCORE.RESTR>
0

>  <SCORE.RESTR.CAVITY>
0

>  <SCORE.RESTR.norm>
0

>  <SCORE.SYSTEM>
0

>  <SCORE.SYSTEM.CONST>
0

>  <SCORE.SYSTEM.DIHEDRAL>
0

>  <SCORE.SYSTEM.SOLV>
0

>  <SCORE.SYSTEM.norm>
0

>  <SCORE.heavy>
19

>  <SCORE.norm>
-0.948213

>  <RMSD>
9.915

$$$$
ligand
 OpenBabel11021811483D
libRbt.so/2013.1/901 2013/11/27
 19 21  0  0  0  0  0  0  0  0999 V2000
  -13.5137   -3.1447    1.5978 C   0  0  0  0  0  0  0  0  0  0  0  0
  -14.3528   -4.0951    2.2707 O   0  0  0  0  0  0  0  0  0  0  0  0
  -14.3637   -2.1579    0.7943 C   0  0  1  0  0  0  0  0  0  0  0  0
  -13.5320   -1.1656    0.1629 O   0  0  0  0  0  0  0  0  0  0  0  0
  -15.1288   -2.8681   -0.3086 C   0  0  1  0  0  0  0  0  0  0  0  0
  -16.5118   -3.0182    0.0355 O   0  0  0  0  0  0  0  0  0  0  0  0
  -14.9799   -1.9988   -1.5383 C   0  0  0  0  0  0  0  0  0  0  0  0
  -13.8433   -1.0345   -1.2319 C   0  0  2  0  0  0  0  0  0  0  0  0
   -9.6509    0.9131   -3.7265 N   0  0  0  0  0  0  0  0  0  0  0  0
  -10.6277    1.5569   -3.0326 C   0  0  1  0  0  0  0  0  0  0  0  0
  -10.5798    2.9061   -2.9265 N   0  0  0  0  0  0  0  0  0  0  0  0
  -11.6521    0.8784   -2.4475 N   0  0  0  0  0  0  0  0  0  0  0  0
  -11.7486   -0.4767   -2.5257 C   0  0  2  0  0  0  0  0  0  0  0  0
  -10.7839   -1.1846   -3.2195 C   0  0  1  0  0  0  0  0  0  0  0  0
   -9.6703   -0.4323   -3.8516 C   0  0  0  0  0  0  0  0  0  0  0  0
   -8.7705   -1.0284   -4.4849 O   0  0  0  0  0  0  0  0  0  0  0  0
  -11.0993   -2.4893   -3.1446 N   0  0  0  0  0  0  0  0  0  0  0  0
  -12.2408   -2.5905   -2.4244 C   0  0  0  0  0  0  0  0  0  0  0  0
  -12.6366   -1.3610   -2.0478 N   0  0  1  0  0  0  0  0  0  0  0  0
  1  2  1  0  0  0  0
  3  1  1  6  0  0  0
  3  4  1  0  0  0  0
  3  5  1  0  0  0  0
  5  6  1  1  0  0  0
  5  7  1  0  0  0  0
  7  8  1  0  0  0  0
  8  4  1  1  0  0  0
  8 19  1  0  0  0  0
  9 15  1  0  0  0  0
  9 10  1  0  0  0  0
 10 11  1  6  0  0  0
 10 12  1  0  0  0  0
 13 12  1  6  0  0  0
 13 14  1  0  0  0  0
 13 19  1  0  0  0  0
 14 15  1  1  0  0  0
 14 17  1  0  0  0  0
 15 16  2  0  0  0  0
 17 18  1  0  0  0  0
 19 18  1  1  0  0  0
M  END
>  <CHROM.1>
177.49405814,-94.96569121,-12.46186140,-1.24677847,-1.61615868,-2.60114465
0.69080218,-0.08618256

>  <Name>
ligand

>  <RI>
0

>  <Rbt.Current_Directory>
/home/itssahil/PROJECTS/Mol_Feturizer/New_Systems/rnas/3SKI

>  <Rbt.Executable>
rbdock ($Id: //depot/dev/client3/rdock/2013.1/src/exe/rbdock.cxx#4 $)

>  <Rbt.Library>
libRbt.so (2013.1, Build901 2013/11/27)

>  <Rbt.Parameter_File>
/export/apps/rDock/src/rDock_2013.1_src/data/scripts/dock_solv.prm

>  <Rbt.Receptor>
prm/blind_docking_60.prm

>  <SCORE>
-14.8243

>  <SCORE.INTER>
-12.2087

>  <SCORE.INTER.CONST>
1

>  <SCORE.INTER.POLAR>
0

>  <SCORE.INTER.ROT>
2

>  <SCORE.INTER.SOLV>
13.4651

>  <SCORE.INTER.VDW>
-17.5608

>  <SCORE.INTER.norm>
-0.642564

>  <SCORE.INTRA>
-2.61557

>  <SCORE.INTRA.DIHEDRAL>
-5.06179

>  <SCORE.INTRA.DIHEDRAL.0>
6.26853

>  <SCORE.INTRA.POLAR>
0

>  <SCORE.INTRA.POLAR.0>
0

>  <SCORE.INTRA.REPUL>
0

>  <SCORE.INTRA.REPUL.0>
0

>  <SCORE.INTRA.SOLV>
-0.0169609

>  <SCORE.INTRA.SOLV.lig_0>
-38.4926

>  <SCORE.INTRA.VDW>
-0.0761946

>  <SCORE.INTRA.VDW.0>
-0.59057

>  <SCORE.INTRA.norm>
-0.137661

>  <SCORE.RESTR>
0

>  <SCORE.RESTR.CAVITY>
0

>  <SCORE.RESTR.norm>
0

>  <SCORE.SYSTEM>
0

>  <SCORE.SYSTEM.CONST>
0

>  <SCORE.SYSTEM.DIHEDRAL>
0

>  <SCORE.SYSTEM.SOLV>
0

>  <SCORE.SYSTEM.norm>
0

>  <SCORE.heavy>
19

>  <SCORE.norm>
-0.780226

>  <RMSD>
13.821

$$$$
ligand
 OpenBabel11021811483D
libRbt.so/2013.1/901 2013/11/27
 19 21  0  0  0  0  0  0  0  0999 V2000
  -16.6407   -1.7010    0.9636 C   0  0  0  0  0  0  0  0  0  0  0  0
  -17.0225   -1.9580    2.3232 O   0  0  0  0  0  0  0  0  0  0  0  0
  -15.7916   -2.8530    0.4214 C   0  0  1  0  0  0  0  0  0  0  0  0
  -15.4679   -2.6383   -0.9657 O   0  0  0  0  0  0  0  0  0  0  0  0
  -14.4783   -2.9654    1.1754 C   0  0  1  0  0  0  0  0  0  0  0  0
  -14.5013   -4.0660    2.0929 O   0  0  0  0  0  0  0  0  0  0  0  0
  -13.4147   -3.1773    0.1200 C   0  0  0  0  0  0  0  0  0  0  0  0
  -14.0627   -2.8047   -1.2054 C   0  0  2  0  0  0  0  0  0  0  0  0
  -10.0233   -0.6034   -3.7412 N   0  0  0  0  0  0  0  0  0  0  0  0
  -10.2285   -1.9020   -3.3922 C   0  0  1  0  0  0  0  0  0  0  0  0
   -9.2916   -2.8257   -3.7128 N   0  0  0  0  0  0  0  0  0  0  0  0
  -11.3491   -2.2926   -2.7261 N   0  0  0  0  0  0  0  0  0  0  0  0
  -12.3198   -1.4048   -2.3784 C   0  0  2  0  0  0  0  0  0  0  0  0
  -12.1648   -0.0701   -2.7065 C   0  0  1  0  0  0  0  0  0  0  0  0
  -10.9383    0.3427   -3.4352 C   0  0  0  0  0  0  0  0  0  0  0  0
  -10.7553    1.5376   -3.7592 O   0  0  0  0  0  0  0  0  0  0  0  0
  -13.2491    0.5899   -2.2637 N   0  0  0  0  0  0  0  0  0  0  0  0
  -14.0594   -0.3149   -1.6662 C   0  0  0  0  0  0  0  0  0  0  0  0
  -13.4905   -1.5322   -1.7362 N   0  0  1  0  0  0  0  0  0  0  0  0
  1  2  1  0  0  0  0
  3  1  1  1  0  0  0
  3  4  1  0  0  0  0
  3  5  1  0  0  0  0
  5  6  1  1  0  0  0
  5  7  1  0  0  0  0
  7  8  1  0  0  0  0
  8  4  1  1  0  0  0
  8 19  1  0  0  0  0
  9 15  1  0  0  0  0
  9 10  1  0  0  0  0
 10 11  1  1  0  0  0
 10 12  1  0  0  0  0
 13 12  1  1  0  0  0
 13 14  1  0  0  0  0
 13 19  1  0  0  0  0
 14 15  1  6  0  0  0
 14 17  1  0  0  0  0
 15 16  2  0  0  0  0
 17 18  1  0  0  0  0
 19 18  1  6  0  0  0
M  END
>  <CHROM.1>
176.74869108,-162.17694910,-13.18503549,-1.63954606,-1.32600558,2.56098605
-0.56840729,2.68269518

>  <Name>
ligand

>  <RI>
0

>  <Rbt.Current_Directory>
/home/itssahil/PROJECTS/Mol_Feturizer/New_Systems/rnas/3SKI

>  <Rbt.Executable>
rbdock ($Id: //depot/dev/client3/rdock/2013.1/src/exe/rbdock.cxx#4 $)

>  <Rbt.Library>
libRbt.so (2013.1, Build901 2013/11/27)

>  <Rbt.Parameter_File>
/export/apps/rDock/src/rDock_2013.1_src/data/scripts/dock_solv.prm

>  <Rbt.Receptor>
prm/blind_docking_20.prm

>  <SCORE>
-20.6935

>  <SCORE.INTER>
-17.7461

>  <SCORE.INTER.CONST>
1

>  <SCORE.INTER.POLAR>
0

>  <SCORE.INTER.ROT>
2

>  <SCORE.INTER.SOLV>
11.4497

>  <SCORE.INTER.VDW>
-20.5806

>  <SCORE.INTER.norm>
-0.934006

>  <SCORE.INTRA>
-2.94737

>  <SCORE.INTRA.DIHEDRAL>
-5.01384

>  <SCORE.INTRA.DIHEDRAL.0>
6.26853

>  <SCORE.INTRA.POLAR>
0

>  <SCORE.INTRA.POLAR.0>
0

>  <SCORE.INTRA.REPUL>
0

>  <SCORE.INTRA.REPUL.0>
0

>  <SCORE.INTRA.SOLV>
-0.0267604

>  <SCORE.INTRA.SOLV.lig_0>
-38.4926

>  <SCORE.INTRA.VDW>
-0.427074

>  <SCORE.INTRA.VDW.0>
-0.59057

>  <SCORE.INTRA.norm>
-0.155125

>  <SCORE.RESTR>
0

>  <SCORE.RESTR.CAVITY>
0

>  <SCORE.RESTR.norm>
0

>  <SCORE.SYSTEM>
0

>  <SCORE.SYSTEM.CONST>
0

>  <SCORE.SYSTEM.DIHEDRAL>
0

>  <SCORE.SYSTEM.SOLV>
0

>  <SCORE.SYSTEM.norm>
0

>  <SCORE.heavy>
19

>  <SCORE.norm>
-1.08913

>  <RMSD>
14.125

$$$$
ligand
 OpenBabel11021811483D
libRbt.so/2013.1/901 2013/11/27
 19 21  0  0  0  0  0  0  0  0999 V2000
  -16.6243   -1.6916    0.9965 C   0  0  0  0  0  0  0  0  0  0  0  0
  -17.0555   -2.0245    2.3244 O   0  0  0  0  0  0  0  0  0  0  0  0
  -15.8020   -2.8362    0.4002 C   0  0  1  0  0  0  0  0  0  0  0  0
  -15.4889   -2.5729   -0.9810 O   0  0  0  0  0  0  0  0  0  0  0  0
  -14.4831   -3.0013    1.1345 C   0  0  1  0  0  0  0  0  0  0  0  0
  -14.5164   -4.1365    2.0085 O   0  0  0  0  0  0  0  0  0  0  0  0
  -13.4346   -3.1904    0.0599 C   0  0  0  0  0  0  0  0  0  0  0  0
  -14.0896   -2.7545   -1.2426 C   0  0  2  0  0  0  0  0  0  0  0  0
  -10.0536   -0.5307   -3.7643 N   0  0  0  0  0  0  0  0  0  0  0  0
  -10.2806   -1.8387   -3.4677 C   0  0  1  0  0  0  0  0  0  0  0  0
   -9.3709   -2.7672   -3.8475 N   0  0  0  0  0  0  0  0  0  0  0  0
  -11.3960   -2.2342   -2.7959 N   0  0  0  0  0  0  0  0  0  0  0  0
  -12.3398   -1.3420   -2.3899 C   0  0  2  0  0  0  0  0  0  0  0  0
  -12.1618    0.0022   -2.6631 C   0  0  1  0  0  0  0  0  0  0  0  0
  -10.9412    0.4203   -3.3985 C   0  0  0  0  0  0  0  0  0  0  0  0
  -10.7382    1.6240   -3.6742 O   0  0  0  0  0  0  0  0  0  0  0  0
  -13.2222    0.6650   -2.1695 N   0  0  0  0  0  0  0  0  0  0  0  0
  -14.0403   -0.2476   -1.5951 C   0  0  0  0  0  0  0  0  0  0  0  0
  -13.4999   -1.4725   -1.7296 N   0  0  1  0  0  0  0  0  0  0  0  0
  1  2  1  0  0  0  0
  3  1  1  1  0  0  0
  3  4  1  0  0  0  0
  3  5  1  0  0  0  0
  5  6  1  1  0  0  0
  5  7  1  0  0  0  0
  7  8  1  0  0  0  0
  8  4  1  1  0  0  0
  8 19  1  0  0  0  0
  9 15  1  0  0  0  0
  9 10  1  0  0  0  0
 10 11  1  1  0  0  0
 10 12  1  0  0  0  0
 13 12  1  1  0  0  0
 13 14  1  0  0  0  0
 13 19  1  0  0  0  0
 14 15  1  6  0  0  0
 14 17  1  0  0  0  0
 15 16  2  0  0  0  0
 17 18  1  0  0  0  0
 19 18  1  6  0  0  0
M  END
>  <CHROM.1>
173.75048532,-161.53521530,-13.20040093,-1.60412972,-1.33710156,2.57669273
-0.58960610,2.73297484

>  <Name>
ligand

>  <RI>
0

>  <Rbt.Current_Directory>
/home/itssahil/PROJECTS/Mol_Feturizer/New_Systems/rnas/3SKI

>  <Rbt.Executable>
rbdock ($Id: //depot/dev/client3/rdock/2013.1/src/exe/rbdock.cxx#4 $)

>  <Rbt.Library>
libRbt.so (2013.1, Build901 2013/11/27)

>  <Rbt.Parameter_File>
/export/apps/rDock/src/rDock_2013.1_src/data/scripts/dock_solv.prm

>  <Rbt.Receptor>
prm/blind_docking_20.prm

>  <SCORE>
-20.7756

>  <SCORE.INTER>
-17.8474

>  <SCORE.INTER.CONST>
1

>  <SCORE.INTER.POLAR>
0

>  <SCORE.INTER.ROT>
2

>  <SCORE.INTER.SOLV>
11.0537

>  <SCORE.INTER.VDW>
-20.5161

>  <SCORE.INTER.norm>
-0.939335

>  <SCORE.INTRA>
-2.9282

>  <SCORE.INTRA.DIHEDRAL>
-4.9127

>  <SCORE.INTRA.DIHEDRAL.0>
6.26853

>  <SCORE.INTRA.POLAR>
0

>  <SCORE.INTRA.POLAR.0>
0

>  <SCORE.INTRA.REPUL>
0

>  <SCORE.INTRA.REPUL.0>
0

>  <SCORE.INTRA.SOLV>
-0.0417798

>  <SCORE.INTRA.SOLV.lig_0>
-38.4926

>  <SCORE.INTRA.VDW>
-0.450962

>  <SCORE.INTRA.VDW.0>
-0.59057

>  <SCORE.INTRA.norm>
-0.154116

>  <SCORE.RESTR>
0

>  <SCORE.RESTR.CAVITY>
0

>  <SCORE.RESTR.norm>
0

>  <SCORE.SYSTEM>
0

>  <SCORE.SYSTEM.CONST>
0

>  <SCORE.SYSTEM.DIHEDRAL>
0

>  <SCORE.SYSTEM.SOLV>
0

>  <SCORE.SYSTEM.norm>
0

>  <SCORE.heavy>
19

>  <SCORE.norm>
-1.09345

>  <RMSD>
14.141

$$$$
ligand
 OpenBabel11021811483D
libRbt.so/2013.1/901 2013/11/27
 19 21  0  0  0  0  0  0  0  0999 V2000
  -16.5540   -1.5821    1.0936 C   0  0  0  0  0  0  0  0  0  0  0  0
  -15.7397   -0.4002    1.1125 O   0  0  0  0  0  0  0  0  0  0  0  0
  -15.7932   -2.7434    0.4499 C   0  0  1  0  0  0  0  0  0  0  0  0
  -15.5274   -2.4706   -0.9393 O   0  0  0  0  0  0  0  0  0  0  0  0
  -14.4520   -2.9604    1.1281 C   0  0  1  0  0  0  0  0  0  0  0  0
  -14.4866   -4.1063    1.9879 O   0  0  0  0  0  0  0  0  0  0  0  0
  -13.4539   -3.1671    0.0095 C   0  0  0  0  0  0  0  0  0  0  0  0
  -14.1461   -2.6924   -1.2597 C   0  0  2  0  0  0  0  0  0  0  0  0
  -10.0548   -0.5438   -3.7571 N   0  0  0  0  0  0  0  0  0  0  0  0
  -10.3006   -1.8457   -3.4491 C   0  0  1  0  0  0  0  0  0  0  0  0
   -9.3976   -2.7889   -3.8079 N   0  0  0  0  0  0  0  0  0  0  0  0
  -11.4286   -2.2208   -2.7864 N   0  0  0  0  0  0  0  0  0  0  0  0
  -12.3664   -1.3132   -2.4013 C   0  0  2  0  0  0  0  0  0  0  0  0
  -12.1694    0.0258   -2.6870 C   0  0  1  0  0  0  0  0  0  0  0  0
  -10.9353    0.4215   -3.4123 C   0  0  0  0  0  0  0  0  0  0  0  0
  -10.7149    1.6196   -3.6986 O   0  0  0  0  0  0  0  0  0  0  0  0
  -13.2276    0.7064   -2.2133 N   0  0  0  0  0  0  0  0  0  0  0  0
  -14.0631   -0.1903   -1.6388 C   0  0  0  0  0  0  0  0  0  0  0  0
  -13.5357   -1.4228   -1.7535 N   0  0  1  0  0  0  0  0  0  0  0  0
  1  2  1  0  0  0  0
  3  1  1  1  0  0  0
  3  4  1  0  0  0  0
  3  5  1  0  0  0  0
  5  6  1  1  0  0  0
  5  7  1  0  0  0  0
  7  8  1  0  0  0  0
  8  4  1  1  0  0  0
  8 19  1  0  0  0  0
  9 15  1  0  0  0  0
  9 10  1  0  0  0  0
 10 11  1  1  0  0  0
 10 12  1  0  0  0  0
 13 12  1  1  0  0  0
 13 14  1  0  0  0  0
 13 19  1  0  0  0  0
 14 15  1  6  0  0  0
 14 17  1  0  0  0  0
 15 16  2  0  0  0  0
 17 18  1  0  0  0  0
 19 18  1  6  0  0  0
M  END
>  <CHROM.1>
-64.94946526,-165.02601032,-13.12570245,-1.47136621,-1.41176050,2.60797657
-0.61398732,2.76784575

>  <Name>
ligand

>  <RI>
0

>  <Rbt.Current_Directory>
/home/itssahil/PROJECTS/Mol_Feturizer/New_Systems/rnas/3SKI

>  <Rbt.Executable>
rbdock ($Id: //depot/dev/client3/rdock/2013.1/src/exe/rbdock.cxx#4 $)

>  <Rbt.Library>
libRbt.so (2013.1, Build901 2013/11/27)

>  <Rbt.Parameter_File>
/export/apps/rDock/src/rDock_2013.1_src/data/scripts/dock_solv.prm

>  <Rbt.Receptor>
prm/blind_docking_100.prm

>  <SCORE>
-20.603

>  <SCORE.INTER>
-17.6703

>  <SCORE.INTER.CONST>
1

>  <SCORE.INTER.POLAR>
0

>  <SCORE.INTER.ROT>
2

>  <SCORE.INTER.SOLV>
11.6774

>  <SCORE.INTER.VDW>
-20.606

>  <SCORE.INTER.norm>
-0.930014

>  <SCORE.INTRA>
-2.93275

>  <SCORE.INTRA.DIHEDRAL>
-4.96634

>  <SCORE.INTRA.DIHEDRAL.0>
6.26853

>  <SCORE.INTRA.POLAR>
0

>  <SCORE.INTRA.POLAR.0>
0

>  <SCORE.INTRA.REPUL>
0

>  <SCORE.INTRA.REPUL.0>
0

>  <SCORE.INTRA.SOLV>
0.283834

>  <SCORE.INTRA.SOLV.lig_0>
-38.4926

>  <SCORE.INTRA.VDW>
-0.591492

>  <SCORE.INTRA.VDW.0>
-0.59057

>  <SCORE.INTRA.norm>
-0.154355

>  <SCORE.RESTR>
0

>  <SCORE.RESTR.CAVITY>
0

>  <SCORE.RESTR.norm>
0

>  <SCORE.SYSTEM>
0

>  <SCORE.SYSTEM.CONST>
0

>  <SCORE.SYSTEM.DIHEDRAL>
0

>  <SCORE.SYSTEM.SOLV>
0

>  <SCORE.SYSTEM.norm>
0

>  <SCORE.heavy>
19

>  <SCORE.norm>
-1.08437

>  <RMSD>
14.182

$$$$
ligand
 OpenBabel11021811483D
libRbt.so/2013.1/901 2013/11/27
 19 21  0  0  0  0  0  0  0  0999 V2000
    2.5963    1.4600    3.1826 C   0  0  0  0  0  0  0  0  0  0  0  0
    2.2222    0.6402    2.0653 O   0  0  0  0  0  0  0  0  0  0  0  0
    3.8960    0.9482    3.8078 C   0  0  1  0  0  0  0  0  0  0  0  0
    3.7663   -0.4336    4.1934 O   0  0  0  0  0  0  0  0  0  0  0  0
    5.0467    1.0314    2.8205 C   0  0  1  0  0  0  0  0  0  0  0  0
    5.9114    2.1327    3.1255 O   0  0  0  0  0  0  0  0  0  0  0  0
    5.7929   -0.2791    2.9469 C   0  0  0  0  0  0  0  0  0  0  0  0
    4.8609   -1.2185    3.6981 C   0  0  2  0  0  0  0  0  0  0  0  0
    2.9471   -2.2948   -1.0739 N   0  0  0  0  0  0  0  0  0  0  0  0
    3.3441   -1.1072   -0.5428 C   0  0  1  0  0  0  0  0  0  0  0  0
    3.2615    0.0128   -1.2996 N   0  0  0  0  0  0  0  0  0  0  0  0
    3.8172   -1.0180    0.7301 N   0  0  0  0  0  0  0  0  0  0  0  0
    3.9185   -2.1118    1.5331 C   0  0  2  0  0  0  0  0  0  0  0  0
    3.5286   -3.3466    1.0467 C   0  0  1  0  0  0  0  0  0  0  0  0
    3.0160   -3.4304   -0.3446 C   0  0  0  0  0  0  0  0  0  0  0  0
    2.6565   -4.5257   -0.8317 O   0  0  0  0  0  0  0  0  0  0  0  0
    3.7301   -4.2528    2.0190 N   0  0  0  0  0  0  0  0  0  0  0  0
    4.2291   -3.5942    3.0911 C   0  0  0  0  0  0  0  0  0  0  0  0
    4.3429   -2.2870    2.7934 N   0  0  1  0  0  0  0  0  0  0  0  0
  1  2  1  0  0  0  0
  3  1  1  6  0  0  0
  3  4  1  0  0  0  0
  3  5  1  0  0  0  0
  5  6  1  1  0  0  0
  5  7  1  0  0  0  0
  7  8  1  0  0  0  0
  8  4  1  6  0  0  0
  8 19  1  0  0  0  0
  9 15  1  0  0  0  0
  9 10  1  0  0  0  0
 10 11  1  1  0  0  0
 10 12  1  0  0  0  0
 13 12  1  1  0  0  0
 13 14  1  0  0  0  0
 13 19  1  0  0  0  0
 14 15  1  6  0  0  0
 14 17  1  0  0  0  0
 15 16  2  0  0  0  0
 17 18  1  0  0  0  0
 19 18  1  6  0  0  0
M  END
>  <CHROM.1>
-56.32101498,75.95306792,3.83011422,-1.18516432,1.75766184,0.84125204,-1.20643284
-0.01350129

>  <Name>
ligand

>  <RI>
0

>  <Rbt.Current_Directory>
/home/itssahil/PROJECTS/Mol_Feturizer/New_Systems/rnas/3SKI

>  <Rbt.Executable>
rbdock ($Id: //depot/dev/client3/rdock/2013.1/src/exe/rbdock.cxx#4 $)

>  <Rbt.Library>
libRbt.so (2013.1, Build901 2013/11/27)

>  <Rbt.Parameter_File>
/export/apps/rDock/src/rDock_2013.1_src/data/scripts/dock_solv.prm

>  <Rbt.Receptor>
prm/blind_docking_60.prm

>  <SCORE>
-16.0098

>  <SCORE.INTER>
-12.9773

>  <SCORE.INTER.CONST>
1

>  <SCORE.INTER.POLAR>
0

>  <SCORE.INTER.ROT>
2

>  <SCORE.INTER.SOLV>
9.38231

>  <SCORE.INTER.VDW>
-16.7123

>  <SCORE.INTER.norm>
-0.683018

>  <SCORE.INTRA>
-3.03243

>  <SCORE.INTRA.DIHEDRAL>
-5.0019

>  <SCORE.INTRA.DIHEDRAL.0>
6.26853

>  <SCORE.INTRA.POLAR>
0

>  <SCORE.INTRA.POLAR.0>
0

>  <SCORE.INTRA.REPUL>
0

>  <SCORE.INTRA.REPUL.0>
0

>  <SCORE.INTRA.SOLV>
1.37449

>  <SCORE.INTRA.SOLV.lig_0>
-38.4926

>  <SCORE.INTRA.VDW>
-1.21873

>  <SCORE.INTRA.VDW.0>
-0.59057

>  <SCORE.INTRA.norm>
-0.159602

>  <SCORE.RESTR>
0

>  <SCORE.RESTR.CAVITY>
0

>  <SCORE.RESTR.norm>
0

>  <SCORE.SYSTEM>
0

>  <SCORE.SYSTEM.CONST>
0

>  <SCORE.SYSTEM.DIHEDRAL>
0

>  <SCORE.SYSTEM.SOLV>
0

>  <SCORE.SYSTEM.norm>
0

>  <SCORE.heavy>
19

>  <SCORE.norm>
-0.84262

>  <RMSD>
14.271

$$$$
ligand
 OpenBabel11021811483D
libRbt.so/2013.1/901 2013/11/27
 19 21  0  0  0  0  0  0  0  0999 V2000
    6.8193    0.2343    3.5841 C   0  0  0  0  0  0  0  0  0  0  0  0
    7.4882   -0.0052    4.8313 O   0  0  0  0  0  0  0  0  0  0  0  0
    5.5946    1.1265    3.7987 C   0  0  1  0  0  0  0  0  0  0  0  0
    4.9923    1.4768    2.5380 O   0  0  0  0  0  0  0  0  0  0  0  0
    4.5347    0.4112    4.6178 C   0  0  1  0  0  0  0  0  0  0  0  0
    4.5100    0.8945    5.9666 O   0  0  0  0  0  0  0  0  0  0  0  0
    3.2187    0.6978    3.9279 C   0  0  0  0  0  0  0  0  0  0  0  0
    3.5784    1.2310    2.5489 C   0  0  2  0  0  0  0  0  0  0  0  0
    3.9300   -3.7910    1.0492 N   0  0  0  0  0  0  0  0  0  0  0  0
    4.4047   -3.1816    2.1688 C   0  0  1  0  0  0  0  0  0  0  0  0
    5.0828   -3.9173    3.0815 N   0  0  0  0  0  0  0  0  0  0  0  0
    4.2183   -1.8518    2.3903 N   0  0  0  0  0  0  0  0  0  0  0  0
    3.5464   -1.0672    1.5046 C   0  0  2  0  0  0  0  0  0  0  0  0
    3.0416   -1.6324    0.3475 C   0  0  1  0  0  0  0  0  0  0  0  0
    3.2503   -3.0849    0.1188 C   0  0  0  0  0  0  0  0  0  0  0  0
    2.8076   -3.6432   -0.9099 O   0  0  0  0  0  0  0  0  0  0  0  0
    2.4241   -0.6615   -0.3478 N   0  0  0  0  0  0  0  0  0  0  0  0
    2.5478    0.4860    0.3594 C   0  0  0  0  0  0  0  0  0  0  0  0
    3.2340    0.2371    1.4897 N   0  0  1  0  0  0  0  0  0  0  0  0
  1  2  1  0  0  0  0
  3  1  1  6  0  0  0
  3  4  1  0  0  0  0
  3  5  1  0  0  0  0
  5  6  1  1  0  0  0
  5  7  1  0  0  0  0
  7  8  1  0  0  0  0
  8  4  1  1  0  0  0
  8 19  1  0  0  0  0
  9 15  1  0  0  0  0
  9 10  1  0  0  0  0
 10 11  1  6  0  0  0
 10 12  1  0  0  0  0
 13 12  1  6  0  0  0
 13 14  1  0  0  0  0
 13 19  1  0  0  0  0
 14 15  1  1  0  0  0
 14 17  1  0  0  0  0
 15 16  2  0  0  0  0
 17 18  1  0  0  0  0
 19 18  1  1  0  0  0
M  END
>  <CHROM.1>
174.48208754,70.11368416,4.22007416,-0.81553593,2.32893253,-0.93202653,0.85646535
-2.75996676

>  <Name>
ligand

>  <RI>
0

>  <Rbt.Current_Directory>
/home/itssahil/PROJECTS/Mol_Feturizer/New_Systems/rnas/3SKI

>  <Rbt.Executable>
rbdock ($Id: //depot/dev/client3/rdock/2013.1/src/exe/rbdock.cxx#4 $)

>  <Rbt.Library>
libRbt.so (2013.1, Build901 2013/11/27)

>  <Rbt.Parameter_File>
/export/apps/rDock/src/rDock_2013.1_src/data/scripts/dock_solv.prm

>  <Rbt.Receptor>
prm/blind_docking_100.prm

>  <SCORE>
-16.6333

>  <SCORE.INTER>
-13.2325

>  <SCORE.INTER.CONST>
1

>  <SCORE.INTER.POLAR>
0

>  <SCORE.INTER.ROT>
2

>  <SCORE.INTER.SOLV>
7.69735

>  <SCORE.INTER.VDW>
-16.3208

>  <SCORE.INTER.norm>
-0.696446

>  <SCORE.INTRA>
-3.40077

>  <SCORE.INTRA.DIHEDRAL>
-4.94909

>  <SCORE.INTRA.DIHEDRAL.0>
6.26853

>  <SCORE.INTRA.POLAR>
0

>  <SCORE.INTRA.POLAR.0>
0

>  <SCORE.INTRA.REPUL>
0

>  <SCORE.INTRA.REPUL.0>
0

>  <SCORE.INTRA.SOLV>
0.218915

>  <SCORE.INTRA.SOLV.lig_0>
-38.4926

>  <SCORE.INTRA.VDW>
-1.03568

>  <SCORE.INTRA.VDW.0>
-0.59057

>  <SCORE.INTRA.norm>
-0.178988

>  <SCORE.RESTR>
0

>  <SCORE.RESTR.CAVITY>
0

>  <SCORE.RESTR.norm>
0

>  <SCORE.SYSTEM>
0

>  <SCORE.SYSTEM.CONST>
0

>  <SCORE.SYSTEM.DIHEDRAL>
0

>  <SCORE.SYSTEM.SOLV>
0

>  <SCORE.SYSTEM.norm>
0

>  <SCORE.heavy>
19

>  <SCORE.norm>
-0.875434

>  <RMSD>
14.351

$$$$
ligand
 OpenBabel11021811483D
libRbt.so/2013.1/901 2013/11/27
 19 21  0  0  0  0  0  0  0  0999 V2000
  -10.0127   -1.7818   -3.2593 C   0  0  0  0  0  0  0  0  0  0  0  0
   -8.8241   -1.0422   -3.5757 O   0  0  0  0  0  0  0  0  0  0  0  0
  -11.2547   -1.0229   -3.7321 C   0  0  1  0  0  0  0  0  0  0  0  0
  -12.4518   -1.7623   -3.4235 O   0  0  0  0  0  0  0  0  0  0  0  0
  -11.3688    0.3233   -3.0390 C   0  0  1  0  0  0  0  0  0  0  0  0
  -10.9874    1.3906   -3.9160 O   0  0  0  0  0  0  0  0  0  0  0  0
  -12.8223    0.4589   -2.6402 C   0  0  0  0  0  0  0  0  0  0  0  0
  -13.4191   -0.9358   -2.7597 C   0  0  2  0  0  0  0  0  0  0  0  0
  -14.9864    0.1503    2.1349 N   0  0  0  0  0  0  0  0  0  0  0  0
  -14.8007    0.9829    1.0754 C   0  0  1  0  0  0  0  0  0  0  0  0
  -15.0345    2.3078    1.2305 N   0  0  0  0  0  0  0  0  0  0  0  0
  -14.3822    0.5169   -0.1327 N   0  0  0  0  0  0  0  0  0  0  0  0
  -14.1310   -0.8041   -0.3412 C   0  0  2  0  0  0  0  0  0  0  0  0
  -14.3018   -1.6978    0.7006 C   0  0  1  0  0  0  0  0  0  0  0  0
  -14.7609   -1.1765    2.0133 C   0  0  0  0  0  0  0  0  0  0  0  0
  -14.9356   -1.9462    2.9845 O   0  0  0  0  0  0  0  0  0  0  0  0
  -13.9986   -2.9248    0.2425 N   0  0  0  0  0  0  0  0  0  0  0  0
  -13.6400   -2.7962   -1.0563 C   0  0  0  0  0  0  0  0  0  0  0  0
  -13.7204   -1.5008   -1.4112 N   0  0  1  0  0  0  0  0  0  0  0  0
  1  2  1  0  0  0  0
  3  1  1  1  0  0  0
  3  4  1  0  0  0  0
  3  5  1  0  0  0  0
  5  6  1  6  0  0  0
  5  7  1  0  0  0  0
  7  8  1  0  0  0  0
  8  4  1  1  0  0  0
  8 19  1  0  0  0  0
  9 15  1  0  0  0  0
  9 10  1  0  0  0  0
 10 11  1  1  0  0  0
 10 12  1  0  0  0  0
 13 12  1  1  0  0  0
 13 14  1  0  0  0  0
 13 19  1  0  0  0  0
 14 15  1  6  0  0  0
 14 17  1  0  0  0  0
 15 16  2  0  0  0  0
 17 18  1  0  0  0  0
 19 18  1  6  0  0  0
M  END
>  <CHROM.1>
179.72936381,152.60575498,-13.07553407,-0.68869781,-1.05698725,-0.11477558
-0.89745777,2.97978507

>  <Name>
ligand

>  <RI>
0

>  <Rbt.Current_Directory>
/home/itssahil/PROJECTS/Mol_Feturizer/New_Systems/rnas/3SKI

>  <Rbt.Executable>
rbdock ($Id: //depot/dev/client3/rdock/2013.1/src/exe/rbdock.cxx#4 $)

>  <Rbt.Library>
libRbt.so (2013.1, Build901 2013/11/27)

>  <Rbt.Parameter_File>
/export/apps/rDock/src/rDock_2013.1_src/data/scripts/dock_solv.prm

>  <Rbt.Receptor>
prm/blind_docking_100.prm

>  <SCORE>
-18.1018

>  <SCORE.INTER>
-15.7339

>  <SCORE.INTER.CONST>
1

>  <SCORE.INTER.POLAR>
0

>  <SCORE.INTER.ROT>
2

>  <SCORE.INTER.SOLV>
7.10895

>  <SCORE.INTER.VDW>
-17.7923

>  <SCORE.INTER.norm>
-0.828102

>  <SCORE.INTRA>
-2.36784

>  <SCORE.INTRA.DIHEDRAL>
-5.08396

>  <SCORE.INTRA.DIHEDRAL.0>
6.26853

>  <SCORE.INTRA.POLAR>
0

>  <SCORE.INTRA.POLAR.0>
0

>  <SCORE.INTRA.REPUL>
0

>  <SCORE.INTRA.REPUL.0>
0

>  <SCORE.INTRA.SOLV>
-0.0236212

>  <SCORE.INTRA.SOLV.lig_0>
-38.4926

>  <SCORE.INTRA.VDW>
0.185954

>  <SCORE.INTRA.VDW.0>
-0.59057

>  <SCORE.INTRA.norm>
-0.124623

>  <SCORE.RESTR>
0

>  <SCORE.RESTR.CAVITY>
0

>  <SCORE.RESTR.norm>
0

>  <SCORE.SYSTEM>
0

>  <SCORE.SYSTEM.CONST>
0

>  <SCORE.SYSTEM.DIHEDRAL>
0

>  <SCORE.SYSTEM.SOLV>
0

>  <SCORE.SYSTEM.norm>
0

>  <SCORE.heavy>
19

>  <SCORE.norm>
-0.952725

>  <RMSD>
14.407

$$$$
ligand
 OpenBabel11021811483D
libRbt.so/2013.1/901 2013/11/27
 19 21  0  0  0  0  0  0  0  0999 V2000
    4.3370   -0.8179    3.2697 C   0  0  0  0  0  0  0  0  0  0  0  0
    3.9583   -0.0390    4.4143 O   0  0  0  0  0  0  0  0  0  0  0  0
    4.2285    0.0209    1.9943 C   0  0  1  0  0  0  0  0  0  0  0  0
    4.7254   -0.7125    0.8584 O   0  0  0  0  0  0  0  0  0  0  0  0
    2.7831    0.3798    1.6981 C   0  0  1  0  0  0  0  0  0  0  0  0
    2.5109    1.7467    2.0314 O   0  0  0  0  0  0  0  0  0  0  0  0
    2.5977    0.1492    0.2140 C   0  0  0  0  0  0  0  0  0  0  0  0
    3.7912   -0.6834   -0.2307 C   0  0  2  0  0  0  0  0  0  0  0  0
    3.4825   -5.6425    1.4737 N   0  0  0  0  0  0  0  0  0  0  0  0
    3.9704   -4.5365    2.0974 C   0  0  1  0  0  0  0  0  0  0  0  0
    4.4708   -4.6542    3.3502 N   0  0  0  0  0  0  0  0  0  0  0  0
    3.9713   -3.3182    1.4910 N   0  0  0  0  0  0  0  0  0  0  0  0
    3.4826   -3.1458    0.2329 C   0  0  2  0  0  0  0  0  0  0  0  0
    2.9740   -4.2355   -0.4506 C   0  0  1  0  0  0  0  0  0  0  0  0
    2.9771   -5.5590    0.2232 C   0  0  0  0  0  0  0  0  0  0  0  0
    2.5226   -6.5734   -0.3516 O   0  0  0  0  0  0  0  0  0  0  0  0
    2.5545   -3.8061   -1.6535 N   0  0  0  0  0  0  0  0  0  0  0  0
    2.8031   -2.4772   -1.7197 C   0  0  0  0  0  0  0  0  0  0  0  0
    3.3705   -2.0755   -0.5677 N   0  0  1  0  0  0  0  0  0  0  0  0
  1  2  1  0  0  0  0
  3  1  1  1  0  0  0
  3  4  1  0  0  0  0
  3  5  1  0  0  0  0
  5  6  1  6  0  0  0
  5  7  1  0  0  0  0
  7  8  1  0  0  0  0
  8  4  1  1  0  0  0
  8 19  1  0  0  0  0
  9 15  1  0  0  0  0
  9 10  1  0  0  0  0
 10 11  1  6  0  0  0
 10 12  1  0  0  0  0
 13 12  1  6  0  0  0
 13 14  1  0  0  0  0
 13 19  1  0  0  0  0
 14 15  1  1  0  0  0
 14 17  1  0  0  0  0
 15 16  2  0  0  0  0
 17 18  1  0  0  0  0
 19 18  1  1  0  0  0
M  END
>  <CHROM.1>
174.61351668,19.33747951,3.45355187,-2.35476847,1.02264752,-1.33812113,1.27339718
-3.01580784

>  <Name>
ligand

>  <RI>
0

>  <Rbt.Current_Directory>
/home/itssahil/PROJECTS/Mol_Feturizer/New_Systems/rnas/3SKI

>  <Rbt.Executable>
rbdock ($Id: //depot/dev/client3/rdock/2013.1/src/exe/rbdock.cxx#4 $)

>  <Rbt.Library>
libRbt.so (2013.1, Build901 2013/11/27)

>  <Rbt.Parameter_File>
/export/apps/rDock/src/rDock_2013.1_src/data/scripts/dock_solv.prm

>  <Rbt.Receptor>
prm/blind_docking_40.prm

>  <SCORE>
-16.3392

>  <SCORE.INTER>
-13.3845

>  <SCORE.INTER.CONST>
1

>  <SCORE.INTER.POLAR>
0

>  <SCORE.INTER.ROT>
2

>  <SCORE.INTER.SOLV>
8.07676

>  <SCORE.INTER.VDW>
-16.5486

>  <SCORE.INTER.norm>
-0.704447

>  <SCORE.INTRA>
-2.95469

>  <SCORE.INTRA.DIHEDRAL>
-4.97899

>  <SCORE.INTRA.DIHEDRAL.0>
6.26853

>  <SCORE.INTRA.POLAR>
0

>  <SCORE.INTRA.POLAR.0>
0

>  <SCORE.INTRA.REPUL>
0

>  <SCORE.INTRA.REPUL.0>
0

>  <SCORE.INTRA.SOLV>
1.06232

>  <SCORE.INTRA.SOLV.lig_0>
-38.4926

>  <SCORE.INTRA.VDW>
-0.996363

>  <SCORE.INTRA.VDW.0>
-0.59057

>  <SCORE.INTRA.norm>
-0.15551

>  <SCORE.RESTR>
0

>  <SCORE.RESTR.CAVITY>
0

>  <SCORE.RESTR.norm>
0

>  <SCORE.SYSTEM>
0

>  <SCORE.SYSTEM.CONST>
0

>  <SCORE.SYSTEM.DIHEDRAL>
0

>  <SCORE.SYSTEM.SOLV>
0

>  <SCORE.SYSTEM.norm>
0

>  <SCORE.heavy>
19

>  <SCORE.norm>
-0.859957

>  <RMSD>
14.434

$$$$
ligand
 OpenBabel11021811483D
libRbt.so/2013.1/901 2013/11/27
 19 21  0  0  0  0  0  0  0  0999 V2000
    4.3652   -0.8343    3.2954 C   0  0  0  0  0  0  0  0  0  0  0  0
    3.9918   -0.0767    4.4559 O   0  0  0  0  0  0  0  0  0  0  0  0
    4.2574    0.0298    2.0371 C   0  0  1  0  0  0  0  0  0  0  0  0
    4.7491   -0.6830    0.8859 O   0  0  0  0  0  0  0  0  0  0  0  0
    2.8127    0.3999    1.7509 C   0  0  1  0  0  0  0  0  0  0  0  0
    2.5464    1.7610    2.1116 O   0  0  0  0  0  0  0  0  0  0  0  0
    2.6235    0.1992    0.2630 C   0  0  0  0  0  0  0  0  0  0  0  0
    3.8129   -0.6290   -0.2005 C   0  0  2  0  0  0  0  0  0  0  0  0
    3.4362   -5.6088    1.4281 N   0  0  0  0  0  0  0  0  0  0  0  0
    3.9231   -4.5159    2.0751 C   0  0  1  0  0  0  0  0  0  0  0  0
    4.4024   -4.6554    3.3340 N   0  0  0  0  0  0  0  0  0  0  0  0
    3.9437   -3.2892    1.4862 N   0  0  0  0  0  0  0  0  0  0  0  0
    3.4767   -3.0950    0.2230 C   0  0  2  0  0  0  0  0  0  0  0  0
    2.9702   -4.1706   -0.4838 C   0  0  1  0  0  0  0  0  0  0  0  0
    2.9517   -5.5034    0.1710 C   0  0  0  0  0  0  0  0  0  0  0  0
    2.4981   -6.5058   -0.4253 O   0  0  0  0  0  0  0  0  0  0  0  0
    2.5736   -3.7208   -1.6870 N   0  0  0  0  0  0  0  0  0  0  0  0
    2.8341   -2.3932   -1.7304 C   0  0  0  0  0  0  0  0  0  0  0  0
    3.3862   -2.0126   -0.5639 N   0  0  1  0  0  0  0  0  0  0  0  0
  1  2  1  0  0  0  0
  3  1  1  1  0  0  0
  3  4  1  0  0  0  0
  3  5  1  0  0  0  0
  5  6  1  6  0  0  0
  5  7  1  0  0  0  0
  7  8  1  0  0  0  0
  8  4  1  1  0  0  0
  8 19  1  0  0  0  0
  9 15  1  0  0  0  0
  9 10  1  0  0  0  0
 10 11  1  6  0  0  0
 10 12  1  0  0  0  0
 13 12  1  6  0  0  0
 13 14  1  0  0  0  0
 13 19  1  0  0  0  0
 14 15  1  1  0  0  0
 14 17  1  0  0  0  0
 15 16  2  0  0  0  0
 17 18  1  0  0  0  0
 19 18  1  1  0  0  0
M  END
>  <CHROM.1>
174.61370283,20.44780503,3.45650877,-2.32035802,1.02649820,-1.29262129,1.28418705
-3.04042660

>  <Name>
ligand

>  <RI>
0

>  <Rbt.Current_Directory>
/home/itssahil/PROJECTS/Mol_Feturizer/New_Systems/rnas/3SKI

>  <Rbt.Executable>
rbdock ($Id: //depot/dev/client3/rdock/2013.1/src/exe/rbdock.cxx#4 $)

>  <Rbt.Library>
libRbt.so (2013.1, Build901 2013/11/27)

>  <Rbt.Parameter_File>
/export/apps/rDock/src/rDock_2013.1_src/data/scripts/dock_solv.prm

>  <Rbt.Receptor>
prm/blind_docking_20.prm

>  <SCORE>
-16.3511

>  <SCORE.INTER>
-13.3944

>  <SCORE.INTER.CONST>
1

>  <SCORE.INTER.POLAR>
0

>  <SCORE.INTER.ROT>
2

>  <SCORE.INTER.SOLV>
8.25684

>  <SCORE.INTER.VDW>
-16.6152

>  <SCORE.INTER.norm>
-0.704969

>  <SCORE.INTRA>
-2.95667

>  <SCORE.INTRA.DIHEDRAL>
-4.97956

>  <SCORE.INTRA.DIHEDRAL.0>
6.26853

>  <SCORE.INTRA.POLAR>
0

>  <SCORE.INTRA.POLAR.0>
0

>  <SCORE.INTRA.REPUL>
0

>  <SCORE.INTRA.REPUL.0>
0

>  <SCORE.INTRA.SOLV>
1.08405

>  <SCORE.INTRA.SOLV.lig_0>
-38.4926

>  <SCORE.INTRA.VDW>
-1.00892

>  <SCORE.INTRA.VDW.0>
-0.59057

>  <SCORE.INTRA.norm>
-0.155614

>  <SCORE.RESTR>
0

>  <SCORE.RESTR.CAVITY>
0

>  <SCORE.RESTR.norm>
0

>  <SCORE.SYSTEM>
0

>  <SCORE.SYSTEM.CONST>
0

>  <SCORE.SYSTEM.DIHEDRAL>
0

>  <SCORE.SYSTEM.SOLV>
0

>  <SCORE.SYSTEM.norm>
0

>  <SCORE.heavy>
19

>  <SCORE.norm>
-0.860584

>  <RMSD>
14.435

$$$$
ligand
 OpenBabel11021811483D
libRbt.so/2013.1/901 2013/11/27
 19 21  0  0  0  0  0  0  0  0999 V2000
    4.4992   -2.1125   -0.8080 C   0  0  0  0  0  0  0  0  0  0  0  0
    5.3262   -2.2137   -1.9768 O   0  0  0  0  0  0  0  0  0  0  0  0
    3.4191   -1.0474   -1.0098 C   0  0  1  0  0  0  0  0  0  0  0  0
    2.5582   -0.9702    0.1426 O   0  0  0  0  0  0  0  0  0  0  0  0
    4.0361    0.3269   -1.2004 C   0  0  1  0  0  0  0  0  0  0  0  0
    3.9924    0.7272   -2.5757 O   0  0  0  0  0  0  0  0  0  0  0  0
    3.2141    1.2690   -0.3480 C   0  0  0  0  0  0  0  0  0  0  0  0
    2.4078    0.3845    0.5918 C   0  0  2  0  0  0  0  0  0  0  0  0
    5.0612   -1.9789    4.4605 N   0  0  0  0  0  0  0  0  0  0  0  0
    4.7659   -2.4237    3.2095 C   0  0  1  0  0  0  0  0  0  0  0  0
    5.1857   -3.6547    2.8323 N   0  0  0  0  0  0  0  0  0  0  0  0
    4.0561   -1.6636    2.3317 N   0  0  0  0  0  0  0  0  0  0  0  0
    3.6090   -0.4214    2.6609 C   0  0  2  0  0  0  0  0  0  0  0  0
    3.8789    0.0830    3.9203 C   0  0  1  0  0  0  0  0  0  0  0  0
    4.6561   -0.7558    4.8679 C   0  0  0  0  0  0  0  0  0  0  0  0
    4.9304   -0.3413    6.0164 O   0  0  0  0  0  0  0  0  0  0  0  0
    3.3417    1.3132    3.9934 N   0  0  0  0  0  0  0  0  0  0  0  0
    2.7439    1.5665    2.8057 C   0  0  0  0  0  0  0  0  0  0  0  0
    2.9071    0.5064    1.9934 N   0  0  1  0  0  0  0  0  0  0  0  0
  1  2  1  0  0  0  0
  3  1  1  1  0  0  0
  3  4  1  0  0  0  0
  3  5  1  0  0  0  0
  5  6  1  6  0  0  0
  5  7  1  0  0  0  0
  7  8  1  0  0  0  0
  8  4  1  6  0  0  0
  8 19  1  0  0  0  0
  9 15  1  0  0  0  0
  9 10  1  0  0  0  0
 10 11  1  1  0  0  0
 10 12  1  0  0  0  0
 13 12  1  1  0  0  0
 13 14  1  0  0  0  0
 13 19  1  0  0  0  0
 14 15  1  6  0  0  0
 14 17  1  0  0  0  0
 15 16  2  0  0  0  0
 17 18  1  0  0  0  0
 19 18  1  6  0  0  0
M  END
>  <CHROM.1>
178.14306371,11.22168900,3.94120263,-0.61690978,1.59588902,-1.76337034,-1.08806898
1.45138287

>  <Name>
ligand

>  <RI>
0

>  <Rbt.Current_Directory>
/home/itssahil/PROJECTS/Mol_Feturizer/New_Systems/rnas/3SKI

>  <Rbt.Executable>
rbdock ($Id: //depot/dev/client3/rdock/2013.1/src/exe/rbdock.cxx#4 $)

>  <Rbt.Library>
libRbt.so (2013.1, Build901 2013/11/27)

>  <Rbt.Parameter_File>
/export/apps/rDock/src/rDock_2013.1_src/data/scripts/dock_solv.prm

>  <Rbt.Receptor>
prm/blind_docking_100.prm

>  <SCORE>
-14.7317

>  <SCORE.INTER>
-11.7734

>  <SCORE.INTER.CONST>
1

>  <SCORE.INTER.POLAR>
0

>  <SCORE.INTER.ROT>
2

>  <SCORE.INTER.SOLV>
8.87012

>  <SCORE.INTER.VDW>
-15.739

>  <SCORE.INTER.norm>
-0.619652

>  <SCORE.INTRA>
-2.95829

>  <SCORE.INTRA.DIHEDRAL>
-5.06392

>  <SCORE.INTRA.DIHEDRAL.0>
6.26853

>  <SCORE.INTRA.POLAR>
0

>  <SCORE.INTRA.POLAR.0>
0

>  <SCORE.INTRA.REPUL>
0

>  <SCORE.INTRA.REPUL.0>
0

>  <SCORE.INTRA.SOLV>
0.87086

>  <SCORE.INTRA.SOLV.lig_0>
-38.4926

>  <SCORE.INTRA.VDW>
-0.861763

>  <SCORE.INTRA.VDW.0>
-0.59057

>  <SCORE.INTRA.norm>
-0.1557

>  <SCORE.RESTR>
0

>  <SCORE.RESTR.CAVITY>
0

>  <SCORE.RESTR.norm>
0

>  <SCORE.SYSTEM>
0

>  <SCORE.SYSTEM.CONST>
0

>  <SCORE.SYSTEM.DIHEDRAL>
0

>  <SCORE.SYSTEM.SOLV>
0

>  <SCORE.SYSTEM.norm>
0

>  <SCORE.heavy>
19

>  <SCORE.norm>
-0.775352

>  <RMSD>
14.457

$$$$
ligand
 OpenBabel11021811483D
libRbt.so/2013.1/901 2013/11/27
 19 21  0  0  0  0  0  0  0  0999 V2000
    7.3580   -0.4706    5.1629 C   0  0  0  0  0  0  0  0  0  0  0  0
    8.5994   -0.3074    4.4610 O   0  0  0  0  0  0  0  0  0  0  0  0
    6.3062    0.4984    4.6182 C   0  0  1  0  0  0  0  0  0  0  0  0
    6.0289    0.2228    3.2319 O   0  0  0  0  0  0  0  0  0  0  0  0
    4.9954    0.3621    5.3727 C   0  0  1  0  0  0  0  0  0  0  0  0
    4.8097    1.4495    6.2873 O   0  0  0  0  0  0  0  0  0  0  0  0
    3.9109    0.3661    4.3173 C   0  0  0  0  0  0  0  0  0  0  0  0
    4.6176    0.1195    2.9925 C   0  0  2  0  0  0  0  0  0  0  0  0
    2.7350   -2.6063   -1.0841 N   0  0  0  0  0  0  0  0  0  0  0  0
    2.8927   -1.2638   -0.9330 C   0  0  1  0  0  0  0  0  0  0  0  0
    2.5300   -0.4403   -1.9451 N   0  0  0  0  0  0  0  0  0  0  0  0
    3.4013   -0.7299    0.2109 N   0  0  0  0  0  0  0  0  0  0  0  0
    3.7789   -1.5121    1.2582 C   0  0  2  0  0  0  0  0  0  0  0  0
    3.6407   -2.8850    1.1616 C   0  0  1  0  0  0  0  0  0  0  0  0
    3.0862   -3.4549   -0.0927 C   0  0  0  0  0  0  0  0  0  0  0  0
    2.9474   -4.6909   -0.2302 O   0  0  0  0  0  0  0  0  0  0  0  0
    4.0843   -3.4239    2.3106 N   0  0  0  0  0  0  0  0  0  0  0  0
    4.4843   -2.4064    3.1086 C   0  0  0  0  0  0  0  0  0  0  0  0
    4.2966   -1.2397    2.4652 N   0  0  1  0  0  0  0  0  0  0  0  0
  1  2  1  0  0  0  0
  3  1  1  1  0  0  0
  3  4  1  0  0  0  0
  3  5  1  0  0  0  0
  5  6  1  1  0  0  0
  5  7  1  0  0  0  0
  7  8  1  0  0  0  0
  8  4  1  1  0  0  0
  8 19  1  0  0  0  0
  9 15  1  0  0  0  0
  9 10  1  0  0  0  0
 10 11  1  1  0  0  0
 10 12  1  0  0  0  0
 13 12  1  1  0  0  0
 13 14  1  0  0  0  0
 13 19  1  0  0  0  0
 14 15  1  6  0  0  0
 14 17  1  0  0  0  0
 15 16  2  0  0  0  0
 17 18  1  0  0  0  0
 19 18  1  6  0  0  0
M  END
>  <CHROM.1>
62.44560532,-117.07414472,4.50633936,-1.14294926,2.31052121,-0.74316535,0.89220868
-2.75907462

>  <Name>
ligand

>  <RI>
0

>  <Rbt.Current_Directory>
/home/itssahil/PROJECTS/Mol_Feturizer/New_Systems/rnas/3SKI

>  <Rbt.Executable>
rbdock ($Id: //depot/dev/client3/rdock/2013.1/src/exe/rbdock.cxx#4 $)

>  <Rbt.Library>
libRbt.so (2013.1, Build901 2013/11/27)

>  <Rbt.Parameter_File>
/export/apps/rDock/src/rDock_2013.1_src/data/scripts/dock_solv.prm

>  <Rbt.Receptor>
prm/blind_docking_80.prm

>  <SCORE>
-15.2317

>  <SCORE.INTER>
-12.1186

>  <SCORE.INTER.CONST>
1

>  <SCORE.INTER.POLAR>
0

>  <SCORE.INTER.ROT>
2

>  <SCORE.INTER.SOLV>
8.47908

>  <SCORE.INTER.VDW>
-15.8388

>  <SCORE.INTER.norm>
-0.637823

>  <SCORE.INTRA>
-3.11306

>  <SCORE.INTRA.DIHEDRAL>
-5.04571

>  <SCORE.INTRA.DIHEDRAL.0>
6.26853

>  <SCORE.INTRA.POLAR>
0

>  <SCORE.INTRA.POLAR.0>
0

>  <SCORE.INTRA.REPUL>
0

>  <SCORE.INTRA.REPUL.0>
0

>  <SCORE.INTRA.SOLV>
-0.241423

>  <SCORE.INTRA.SOLV.lig_0>
-38.4926

>  <SCORE.INTRA.VDW>
-0.469488

>  <SCORE.INTRA.VDW.0>
-0.59057

>  <SCORE.INTRA.norm>
-0.163845

>  <SCORE.RESTR>
0

>  <SCORE.RESTR.CAVITY>
0

>  <SCORE.RESTR.norm>
0

>  <SCORE.SYSTEM>
0

>  <SCORE.SYSTEM.CONST>
0

>  <SCORE.SYSTEM.DIHEDRAL>
0

>  <SCORE.SYSTEM.SOLV>
0

>  <SCORE.SYSTEM.norm>
0

>  <SCORE.heavy>
19

>  <SCORE.norm>
-0.801668

>  <RMSD>
14.475

$$$$
ligand
 OpenBabel11021811483D
libRbt.so/2013.1/901 2013/11/27
 19 21  0  0  0  0  0  0  0  0999 V2000
    4.9780   -2.0514    3.7038 C   0  0  0  0  0  0  0  0  0  0  0  0
    6.3114   -2.5622    3.8498 O   0  0  0  0  0  0  0  0  0  0  0  0
    4.9483   -0.9273    2.6658 C   0  0  1  0  0  0  0  0  0  0  0  0
    5.3115   -1.4261    1.3642 O   0  0  0  0  0  0  0  0  0  0  0  0
    3.5564   -0.3324    2.5448 C   0  0  1  0  0  0  0  0  0  0  0  0
    3.4787    0.9393    3.2008 O   0  0  0  0  0  0  0  0  0  0  0  0
    3.3017   -0.1797    1.0610 C   0  0  0  0  0  0  0  0  0  0  0  0
    4.3605   -1.0242    0.3673 C   0  0  2  0  0  0  0  0  0  0  0  0
    3.0018   -6.0475    1.0838 N   0  0  0  0  0  0  0  0  0  0  0  0
    3.5966   -5.1758    1.9420 C   0  0  1  0  0  0  0  0  0  0  0  0
    3.9184   -5.5954    3.1887 N   0  0  0  0  0  0  0  0  0  0  0  0
    3.8792   -3.8958    1.5759 N   0  0  0  0  0  0  0  0  0  0  0  0
    3.5789   -3.4245    0.3353 C   0  0  2  0  0  0  0  0  0  0  0  0
    2.9737   -4.2666   -0.5801 C   0  0  1  0  0  0  0  0  0  0  0  0
    2.6691   -5.6603   -0.1674 C   0  0  0  0  0  0  0  0  0  0  0  0
    2.1170   -6.4581   -0.9578 O   0  0  0  0  0  0  0  0  0  0  0  0
    2.7791   -3.5693   -1.7129 N   0  0  0  0  0  0  0  0  0  0  0  0
    3.2595   -2.3204   -1.5086 C   0  0  0  0  0  0  0  0  0  0  0  0
    3.7483   -2.2336   -0.2580 N   0  0  1  0  0  0  0  0  0  0  0  0
  1  2  1  0  0  0  0
  3  1  1  1  0  0  0
  3  4  1  0  0  0  0
  3  5  1  0  0  0  0
  5  6  1  1  0  0  0
  5  7  1  0  0  0  0
  7  8  1  0  0  0  0
  8  4  1  1  0  0  0
  8 19  1  0  0  0  0
  9 15  1  0  0  0  0
  9 10  1  0  0  0  0
 10 11  1  6  0  0  0
 10 12  1  0  0  0  0
 13 12  1  6  0  0  0
 13 14  1  0  0  0  0
 13 19  1  0  0  0  0
 14 15  1  1  0  0  0
 14 17  1  0  0  0  0
 15 16  2  0  0  0  0
 17 18  1  0  0  0  0
 19 18  1  1  0  0  0
M  END
>  <CHROM.1>
63.67619549,28.79112343,3.80908101,-2.91911826,1.19958548,-0.77063008,1.15150887
2.92670481

>  <Name>
ligand

>  <RI>
0

>  <Rbt.Current_Directory>
/home/itssahil/PROJECTS/Mol_Feturizer/New_Systems/rnas/3SKI

>  <Rbt.Executable>
rbdock ($Id: //depot/dev/client3/rdock/2013.1/src/exe/rbdock.cxx#4 $)

>  <Rbt.Library>
libRbt.so (2013.1, Build901 2013/11/27)

>  <Rbt.Parameter_File>
/export/apps/rDock/src/rDock_2013.1_src/data/scripts/dock_solv.prm

>  <Rbt.Receptor>
prm/blind_docking_80.prm

>  <SCORE>
-16.4465

>  <SCORE.INTER>
-13.3831

>  <SCORE.INTER.CONST>
1

>  <SCORE.INTER.POLAR>
0

>  <SCORE.INTER.ROT>
2

>  <SCORE.INTER.SOLV>
5.60229

>  <SCORE.INTER.VDW>
-15.7228

>  <SCORE.INTER.norm>
-0.704373

>  <SCORE.INTRA>
-3.06341

>  <SCORE.INTRA.DIHEDRAL>
-5.0342

>  <SCORE.INTRA.DIHEDRAL.0>
6.26853

>  <SCORE.INTRA.POLAR>
0

>  <SCORE.INTRA.POLAR.0>
0

>  <SCORE.INTRA.REPUL>
0

>  <SCORE.INTRA.REPUL.0>
0

>  <SCORE.INTRA.SOLV>
1.47564

>  <SCORE.INTRA.SOLV.lig_0>
-38.4926

>  <SCORE.INTRA.VDW>
-1.28413

>  <SCORE.INTRA.VDW.0>
-0.59057

>  <SCORE.INTRA.norm>
-0.161232

>  <SCORE.RESTR>
0

>  <SCORE.RESTR.CAVITY>
0

>  <SCORE.RESTR.norm>
0

>  <SCORE.SYSTEM>
0

>  <SCORE.SYSTEM.CONST>
0

>  <SCORE.SYSTEM.DIHEDRAL>
0

>  <SCORE.SYSTEM.SOLV>
0

>  <SCORE.SYSTEM.norm>
0

>  <SCORE.heavy>
19

>  <SCORE.norm>
-0.865605

>  <RMSD>
14.487

$$$$
ligand
 OpenBabel11021811483D
libRbt.so/2013.1/901 2013/11/27
 19 21  0  0  0  0  0  0  0  0999 V2000
    3.9372   -0.1390    1.5886 C   0  0  0  0  0  0  0  0  0  0  0  0
    2.7777    0.3969    2.2433 O   0  0  0  0  0  0  0  0  0  0  0  0
    4.8078   -0.9041    2.5879 C   0  0  1  0  0  0  0  0  0  0  0  0
    4.0763   -2.0034    3.1637 O   0  0  0  0  0  0  0  0  0  0  0  0
    6.0335   -1.4890    1.9086 C   0  0  1  0  0  0  0  0  0  0  0  0
    7.2084   -0.7292    2.2183 O   0  0  0  0  0  0  0  0  0  0  0  0
    6.1616   -2.9016    2.4360 C   0  0  0  0  0  0  0  0  0  0  0  0
    4.8265   -3.2246    3.0908 C   0  0  2  0  0  0  0  0  0  0  0  0
    2.4091   -4.1806   -1.4738 N   0  0  0  0  0  0  0  0  0  0  0  0
    3.0377   -3.0548   -1.0408 C   0  0  1  0  0  0  0  0  0  0  0  0
    3.0875   -1.9740   -1.8553 N   0  0  0  0  0  0  0  0  0  0  0  0
    3.6127   -2.9882    0.1909 N   0  0  0  0  0  0  0  0  0  0  0  0
    3.5891   -4.0442    1.0486 C   0  0  2  0  0  0  0  0  0  0  0  0
    2.9630   -5.2156    0.6624 C   0  0  1  0  0  0  0  0  0  0  0  0
    2.3412   -5.2758   -0.6849 C   0  0  0  0  0  0  0  0  0  0  0  0
    1.7682   -6.3150   -1.0820 O   0  0  0  0  0  0  0  0  0  0  0  0
    3.0819   -6.0962    1.6712 N   0  0  0  0  0  0  0  0  0  0  0  0
    3.7627   -5.4830    2.6675 C   0  0  0  0  0  0  0  0  0  0  0  0
    4.0710   -4.2300    2.2865 N   0  0  1  0  0  0  0  0  0  0  0  0
  1  2  1  0  0  0  0
  3  1  1  6  0  0  0
  3  4  1  0  0  0  0
  3  5  1  0  0  0  0
  5  6  1  1  0  0  0
  5  7  1  0  0  0  0
  7  8  1  0  0  0  0
  8  4  1  6  0  0  0
  8 19  1  0  0  0  0
  9 15  1  0  0  0  0
  9 10  1  0  0  0  0
 10 11  1  1  0  0  0
 10 12  1  0  0  0  0
 13 12  1  1  0  0  0
 13 14  1  0  0  0  0
 13 19  1  0  0  0  0
 14 15  1  6  0  0  0
 14 17  1  0  0  0  0
 15 16  2  0  0  0  0
 17 18  1  0  0  0  0
 19 18  1  6  0  0  0
M  END
>  <CHROM.1>
60.56676338,53.36107556,3.88669763,-3.07822210,1.16103891,0.60200623,-0.96681647
-0.29293463

>  <Name>
ligand

>  <RI>
0

>  <Rbt.Current_Directory>
/home/itssahil/PROJECTS/Mol_Feturizer/New_Systems/rnas/3SKI

>  <Rbt.Executable>
rbdock ($Id: //depot/dev/client3/rdock/2013.1/src/exe/rbdock.cxx#4 $)

>  <Rbt.Library>
libRbt.so (2013.1, Build901 2013/11/27)

>  <Rbt.Parameter_File>
/export/apps/rDock/src/rDock_2013.1_src/data/scripts/dock_solv.prm

>  <Rbt.Receptor>
prm/blind_docking_20.prm

>  <SCORE>
-16.6065

>  <SCORE.INTER>
-13.0744

>  <SCORE.INTER.CONST>
1

>  <SCORE.INTER.POLAR>
0

>  <SCORE.INTER.ROT>
2

>  <SCORE.INTER.SOLV>
9.89756

>  <SCORE.INTER.VDW>
-16.9488

>  <SCORE.INTER.norm>
-0.688127

>  <SCORE.INTRA>
-3.53205

>  <SCORE.INTRA.DIHEDRAL>
-5.07088

>  <SCORE.INTRA.DIHEDRAL.0>
6.26853

>  <SCORE.INTRA.POLAR>
0

>  <SCORE.INTRA.POLAR.0>
0

>  <SCORE.INTRA.REPUL>
0

>  <SCORE.INTRA.REPUL.0>
0

>  <SCORE.INTRA.SOLV>
0.664582

>  <SCORE.INTRA.SOLV.lig_0>
-38.4926

>  <SCORE.INTRA.VDW>
-1.3289

>  <SCORE.INTRA.VDW.0>
-0.59057

>  <SCORE.INTRA.norm>
-0.185897

>  <SCORE.RESTR>
0

>  <SCORE.RESTR.CAVITY>
0

>  <SCORE.RESTR.norm>
0

>  <SCORE.SYSTEM>
0

>  <SCORE.SYSTEM.CONST>
0

>  <SCORE.SYSTEM.DIHEDRAL>
0

>  <SCORE.SYSTEM.SOLV>
0

>  <SCORE.SYSTEM.norm>
0

>  <SCORE.heavy>
19

>  <SCORE.norm>
-0.874025

>  <RMSD>
14.534

$$$$
ligand
 OpenBabel11021811483D
libRbt.so/2013.1/901 2013/11/27
 19 21  0  0  0  0  0  0  0  0999 V2000
    3.9137   -0.2197    1.4651 C   0  0  0  0  0  0  0  0  0  0  0  0
    2.7227    0.3014    2.0737 O   0  0  0  0  0  0  0  0  0  0  0  0
    4.7725   -0.9413    2.5059 C   0  0  1  0  0  0  0  0  0  0  0  0
    4.0447   -2.0347    3.0974 O   0  0  0  0  0  0  0  0  0  0  0  0
    6.0223   -1.5263    1.8720 C   0  0  1  0  0  0  0  0  0  0  0  0
    7.1781   -0.7393    2.1855 O   0  0  0  0  0  0  0  0  0  0  0  0
    6.1596   -2.9207    2.4438 C   0  0  0  0  0  0  0  0  0  0  0  0
    4.8149   -3.2456    3.0776 C   0  0  2  0  0  0  0  0  0  0  0  0
    2.3499   -4.3121   -1.4367 N   0  0  0  0  0  0  0  0  0  0  0  0
    2.9306   -3.1571   -1.0138 C   0  0  1  0  0  0  0  0  0  0  0  0
    2.9084   -2.0734   -1.8257 N   0  0  0  0  0  0  0  0  0  0  0  0
    3.5280   -3.0642    0.2054 N   0  0  0  0  0  0  0  0  0  0  0  0
    3.5761   -4.1219    1.0600 C   0  0  2  0  0  0  0  0  0  0  0  0
    3.0012   -5.3224    0.6838 C   0  0  1  0  0  0  0  0  0  0  0  0
    2.3541   -5.4109   -0.6501 C   0  0  0  0  0  0  0  0  0  0  0  0
    1.8254   -6.4768   -1.0380 O   0  0  0  0  0  0  0  0  0  0  0  0
    3.1860   -6.1981    1.6869 N   0  0  0  0  0  0  0  0  0  0  0  0
    3.8566   -5.5536    2.6703 C   0  0  0  0  0  0  0  0  0  0  0  0
    4.0934   -4.2859    2.2866 N   0  0  1  0  0  0  0  0  0  0  0  0
  1  2  1  0  0  0  0
  3  1  1  6  0  0  0
  3  4  1  0  0  0  0
  3  5  1  0  0  0  0
  5  6  1  1  0  0  0
  5  7  1  0  0  0  0
  7  8  1  0  0  0  0
  8  4  1  6  0  0  0
  8 19  1  0  0  0  0
  9 15  1  0  0  0  0
  9 10  1  0  0  0  0
 10 11  1  1  0  0  0
 10 12  1  0  0  0  0
 13 12  1  1  0  0  0
 13 14  1  0  0  0  0
 13 19  1  0  0  0  0
 14 15  1  6  0  0  0
 14 17  1  0  0  0  0
 15 16  2  0  0  0  0
 17 18  1  0  0  0  0
 19 18  1  6  0  0  0
M  END
>  <CHROM.1>
59.80220606,49.64628536,3.86936736,-3.15421218,1.14418635,0.66589613,-0.93811067
-0.24145010

>  <Name>
ligand

>  <RI>
0

>  <Rbt.Current_Directory>
/home/itssahil/PROJECTS/Mol_Feturizer/New_Systems/rnas/3SKI

>  <Rbt.Executable>
rbdock ($Id: //depot/dev/client3/rdock/2013.1/src/exe/rbdock.cxx#4 $)

>  <Rbt.Library>
libRbt.so (2013.1, Build901 2013/11/27)

>  <Rbt.Parameter_File>
/export/apps/rDock/src/rDock_2013.1_src/data/scripts/dock_solv.prm

>  <Rbt.Receptor>
prm/blind_docking_80.prm

>  <SCORE>
-16.6842

>  <SCORE.INTER>
-13.1692

>  <SCORE.INTER.CONST>
1

>  <SCORE.INTER.POLAR>
0

>  <SCORE.INTER.ROT>
2

>  <SCORE.INTER.SOLV>
10.1747

>  <SCORE.INTER.VDW>
-17.1044

>  <SCORE.INTER.norm>
-0.693116

>  <SCORE.INTRA>
-3.51499

>  <SCORE.INTRA.DIHEDRAL>
-5.07541

>  <SCORE.INTRA.DIHEDRAL.0>
6.26853

>  <SCORE.INTRA.POLAR>
0

>  <SCORE.INTRA.POLAR.0>
0

>  <SCORE.INTRA.REPUL>
0

>  <SCORE.INTRA.REPUL.0>
0

>  <SCORE.INTRA.SOLV>
0.771789

>  <SCORE.INTRA.SOLV.lig_0>
-38.4926

>  <SCORE.INTRA.VDW>
-1.36318

>  <SCORE.INTRA.VDW.0>
-0.59057

>  <SCORE.INTRA.norm>
-0.185

>  <SCORE.RESTR>
0

>  <SCORE.RESTR.CAVITY>
0

>  <SCORE.RESTR.norm>
0

>  <SCORE.SYSTEM>
0

>  <SCORE.SYSTEM.CONST>
0

>  <SCORE.SYSTEM.DIHEDRAL>
0

>  <SCORE.SYSTEM.SOLV>
0

>  <SCORE.SYSTEM.norm>
0

>  <SCORE.heavy>
19

>  <SCORE.norm>
-0.878116

>  <RMSD>
14.534

$$$$
ligand
 OpenBabel11021811483D
libRbt.so/2013.1/901 2013/11/27
 19 21  0  0  0  0  0  0  0  0999 V2000
    3.7367   -0.0209    1.6290 C   0  0  0  0  0  0  0  0  0  0  0  0
    2.6133    0.5054    2.3509 O   0  0  0  0  0  0  0  0  0  0  0  0
    4.6814   -0.7609    2.5785 C   0  0  1  0  0  0  0  0  0  0  0  0
    4.0289   -1.9088    3.1542 O   0  0  0  0  0  0  0  0  0  0  0  0
    5.9097   -1.2664    1.8425 C   0  0  1  0  0  0  0  0  0  0  0  0
    7.0547   -0.4533    2.1278 O   0  0  0  0  0  0  0  0  0  0  0  0
    6.1293   -2.6814    2.3320 C   0  0  0  0  0  0  0  0  0  0  0  0
    4.8376   -3.0875    3.0261 C   0  0  2  0  0  0  0  0  0  0  0  0
    2.3947   -4.1004   -1.5125 N   0  0  0  0  0  0  0  0  0  0  0  0
    2.9912   -2.9565   -1.0814 C   0  0  1  0  0  0  0  0  0  0  0  0
    2.9946   -1.8705   -1.8905 N   0  0  0  0  0  0  0  0  0  0  0  0
    3.5794   -2.8770    0.1432 N   0  0  0  0  0  0  0  0  0  0  0  0
    3.6019   -3.9375    0.9954 C   0  0  2  0  0  0  0  0  0  0  0  0
    3.0100   -5.1270    0.6108 C   0  0  1  0  0  0  0  0  0  0  0  0
    2.3733   -5.2011   -0.7288 C   0  0  0  0  0  0  0  0  0  0  0  0
    1.8300   -6.2568   -1.1243 O   0  0  0  0  0  0  0  0  0  0  0  0
    3.1710   -6.0083    1.6132 N   0  0  0  0  0  0  0  0  0  0  0  0
    3.8438   -5.3779    2.6041 C   0  0  0  0  0  0  0  0  0  0  0  0
    4.1055   -4.1134    2.2260 N   0  0  1  0  0  0  0  0  0  0  0  0
  1  2  1  0  0  0  0
  3  1  1  6  0  0  0
  3  4  1  0  0  0  0
  3  5  1  0  0  0  0
  5  6  1  1  0  0  0
  5  7  1  0  0  0  0
  7  8  1  0  0  0  0
  8  4  1  6  0  0  0
  8 19  1  0  0  0  0
  9 15  1  0  0  0  0
  9 10  1  0  0  0  0
 10 11  1  1  0  0  0
 10 12  1  0  0  0  0
 13 12  1  1  0  0  0
 13 14  1  0  0  0  0
 13 19  1  0  0  0  0
 14 15  1  6  0  0  0
 14 17  1  0  0  0  0
 15 16  2  0  0  0  0
 17 18  1  0  0  0  0
 19 18  1  6  0  0  0
M  END
>  <CHROM.1>
63.83759771,55.33462266,3.84855946,-2.95354189,1.12403723,0.68228356,-0.97616369
-0.22136381

>  <Name>
ligand

>  <RI>
0

>  <Rbt.Current_Directory>
/home/itssahil/PROJECTS/Mol_Feturizer/New_Systems/rnas/3SKI

>  <Rbt.Executable>
rbdock ($Id: //depot/dev/client3/rdock/2013.1/src/exe/rbdock.cxx#4 $)

>  <Rbt.Library>
libRbt.so (2013.1, Build901 2013/11/27)

>  <Rbt.Parameter_File>
/export/apps/rDock/src/rDock_2013.1_src/data/scripts/dock_solv.prm

>  <Rbt.Receptor>
prm/blind_docking_100.prm

>  <SCORE>
-16.4191

>  <SCORE.INTER>
-12.8919

>  <SCORE.INTER.CONST>
1

>  <SCORE.INTER.POLAR>
0

>  <SCORE.INTER.ROT>
2

>  <SCORE.INTER.SOLV>
10.0615

>  <SCORE.INTER.VDW>
-16.8818

>  <SCORE.INTER.norm>
-0.678522

>  <SCORE.INTRA>
-3.52717

>  <SCORE.INTRA.DIHEDRAL>
-5.01599

>  <SCORE.INTRA.DIHEDRAL.0>
6.26853

>  <SCORE.INTRA.POLAR>
0

>  <SCORE.INTRA.POLAR.0>
0

>  <SCORE.INTRA.REPUL>
0

>  <SCORE.INTRA.REPUL.0>
0

>  <SCORE.INTRA.SOLV>
0.590247

>  <SCORE.INTRA.SOLV.lig_0>
-38.4926

>  <SCORE.INTRA.VDW>
-1.3143

>  <SCORE.INTRA.VDW.0>
-0.59057

>  <SCORE.INTRA.norm>
-0.18564

>  <SCORE.RESTR>
0

>  <SCORE.RESTR.CAVITY>
0

>  <SCORE.RESTR.norm>
0

>  <SCORE.SYSTEM>
0

>  <SCORE.SYSTEM.CONST>
0

>  <SCORE.SYSTEM.DIHEDRAL>
0

>  <SCORE.SYSTEM.SOLV>
0

>  <SCORE.SYSTEM.norm>
0

>  <SCORE.heavy>
19

>  <SCORE.norm>
-0.864162

>  <RMSD>
14.538

$$$$
ligand
 OpenBabel11021811483D
libRbt.so/2013.1/901 2013/11/27
 19 21  0  0  0  0  0  0  0  0999 V2000
    4.1154   -0.4225    1.6713 C   0  0  0  0  0  0  0  0  0  0  0  0
    3.0065    0.1674    2.3659 O   0  0  0  0  0  0  0  0  0  0  0  0
    4.9738   -1.2428    2.6368 C   0  0  1  0  0  0  0  0  0  0  0  0
    4.2193   -2.3428    3.1807 O   0  0  0  0  0  0  0  0  0  0  0  0
    6.1795   -1.8342    1.9280 C   0  0  1  0  0  0  0  0  0  0  0  0
    7.3753   -1.1148    2.2539 O   0  0  0  0  0  0  0  0  0  0  0  0
    6.2761   -3.2668    2.4059 C   0  0  0  0  0  0  0  0  0  0  0  0
    4.9382   -3.5790    3.0600 C   0  0  2  0  0  0  0  0  0  0  0  0
    2.3317   -4.2662   -1.4485 N   0  0  0  0  0  0  0  0  0  0  0  0
    2.9751   -3.1657   -0.9740 C   0  0  1  0  0  0  0  0  0  0  0  0
    2.9872   -2.0367   -1.7219 N   0  0  0  0  0  0  0  0  0  0  0  0
    3.6016   -3.1716    0.2340 N   0  0  0  0  0  0  0  0  0  0  0  0
    3.6174   -4.2784    1.0254 C   0  0  2  0  0  0  0  0  0  0  0  0
    2.9786   -5.4272    0.5947 C   0  0  1  0  0  0  0  0  0  0  0  0
    2.3004   -5.4080   -0.7263 C   0  0  0  0  0  0  0  0  0  0  0  0
    1.7139   -6.4240   -1.1620 O   0  0  0  0  0  0  0  0  0  0  0  0
    3.1427   -6.3674    1.5415 N   0  0  0  0  0  0  0  0  0  0  0  0
    3.8635   -5.8128    2.5440 C   0  0  0  0  0  0  0  0  0  0  0  0
    4.1519   -4.5372    2.2281 N   0  0  1  0  0  0  0  0  0  0  0  0
  1  2  1  0  0  0  0
  3  1  1  6  0  0  0
  3  4  1  0  0  0  0
  3  5  1  0  0  0  0
  5  6  1  1  0  0  0
  5  7  1  0  0  0  0
  7  8  1  0  0  0  0
  8  4  1  6  0  0  0
  8 19  1  0  0  0  0
  9 15  1  0  0  0  0
  9 10  1  0  0  0  0
 10 11  1  1  0  0  0
 10 12  1  0  0  0  0
 13 12  1  1  0  0  0
 13 14  1  0  0  0  0
 13 19  1  0  0  0  0
 14 15  1  6  0  0  0
 14 17  1  0  0  0  0
 15 16  2  0  0  0  0
 17 18  1  0  0  0  0
 19 18  1  6  0  0  0
M  END
>  <CHROM.1>
63.09426194,50.33983264,3.95255638,-3.32559514,1.16362086,0.60967525,-0.91003993
-0.22985012

>  <Name>
ligand

>  <RI>
0

>  <Rbt.Current_Directory>
/home/itssahil/PROJECTS/Mol_Feturizer/New_Systems/rnas/3SKI

>  <Rbt.Executable>
rbdock ($Id: //depot/dev/client3/rdock/2013.1/src/exe/rbdock.cxx#4 $)

>  <Rbt.Library>
libRbt.so (2013.1, Build901 2013/11/27)

>  <Rbt.Parameter_File>
/export/apps/rDock/src/rDock_2013.1_src/data/scripts/dock_solv.prm

>  <Rbt.Receptor>
prm/blind_docking_40.prm

>  <SCORE>
-16.6306

>  <SCORE.INTER>
-13.1198

>  <SCORE.INTER.CONST>
1

>  <SCORE.INTER.POLAR>
0

>  <SCORE.INTER.ROT>
2

>  <SCORE.INTER.SOLV>
9.9549

>  <SCORE.INTER.VDW>
-16.9981

>  <SCORE.INTER.norm>
-0.690514

>  <SCORE.INTRA>
-3.51087

>  <SCORE.INTRA.DIHEDRAL>
-5.03927

>  <SCORE.INTRA.DIHEDRAL.0>
6.26853

>  <SCORE.INTRA.POLAR>
0

>  <SCORE.INTRA.POLAR.0>
0

>  <SCORE.INTRA.REPUL>
0

>  <SCORE.INTRA.REPUL.0>
0

>  <SCORE.INTRA.SOLV>
0.741321

>  <SCORE.INTRA.SOLV.lig_0>
-38.4926

>  <SCORE.INTRA.VDW>
-1.3619

>  <SCORE.INTRA.VDW.0>
-0.59057

>  <SCORE.INTRA.norm>
-0.184783

>  <SCORE.RESTR>
0

>  <SCORE.RESTR.CAVITY>
0

>  <SCORE.RESTR.norm>
0

>  <SCORE.SYSTEM>
0

>  <SCORE.SYSTEM.CONST>
0

>  <SCORE.SYSTEM.DIHEDRAL>
0

>  <SCORE.SYSTEM.SOLV>
0

>  <SCORE.SYSTEM.norm>
0

>  <SCORE.heavy>
19

>  <SCORE.norm>
-0.875297

>  <RMSD>
14.555

$$$$
ligand
 OpenBabel11021811483D
libRbt.so/2013.1/901 2013/11/27
 19 21  0  0  0  0  0  0  0  0999 V2000
    3.8715   -0.2125    1.4544 C   0  0  0  0  0  0  0  0  0  0  0  0
    2.6951    0.3364    2.0668 O   0  0  0  0  0  0  0  0  0  0  0  0
    4.7412   -0.9114    2.5018 C   0  0  1  0  0  0  0  0  0  0  0  0
    4.0368   -2.0216    3.0903 O   0  0  0  0  0  0  0  0  0  0  0  0
    6.0090   -1.4663    1.8768 C   0  0  1  0  0  0  0  0  0  0  0  0
    7.1430   -0.6506    2.1964 O   0  0  0  0  0  0  0  0  0  0  0  0
    6.1770   -2.8560    2.4515 C   0  0  0  0  0  0  0  0  0  0  0  0
    4.8367   -3.2131    3.0772 C   0  0  2  0  0  0  0  0  0  0  0  0
    2.3988   -4.3373   -1.4379 N   0  0  0  0  0  0  0  0  0  0  0  0
    2.9445   -3.1666   -1.0113 C   0  0  1  0  0  0  0  0  0  0  0  0
    2.8881   -2.0811   -1.8191 N   0  0  0  0  0  0  0  0  0  0  0  0
    3.5407   -3.0603    0.2074 N   0  0  0  0  0  0  0  0  0  0  0  0
    3.6222   -4.1192    1.0579 C   0  0  2  0  0  0  0  0  0  0  0  0
    3.0837   -5.3352    0.6778 C   0  0  1  0  0  0  0  0  0  0  0  0
    2.4376   -5.4384   -0.6555 C   0  0  0  0  0  0  0  0  0  0  0  0
    1.9411   -6.5184   -1.0467 O   0  0  0  0  0  0  0  0  0  0  0  0
    3.2965   -6.2087    1.6773 N   0  0  0  0  0  0  0  0  0  0  0  0
    3.9486   -5.5477    2.6623 C   0  0  0  0  0  0  0  0  0  0  0  0
    4.1461   -4.2720    2.2832 N   0  0  1  0  0  0  0  0  0  0  0  0
  1  2  1  0  0  0  0
  3  1  1  6  0  0  0
  3  4  1  0  0  0  0
  3  5  1  0  0  0  0
  5  6  1  1  0  0  0
  5  7  1  0  0  0  0
  7  8  1  0  0  0  0
  8  4  1  6  0  0  0
  8 19  1  0  0  0  0
  9 15  1  0  0  0  0
  9 10  1  0  0  0  0
 10 11  1  1  0  0  0
 10 12  1  0  0  0  0
 13 12  1  1  0  0  0
 13 14  1  0  0  0  0
 13 19  1  0  0  0  0
 14 15  1  6  0  0  0
 14 17  1  0  0  0  0
 15 16  2  0  0  0  0
 17 18  1  0  0  0  0
 19 18  1  6  0  0  0
M  END
>  <CHROM.1>
62.59303794,49.01285660,3.89525365,-3.14168570,1.14214413,0.71553418,-0.94105170
-0.20015419

>  <Name>
ligand

>  <RI>
0

>  <Rbt.Current_Directory>
/home/itssahil/PROJECTS/Mol_Feturizer/New_Systems/rnas/3SKI

>  <Rbt.Executable>
rbdock ($Id: //depot/dev/client3/rdock/2013.1/src/exe/rbdock.cxx#4 $)

>  <Rbt.Library>
libRbt.so (2013.1, Build901 2013/11/27)

>  <Rbt.Parameter_File>
/export/apps/rDock/src/rDock_2013.1_src/data/scripts/dock_solv.prm

>  <Rbt.Receptor>
prm/blind_docking_80.prm

>  <SCORE>
-16.6639

>  <SCORE.INTER>
-13.1449

>  <SCORE.INTER.CONST>
1

>  <SCORE.INTER.POLAR>
0

>  <SCORE.INTER.ROT>
2

>  <SCORE.INTER.SOLV>
10.0942

>  <SCORE.INTER.VDW>
-17.0613

>  <SCORE.INTER.norm>
-0.691837

>  <SCORE.INTRA>
-3.51894

>  <SCORE.INTRA.DIHEDRAL>
-5.05081

>  <SCORE.INTRA.DIHEDRAL.0>
6.26853

>  <SCORE.INTRA.POLAR>
0

>  <SCORE.INTRA.POLAR.0>
0

>  <SCORE.INTRA.REPUL>
0

>  <SCORE.INTRA.REPUL.0>
0

>  <SCORE.INTRA.SOLV>
0.777388

>  <SCORE.INTRA.SOLV.lig_0>
-38.4926

>  <SCORE.INTRA.VDW>
-1.38223

>  <SCORE.INTRA.VDW.0>
-0.59057

>  <SCORE.INTRA.norm>
-0.185207

>  <SCORE.RESTR>
0

>  <SCORE.RESTR.CAVITY>
0

>  <SCORE.RESTR.norm>
0

>  <SCORE.SYSTEM>
0

>  <SCORE.SYSTEM.CONST>
0

>  <SCORE.SYSTEM.DIHEDRAL>
0

>  <SCORE.SYSTEM.SOLV>
0

>  <SCORE.SYSTEM.norm>
0

>  <SCORE.heavy>
19

>  <SCORE.norm>
-0.877045

>  <RMSD>
14.555

$$$$
ligand
 OpenBabel11021811483D
libRbt.so/2013.1/901 2013/11/27
 19 21  0  0  0  0  0  0  0  0999 V2000
  -13.2771   -0.9059   -1.9993 C   0  0  0  0  0  0  0  0  0  0  0  0
  -13.3286   -2.2994   -1.6589 O   0  0  0  0  0  0  0  0  0  0  0  0
  -12.3550   -0.6842   -3.2004 C   0  0  1  0  0  0  0  0  0  0  0  0
  -12.3216    0.7085   -3.5667 O   0  0  0  0  0  0  0  0  0  0  0  0
  -10.9296   -1.0967   -2.8780 C   0  0  1  0  0  0  0  0  0  0  0  0
  -10.6047   -2.3531   -3.4858 O   0  0  0  0  0  0  0  0  0  0  0  0
  -10.0482    0.0026   -3.4301 C   0  0  0  0  0  0  0  0  0  0  0  0
  -10.9730    1.1793   -3.7056 C   0  0  2  0  0  0  0  0  0  0  0  0
  -12.7812    3.7026    0.5318 N   0  0  0  0  0  0  0  0  0  0  0  0
  -13.3128    2.6512   -0.1480 C   0  0  1  0  0  0  0  0  0  0  0  0
  -14.4862    2.1212    0.2720 N   0  0  0  0  0  0  0  0  0  0  0  0
  -12.6964    2.1236   -1.2406 N   0  0  0  0  0  0  0  0  0  0  0  0
  -11.5177    2.6198   -1.7053 C   0  0  2  0  0  0  0  0  0  0  0  0
  -10.9304    3.6896   -1.0542 C   0  0  1  0  0  0  0  0  0  0  0  0
  -11.6124    4.2547    0.1379 C   0  0  0  0  0  0  0  0  0  0  0  0
  -11.1177    5.2187    0.7640 O   0  0  0  0  0  0  0  0  0  0  0  0
   -9.7866    3.9832   -1.6968 N   0  0  0  0  0  0  0  0  0  0  0  0
   -9.6679    3.1177   -2.7307 C   0  0  0  0  0  0  0  0  0  0  0  0
  -10.7259    2.2864   -2.7353 N   0  0  1  0  0  0  0  0  0  0  0  0
  1  2  1  0  0  0  0
  3  1  1  1  0  0  0
  3  4  1  0  0  0  0
  3  5  1  0  0  0  0
  5  6  1  6  0  0  0
  5  7  1  0  0  0  0
  7  8  1  0  0  0  0
  8  4  1  1  0  0  0
  8 19  1  0  0  0  0
  9 15  1  0  0  0  0
  9 10  1  0  0  0  0
 10 11  1  6  0  0  0
 10 12  1  0  0  0  0
 13 12  1  6  0  0  0
 13 14  1  0  0  0  0
 13 19  1  0  0  0  0
 14 15  1  1  0  0  0
 14 17  1  0  0  0  0
 15 16  2  0  0  0  0
 17 18  1  0  0  0  0
 19 18  1  1  0  0  0
M  END
>  <CHROM.1>
178.71615466,12.82349391,-11.72797633,1.51302060,-1.78008152,1.58792679,-0.61130603
-2.64583698

>  <Name>
ligand

>  <RI>
0

>  <Rbt.Current_Directory>
/home/itssahil/PROJECTS/Mol_Feturizer/New_Systems/rnas/3SKI

>  <Rbt.Executable>
rbdock ($Id: //depot/dev/client3/rdock/2013.1/src/exe/rbdock.cxx#4 $)

>  <Rbt.Library>
libRbt.so (2013.1, Build901 2013/11/27)

>  <Rbt.Parameter_File>
/export/apps/rDock/src/rDock_2013.1_src/data/scripts/dock_solv.prm

>  <Rbt.Receptor>
prm/blind_docking_80.prm

>  <SCORE>
-17.1927

>  <SCORE.INTER>
-14.236

>  <SCORE.INTER.CONST>
1

>  <SCORE.INTER.POLAR>
0

>  <SCORE.INTER.ROT>
2

>  <SCORE.INTER.SOLV>
11.2772

>  <SCORE.INTER.VDW>
-18.183

>  <SCORE.INTER.norm>
-0.749261

>  <SCORE.INTRA>
-2.95671

>  <SCORE.INTRA.DIHEDRAL>
-5.07149

>  <SCORE.INTRA.DIHEDRAL.0>
6.26853

>  <SCORE.INTRA.POLAR>
0

>  <SCORE.INTRA.POLAR.0>
0

>  <SCORE.INTRA.REPUL>
0

>  <SCORE.INTRA.REPUL.0>
0

>  <SCORE.INTRA.SOLV>
0.921604

>  <SCORE.INTRA.SOLV.lig_0>
-38.4926

>  <SCORE.INTRA.VDW>
-0.881765

>  <SCORE.INTRA.VDW.0>
-0.59057

>  <SCORE.INTRA.norm>
-0.155616

>  <SCORE.RESTR>
0

>  <SCORE.RESTR.CAVITY>
0

>  <SCORE.RESTR.norm>
0

>  <SCORE.SYSTEM>
0

>  <SCORE.SYSTEM.CONST>
0

>  <SCORE.SYSTEM.DIHEDRAL>
0

>  <SCORE.SYSTEM.SOLV>
0

>  <SCORE.SYSTEM.norm>
0

>  <SCORE.heavy>
19

>  <SCORE.norm>
-0.904877

>  <RMSD>
14.573

$$$$
ligand
 OpenBabel11021811483D
libRbt.so/2013.1/901 2013/11/27
 19 21  0  0  0  0  0  0  0  0999 V2000
    2.7911    0.7276    1.6720 C   0  0  0  0  0  0  0  0  0  0  0  0
    3.0465    1.9784    1.0158 O   0  0  0  0  0  0  0  0  0  0  0  0
    3.9874    0.3256    2.5376 C   0  0  1  0  0  0  0  0  0  0  0  0
    3.7104   -0.8921    3.2556 O   0  0  0  0  0  0  0  0  0  0  0  0
    5.2180    0.0723    1.6847 C   0  0  1  0  0  0  0  0  0  0  0  0
    6.1446    1.1615    1.7775 O   0  0  0  0  0  0  0  0  0  0  0  0
    5.8380   -1.1984    2.2240 C   0  0  0  0  0  0  0  0  0  0  0  0
    4.7717   -1.8449    3.0961 C   0  0  2  0  0  0  0  0  0  0  0  0
    2.7812   -3.9307   -1.2949 N   0  0  0  0  0  0  0  0  0  0  0  0
    3.1843   -2.6565   -1.0415 C   0  0  1  0  0  0  0  0  0  0  0  0
    3.0865   -1.7278   -2.0223 N   0  0  0  0  0  0  0  0  0  0  0  0
    3.6783   -2.2932    0.1734 N   0  0  0  0  0  0  0  0  0  0  0  0
    3.7955   -3.1864    1.1933 C   0  0  2  0  0  0  0  0  0  0  0  0
    3.4004   -4.4968    0.9937 C   0  0  1  0  0  0  0  0  0  0  0  0
    2.8649   -4.8806   -0.3373 C   0  0  0  0  0  0  0  0  0  0  0  0
    2.4998   -6.0550   -0.5685 O   0  0  0  0  0  0  0  0  0  0  0  0
    3.6201   -5.1702    2.1363 N   0  0  0  0  0  0  0  0  0  0  0  0
    4.1354   -4.2948    3.0309 C   0  0  0  0  0  0  0  0  0  0  0  0
    4.2412   -3.0838    2.4542 N   0  0  1  0  0  0  0  0  0  0  0  0
  1  2  1  0  0  0  0
  3  1  1  6  0  0  0
  3  4  1  0  0  0  0
  3  5  1  0  0  0  0
  5  6  1  1  0  0  0
  5  7  1  0  0  0  0
  7  8  1  0  0  0  0
  8  4  1  6  0  0  0
  8 19  1  0  0  0  0
  9 15  1  0  0  0  0
  9 10  1  0  0  0  0
 10 11  1  1  0  0  0
 10 12  1  0  0  0  0
 13 12  1  1  0  0  0
 13 14  1  0  0  0  0
 13 19  1  0  0  0  0
 14 15  1  6  0  0  0
 14 17  1  0  0  0  0
 15 16  2  0  0  0  0
 17 18  1  0  0  0  0
 19 18  1  6  0  0  0
M  END
>  <CHROM.1>
176.90815482,67.89089552,3.83616460,-2.09702821,1.16381961,0.94738177,-1.15232379
-0.23532485

>  <Name>
ligand

>  <RI>
0

>  <Rbt.Current_Directory>
/home/itssahil/PROJECTS/Mol_Feturizer/New_Systems/rnas/3SKI

>  <Rbt.Executable>
rbdock ($Id: //depot/dev/client3/rdock/2013.1/src/exe/rbdock.cxx#4 $)

>  <Rbt.Library>
libRbt.so (2013.1, Build901 2013/11/27)

>  <Rbt.Parameter_File>
/export/apps/rDock/src/rDock_2013.1_src/data/scripts/dock_solv.prm

>  <Rbt.Receptor>
prm/blind_docking_40.prm

>  <SCORE>
-16.1421

>  <SCORE.INTER>
-12.7122

>  <SCORE.INTER.CONST>
1

>  <SCORE.INTER.POLAR>
0

>  <SCORE.INTER.ROT>
2

>  <SCORE.INTER.SOLV>
8.83636

>  <SCORE.INTER.VDW>
-16.3536

>  <SCORE.INTER.norm>
-0.669063

>  <SCORE.INTRA>
-3.42992

>  <SCORE.INTRA.DIHEDRAL>
-5.02501

>  <SCORE.INTRA.DIHEDRAL.0>
6.26853

>  <SCORE.INTRA.POLAR>
0

>  <SCORE.INTRA.POLAR.0>
0

>  <SCORE.INTRA.REPUL>
0

>  <SCORE.INTRA.REPUL.0>
0

>  <SCORE.INTRA.SOLV>
0.329885

>  <SCORE.INTRA.SOLV.lig_0>
-38.4926

>  <SCORE.INTRA.VDW>
-1.08236

>  <SCORE.INTRA.VDW.0>
-0.59057

>  <SCORE.INTRA.norm>
-0.180522

>  <SCORE.RESTR>
0

>  <SCORE.RESTR.CAVITY>
0

>  <SCORE.RESTR.norm>
0

>  <SCORE.SYSTEM>
0

>  <SCORE.SYSTEM.CONST>
0

>  <SCORE.SYSTEM.DIHEDRAL>
0

>  <SCORE.SYSTEM.SOLV>
0

>  <SCORE.SYSTEM.norm>
0

>  <SCORE.heavy>
19

>  <SCORE.norm>
-0.849585

>  <RMSD>
14.618

$$$$
ligand
 OpenBabel11021811483D
libRbt.so/2013.1/901 2013/11/27
 19 21  0  0  0  0  0  0  0  0999 V2000
    2.7873    0.7701    1.6630 C   0  0  0  0  0  0  0  0  0  0  0  0
    3.0415    2.0224    1.0091 O   0  0  0  0  0  0  0  0  0  0  0  0
    3.9802    0.3721    2.5350 C   0  0  1  0  0  0  0  0  0  0  0  0
    3.7041   -0.8476    3.2500 O   0  0  0  0  0  0  0  0  0  0  0  0
    5.2167    0.1250    1.6890 C   0  0  1  0  0  0  0  0  0  0  0  0
    6.1382    1.2179    1.7885 O   0  0  0  0  0  0  0  0  0  0  0  0
    5.8390   -1.1437    2.2305 C   0  0  0  0  0  0  0  0  0  0  0  0
    4.7703   -1.7957    3.0956 C   0  0  2  0  0  0  0  0  0  0  0  0
    2.7789   -3.8760   -1.2975 N   0  0  0  0  0  0  0  0  0  0  0  0
    3.1707   -2.5993   -1.0388 C   0  0  1  0  0  0  0  0  0  0  0  0
    3.0591   -1.6661   -2.0138 N   0  0  0  0  0  0  0  0  0  0  0  0
    3.6671   -2.2382    0.1758 N   0  0  0  0  0  0  0  0  0  0  0  0
    3.7979   -3.1359    1.1899 C   0  0  2  0  0  0  0  0  0  0  0  0
    3.4147   -4.4489    0.9848 C   0  0  1  0  0  0  0  0  0  0  0  0
    2.8764   -4.8304   -0.3458 C   0  0  0  0  0  0  0  0  0  0  0  0
    2.5217   -6.0070   -0.5818 O   0  0  0  0  0  0  0  0  0  0  0  0
    3.6465   -5.1266    2.1225 N   0  0  0  0  0  0  0  0  0  0  0  0
    4.1576   -4.2513    3.0196 C   0  0  0  0  0  0  0  0  0  0  0  0
    4.2488   -3.0361    2.4492 N   0  0  1  0  0  0  0  0  0  0  0  0
  1  2  1  0  0  0  0
  3  1  1  6  0  0  0
  3  4  1  0  0  0  0
  3  5  1  0  0  0  0
  5  6  1  1  0  0  0
  5  7  1  0  0  0  0
  7  8  1  0  0  0  0
  8  4  1  6  0  0  0
  8 19  1  0  0  0  0
  9 15  1  0  0  0  0
  9 10  1  0  0  0  0
 10 11  1  1  0  0  0
 10 12  1  0  0  0  0
 13 12  1  1  0  0  0
 13 14  1  0  0  0  0
 13 19  1  0  0  0  0
 14 15  1  6  0  0  0
 14 17  1  0  0  0  0
 15 16  2  0  0  0  0
 17 18  1  0  0  0  0
 19 18  1  6  0  0  0
M  END
>  <CHROM.1>
176.93600778,67.15434575,3.83710793,-2.04704579,1.16092865,0.96349511,-1.14664325
-0.21756546

>  <Name>
ligand

>  <RI>
0

>  <Rbt.Current_Directory>
/home/itssahil/PROJECTS/Mol_Feturizer/New_Systems/rnas/3SKI

>  <Rbt.Executable>
rbdock ($Id: //depot/dev/client3/rdock/2013.1/src/exe/rbdock.cxx#4 $)

>  <Rbt.Library>
libRbt.so (2013.1, Build901 2013/11/27)

>  <Rbt.Parameter_File>
/export/apps/rDock/src/rDock_2013.1_src/data/scripts/dock_solv.prm

>  <Rbt.Receptor>
prm/blind_docking_100.prm

>  <SCORE>
-16.0609

>  <SCORE.INTER>
-12.6275

>  <SCORE.INTER.CONST>
1

>  <SCORE.INTER.POLAR>
0

>  <SCORE.INTER.ROT>
2

>  <SCORE.INTER.SOLV>
8.73306

>  <SCORE.INTER.VDW>
-16.2627

>  <SCORE.INTER.norm>
-0.664607

>  <SCORE.INTRA>
-3.43335

>  <SCORE.INTRA.DIHEDRAL>
-5.02629

>  <SCORE.INTRA.DIHEDRAL.0>
6.26853

>  <SCORE.INTRA.POLAR>
0

>  <SCORE.INTRA.POLAR.0>
0

>  <SCORE.INTRA.REPUL>
0

>  <SCORE.INTRA.REPUL.0>
0

>  <SCORE.INTRA.SOLV>
0.36202

>  <SCORE.INTRA.SOLV.lig_0>
-38.4926

>  <SCORE.INTRA.VDW>
-1.10122

>  <SCORE.INTRA.VDW.0>
-0.59057

>  <SCORE.INTRA.norm>
-0.180703

>  <SCORE.RESTR>
0

>  <SCORE.RESTR.CAVITY>
0

>  <SCORE.RESTR.norm>
0

>  <SCORE.SYSTEM>
0

>  <SCORE.SYSTEM.CONST>
0

>  <SCORE.SYSTEM.DIHEDRAL>
0

>  <SCORE.SYSTEM.SOLV>
0

>  <SCORE.SYSTEM.norm>
0

>  <SCORE.heavy>
19

>  <SCORE.norm>
-0.84531

>  <RMSD>
14.625

$$$$
ligand
 OpenBabel11021811483D
libRbt.so/2013.1/901 2013/11/27
 19 21  0  0  0  0  0  0  0  0999 V2000
    4.0402   -0.1019    1.7071 C   0  0  0  0  0  0  0  0  0  0  0  0
    2.9742    0.4329    2.5058 O   0  0  0  0  0  0  0  0  0  0  0  0
    5.0114   -0.9002    2.5797 C   0  0  1  0  0  0  0  0  0  0  0  0
    4.3538   -2.0431    3.1596 O   0  0  0  0  0  0  0  0  0  0  0  0
    6.1782   -1.4231    1.7604 C   0  0  1  0  0  0  0  0  0  0  0  0
    7.3645   -0.6564    2.0020 O   0  0  0  0  0  0  0  0  0  0  0  0
    6.3768   -2.8584    2.1966 C   0  0  0  0  0  0  0  0  0  0  0  0
    5.1133   -3.2430    2.9523 C   0  0  2  0  0  0  0  0  0  0  0  0
    2.4013   -4.0466   -1.4740 N   0  0  0  0  0  0  0  0  0  0  0  0
    3.0618   -2.9368   -1.0472 C   0  0  1  0  0  0  0  0  0  0  0  0
    3.0638   -1.8307   -1.8286 N   0  0  0  0  0  0  0  0  0  0  0  0
    3.7155   -2.9110    0.1461 N   0  0  0  0  0  0  0  0  0  0  0  0
    3.7426   -3.9938    0.9697 C   0  0  2  0  0  0  0  0  0  0  0  0
    3.0873   -5.1506    0.5880 C   0  0  1  0  0  0  0  0  0  0  0  0
    2.3794   -5.1661   -0.7175 C   0  0  0  0  0  0  0  0  0  0  0  0
    1.7771   -6.1907   -1.1093 O   0  0  0  0  0  0  0  0  0  0  0  0
    3.2671   -6.0633    1.5585 N   0  0  0  0  0  0  0  0  0  0  0  0
    4.0137   -5.4840    2.5276 C   0  0  0  0  0  0  0  0  0  0  0  0
    4.3026   -4.2202    2.1672 N   0  0  1  0  0  0  0  0  0  0  0  0
  1  2  1  0  0  0  0
  3  1  1  6  0  0  0
  3  4  1  0  0  0  0
  3  5  1  0  0  0  0
  5  6  1  1  0  0  0
  5  7  1  0  0  0  0
  7  8  1  0  0  0  0
  8  4  1  6  0  0  0
  8 19  1  0  0  0  0
  9 15  1  0  0  0  0
  9 10  1  0  0  0  0
 10 11  1  1  0  0  0
 10 12  1  0  0  0  0
 13 12  1  1  0  0  0
 13 14  1  0  0  0  0
 13 19  1  0  0  0  0
 14 15  1  6  0  0  0
 14 17  1  0  0  0  0
 15 16  2  0  0  0  0
 17 18  1  0  0  0  0
 19 18  1  6  0  0  0
M  END
>  <CHROM.1>
63.53700502,55.72151773,4.02792856,-3.02246654,1.11205652,0.64246276,-0.91919723
-0.22760823

>  <Name>
ligand

>  <RI>
0

>  <Rbt.Current_Directory>
/home/itssahil/PROJECTS/Mol_Feturizer/New_Systems/rnas/3SKI

>  <Rbt.Executable>
rbdock ($Id: //depot/dev/client3/rdock/2013.1/src/exe/rbdock.cxx#4 $)

>  <Rbt.Library>
libRbt.so (2013.1, Build901 2013/11/27)

>  <Rbt.Parameter_File>
/export/apps/rDock/src/rDock_2013.1_src/data/scripts/dock_solv.prm

>  <Rbt.Receptor>
prm/blind_docking_100.prm

>  <SCORE>
-16.5

>  <SCORE.INTER>
-12.9669

>  <SCORE.INTER.CONST>
1

>  <SCORE.INTER.POLAR>
0

>  <SCORE.INTER.ROT>
2

>  <SCORE.INTER.SOLV>
9.08581

>  <SCORE.INTER.VDW>
-16.6065

>  <SCORE.INTER.norm>
-0.682468

>  <SCORE.INTRA>
-3.53309

>  <SCORE.INTRA.DIHEDRAL>
-5.02369

>  <SCORE.INTRA.DIHEDRAL.0>
6.26853

>  <SCORE.INTRA.POLAR>
0

>  <SCORE.INTRA.POLAR.0>
0

>  <SCORE.INTRA.REPUL>
0

>  <SCORE.INTRA.REPUL.0>
0

>  <SCORE.INTRA.SOLV>
0.578656

>  <SCORE.INTRA.SOLV.lig_0>
-38.4926

>  <SCORE.INTRA.VDW>
-1.31057

>  <SCORE.INTRA.VDW.0>
-0.59057

>  <SCORE.INTRA.norm>
-0.185952

>  <SCORE.RESTR>
0

>  <SCORE.RESTR.CAVITY>
0

>  <SCORE.RESTR.norm>
0

>  <SCORE.SYSTEM>
0

>  <SCORE.SYSTEM.CONST>
0

>  <SCORE.SYSTEM.DIHEDRAL>
0

>  <SCORE.SYSTEM.SOLV>
0

>  <SCORE.SYSTEM.norm>
0

>  <SCORE.heavy>
19

>  <SCORE.norm>
-0.86842

>  <RMSD>
14.659

$$$$
ligand
 OpenBabel11021811483D
libRbt.so/2013.1/901 2013/11/27
 19 21  0  0  0  0  0  0  0  0999 V2000
    2.6842    1.7663    3.0735 C   0  0  0  0  0  0  0  0  0  0  0  0
    1.6285    1.3420    3.9485 O   0  0  0  0  0  0  0  0  0  0  0  0
    3.9134    0.8716    3.2480 C   0  0  1  0  0  0  0  0  0  0  0  0
    3.5806   -0.5066    2.9934 O   0  0  0  0  0  0  0  0  0  0  0  0
    5.0110    1.2549    2.2711 C   0  0  1  0  0  0  0  0  0  0  0  0
    6.0573    1.9812    2.9279 O   0  0  0  0  0  0  0  0  0  0  0  0
    5.5398   -0.0489    1.7140 C   0  0  0  0  0  0  0  0  0  0  0  0
    4.5068   -1.1061    2.0756 C   0  0  2  0  0  0  0  0  0  0  0  0
    1.9551    0.3728   -2.2713 N   0  0  0  0  0  0  0  0  0  0  0  0
    2.5353    1.1306   -1.3021 C   0  0  1  0  0  0  0  0  0  0  0  0
    2.4872    2.4801   -1.4046 N   0  0  0  0  0  0  0  0  0  0  0  0
    3.1578    0.5653   -0.2321 N   0  0  0  0  0  0  0  0  0  0  0  0
    3.2325   -0.7848   -0.0800 C   0  0  2  0  0  0  0  0  0  0  0  0
    2.6594   -1.6058   -1.0342 C   0  0  1  0  0  0  0  0  0  0  0  0
    1.9849   -0.9762   -2.1980 C   0  0  0  0  0  0  0  0  0  0  0  0
    1.4567   -1.6767   -3.0904 O   0  0  0  0  0  0  0  0  0  0  0  0
    2.8725   -2.8796   -0.6610 N   0  0  0  0  0  0  0  0  0  0  0  0
    3.5587   -2.8517    0.5054 C   0  0  0  0  0  0  0  0  0  0  0  0
    3.7771   -1.5721    0.8595 N   0  0  1  0  0  0  0  0  0  0  0  0
  1  2  1  0  0  0  0
  3  1  1  6  0  0  0
  3  4  1  0  0  0  0
  3  5  1  0  0  0  0
  5  6  1  1  0  0  0
  5  7  1  0  0  0  0
  7  8  1  0  0  0  0
  8  4  1  1  0  0  0
  8 19  1  0  0  0  0
  9 15  1  0  0  0  0
  9 10  1  0  0  0  0
 10 11  1  1  0  0  0
 10 12  1  0  0  0  0
 13 12  1  1  0  0  0
 13 14  1  0  0  0  0
 13 19  1  0  0  0  0
 14 15  1  6  0  0  0
 14 17  1  0  0  0  0
 15 16  2  0  0  0  0
 17 18  1  0  0  0  0
 19 18  1  6  0  0  0
M  END
>  <CHROM.1>
57.72205337,70.39952804,3.29702608,-0.07647964,0.66305403,0.73779567,-1.08770562
0.40821616

>  <Name>
ligand

>  <RI>
0

>  <Rbt.Current_Directory>
/home/itssahil/PROJECTS/Mol_Feturizer/New_Systems/rnas/3SKI

>  <Rbt.Executable>
rbdock ($Id: //depot/dev/client3/rdock/2013.1/src/exe/rbdock.cxx#4 $)

>  <Rbt.Library>
libRbt.so (2013.1, Build901 2013/11/27)

>  <Rbt.Parameter_File>
/export/apps/rDock/src/rDock_2013.1_src/data/scripts/dock_solv.prm

>  <Rbt.Receptor>
prm/blind_docking_20.prm

>  <SCORE>
-13.6607

>  <SCORE.INTER>
-10.1107

>  <SCORE.INTER.CONST>
1

>  <SCORE.INTER.POLAR>
0

>  <SCORE.INTER.ROT>
2

>  <SCORE.INTER.SOLV>
8.64931

>  <SCORE.INTER.VDW>
-14.5569

>  <SCORE.INTER.norm>
-0.53214

>  <SCORE.INTRA>
-3.55

>  <SCORE.INTRA.DIHEDRAL>
-5.03828

>  <SCORE.INTRA.DIHEDRAL.0>
6.26853

>  <SCORE.INTRA.POLAR>
0

>  <SCORE.INTRA.POLAR.0>
0

>  <SCORE.INTRA.REPUL>
0

>  <SCORE.INTRA.REPUL.0>
0

>  <SCORE.INTRA.SOLV>
0.016366

>  <SCORE.INTRA.SOLV.lig_0>
-38.4926

>  <SCORE.INTRA.VDW>
-1.03904

>  <SCORE.INTRA.VDW.0>
-0.59057

>  <SCORE.INTRA.norm>
-0.186842

>  <SCORE.RESTR>
0

>  <SCORE.RESTR.CAVITY>
0

>  <SCORE.RESTR.norm>
0

>  <SCORE.SYSTEM>
0

>  <SCORE.SYSTEM.CONST>
0

>  <SCORE.SYSTEM.DIHEDRAL>
0

>  <SCORE.SYSTEM.SOLV>
0

>  <SCORE.SYSTEM.norm>
0

>  <SCORE.heavy>
19

>  <SCORE.norm>
-0.718982

>  <RMSD>
14.689

$$$$
ligand
 OpenBabel11021811483D
libRbt.so/2013.1/901 2013/11/27
 19 21  0  0  0  0  0  0  0  0999 V2000
  -13.7956    1.2153   -1.4566 C   0  0  0  0  0  0  0  0  0  0  0  0
  -14.4772    1.3499   -0.2006 O   0  0  0  0  0  0  0  0  0  0  0  0
  -14.0194   -0.1826   -2.0377 C   0  0  1  0  0  0  0  0  0  0  0  0
  -13.3825   -0.3078   -3.3236 O   0  0  0  0  0  0  0  0  0  0  0  0
  -13.4235   -1.2502   -1.1371 C   0  0  1  0  0  0  0  0  0  0  0  0
  -14.4442   -1.9314   -0.3972 O   0  0  0  0  0  0  0  0  0  0  0  0
  -12.7054   -2.2121   -2.0586 C   0  0  0  0  0  0  0  0  0  0  0  0
  -12.5746   -1.4920   -3.3927 C   0  0  2  0  0  0  0  0  0  0  0  0
   -9.0217    2.3735   -3.2245 N   0  0  0  0  0  0  0  0  0  0  0  0
  -10.3393    2.3869   -2.8868 C   0  0  1  0  0  0  0  0  0  0  0  0
  -10.8903    3.5368   -2.4306 N   0  0  0  0  0  0  0  0  0  0  0  0
  -11.1158    1.2751   -3.0006 N   0  0  0  0  0  0  0  0  0  0  0  0
  -10.6127    0.0955   -3.4554 C   0  0  2  0  0  0  0  0  0  0  0  0
   -9.2789    0.0226   -3.8147 C   0  0  1  0  0  0  0  0  0  0  0  0
   -8.4421    1.2425   -3.6838 C   0  0  0  0  0  0  0  0  0  0  0  0
   -7.2290    1.2251   -3.9906 O   0  0  0  0  0  0  0  0  0  0  0  0
   -9.0313   -1.2351   -4.2198 N   0  0  0  0  0  0  0  0  0  0  0  0
  -10.1893   -1.9291   -4.1209 C   0  0  0  0  0  0  0  0  0  0  0  0
  -11.1541   -1.1153   -3.6549 N   0  0  1  0  0  0  0  0  0  0  0  0
  1  2  1  0  0  0  0
  3  1  1  1  0  0  0
  3  4  1  0  0  0  0
  3  5  1  0  0  0  0
  5  6  1  6  0  0  0
  5  7  1  0  0  0  0
  7  8  1  0  0  0  0
  8  4  1  1  0  0  0
  8 19  1  0  0  0  0
  9 15  1  0  0  0  0
  9 10  1  0  0  0  0
 10 11  1  6  0  0  0
 10 12  1  0  0  0  0
 13 12  1  6  0  0  0
 13 14  1  0  0  0  0
 13 19  1  0  0  0  0
 14 15  1  1  0  0  0
 14 17  1  0  0  0  0
 15 16  2  0  0  0  0
 17 18  1  0  0  0  0
 19 18  1  1  0  0  0
M  END
>  <CHROM.1>
177.71392003,19.04833242,-11.44510162,0.16415865,-2.71316663,2.97111648,-0.48857657
-2.89296890

>  <Name>
ligand

>  <RI>
0

>  <Rbt.Current_Directory>
/home/itssahil/PROJECTS/Mol_Feturizer/New_Systems/rnas/3SKI

>  <Rbt.Executable>
rbdock ($Id: //depot/dev/client3/rdock/2013.1/src/exe/rbdock.cxx#4 $)

>  <Rbt.Library>
libRbt.so (2013.1, Build901 2013/11/27)

>  <Rbt.Parameter_File>
/export/apps/rDock/src/rDock_2013.1_src/data/scripts/dock_solv.prm

>  <Rbt.Receptor>
prm/blind_docking_60.prm

>  <SCORE>
-16.9804

>  <SCORE.INTER>
-14.0128

>  <SCORE.INTER.CONST>
1

>  <SCORE.INTER.POLAR>
0

>  <SCORE.INTER.ROT>
2

>  <SCORE.INTER.SOLV>
12.5777

>  <SCORE.INTER.VDW>
-18.4677

>  <SCORE.INTER.norm>
-0.737514

>  <SCORE.INTRA>
-2.96763

>  <SCORE.INTRA.DIHEDRAL>
-5.06307

>  <SCORE.INTRA.DIHEDRAL.0>
6.26853

>  <SCORE.INTRA.POLAR>
0

>  <SCORE.INTRA.POLAR.0>
0

>  <SCORE.INTRA.REPUL>
0

>  <SCORE.INTRA.REPUL.0>
0

>  <SCORE.INTRA.SOLV>
1.07198

>  <SCORE.INTRA.SOLV.lig_0>
-38.4926

>  <SCORE.INTRA.VDW>
-0.97209

>  <SCORE.INTRA.VDW.0>
-0.59057

>  <SCORE.INTRA.norm>
-0.156191

>  <SCORE.RESTR>
0

>  <SCORE.RESTR.CAVITY>
0

>  <SCORE.RESTR.norm>
0

>  <SCORE.SYSTEM>
0

>  <SCORE.SYSTEM.CONST>
0

>  <SCORE.SYSTEM.DIHEDRAL>
0

>  <SCORE.SYSTEM.SOLV>
0

>  <SCORE.SYSTEM.norm>
0

>  <SCORE.heavy>
19

>  <SCORE.norm>
-0.893705

>  <RMSD>
14.708

$$$$
ligand
 OpenBabel11021811483D
libRbt.so/2013.1/901 2013/11/27
 19 21  0  0  0  0  0  0  0  0999 V2000
  -13.7880    1.1594   -1.5517 C   0  0  0  0  0  0  0  0  0  0  0  0
  -14.4674    1.3031   -0.2955 O   0  0  0  0  0  0  0  0  0  0  0  0
  -13.9868   -0.2527   -2.1069 C   0  0  1  0  0  0  0  0  0  0  0  0
  -13.3342   -0.3948   -3.3832 O   0  0  0  0  0  0  0  0  0  0  0  0
  -13.3866   -1.2939   -1.1788 C   0  0  1  0  0  0  0  0  0  0  0  0
  -14.4062   -1.9741   -0.4363 O   0  0  0  0  0  0  0  0  0  0  0  0
  -12.6457   -2.2642   -2.0730 C   0  0  0  0  0  0  0  0  0  0  0  0
  -12.5099   -1.5691   -3.4199 C   0  0  2  0  0  0  0  0  0  0  0  0
   -9.0041    2.3396   -3.2637 N   0  0  0  0  0  0  0  0  0  0  0  0
  -10.3245    2.3411   -2.9370 C   0  0  1  0  0  0  0  0  0  0  0  0
  -10.8927    3.4892   -2.4977 N   0  0  0  0  0  0  0  0  0  0  0  0
  -11.0869    1.2190   -3.0453 N   0  0  0  0  0  0  0  0  0  0  0  0
  -10.5662    0.0407   -3.4834 C   0  0  2  0  0  0  0  0  0  0  0  0
   -9.2288   -0.0203   -3.8308 C   0  0  1  0  0  0  0  0  0  0  0  0
   -8.4074    1.2107   -3.7061 C   0  0  0  0  0  0  0  0  0  0  0  0
   -7.1916    1.2044   -4.0027 O   0  0  0  0  0  0  0  0  0  0  0  0
   -8.9631   -1.2792   -4.2204 N   0  0  0  0  0  0  0  0  0  0  0  0
  -10.1136   -1.9857   -4.1236 C   0  0  0  0  0  0  0  0  0  0  0  0
  -11.0918   -1.1785   -3.6743 N   0  0  1  0  0  0  0  0  0  0  0  0
  1  2  1  0  0  0  0
  3  1  1  1  0  0  0
  3  4  1  0  0  0  0
  3  5  1  0  0  0  0
  5  6  1  6  0  0  0
  5  7  1  0  0  0  0
  7  8  1  0  0  0  0
  8  4  1  1  0  0  0
  8 19  1  0  0  0  0
  9 15  1  0  0  0  0
  9 10  1  0  0  0  0
 10 11  1  6  0  0  0
 10 12  1  0  0  0  0
 13 12  1  6  0  0  0
 13 14  1  0  0  0  0
 13 19  1  0  0  0  0
 14 15  1  1  0  0  0
 14 17  1  0  0  0  0
 15 16  2  0  0  0  0
 17 18  1  0  0  0  0
 19 18  1  1  0  0  0
M  END
>  <CHROM.1>
178.63497657,19.61268171,-11.40705090,0.11297330,-2.75317087,2.95830265,-0.48053579
-2.91138929

>  <Name>
ligand

>  <RI>
0

>  <Rbt.Current_Directory>
/home/itssahil/PROJECTS/Mol_Feturizer/New_Systems/rnas/3SKI

>  <Rbt.Executable>
rbdock ($Id: //depot/dev/client3/rdock/2013.1/src/exe/rbdock.cxx#4 $)

>  <Rbt.Library>
libRbt.so (2013.1, Build901 2013/11/27)

>  <Rbt.Parameter_File>
/export/apps/rDock/src/rDock_2013.1_src/data/scripts/dock_solv.prm

>  <Rbt.Receptor>
prm/blind_docking_100.prm

>  <SCORE>
-17.1272

>  <SCORE.INTER>
-14.1622

>  <SCORE.INTER.CONST>
1

>  <SCORE.INTER.POLAR>
0

>  <SCORE.INTER.ROT>
2

>  <SCORE.INTER.SOLV>
12.7758

>  <SCORE.INTER.VDW>
-18.6334

>  <SCORE.INTER.norm>
-0.745376

>  <SCORE.INTRA>
-2.96502

>  <SCORE.INTRA.DIHEDRAL>
-5.07518

>  <SCORE.INTRA.DIHEDRAL.0>
6.26853

>  <SCORE.INTRA.POLAR>
0

>  <SCORE.INTRA.POLAR.0>
0

>  <SCORE.INTRA.REPUL>
0

>  <SCORE.INTRA.REPUL.0>
0

>  <SCORE.INTRA.SOLV>
1.08805

>  <SCORE.INTRA.SOLV.lig_0>
-38.4926

>  <SCORE.INTRA.VDW>
-0.971456

>  <SCORE.INTRA.VDW.0>
-0.59057

>  <SCORE.INTRA.norm>
-0.156054

>  <SCORE.RESTR>
0

>  <SCORE.RESTR.CAVITY>
0

>  <SCORE.RESTR.norm>
0

>  <SCORE.SYSTEM>
0

>  <SCORE.SYSTEM.CONST>
0

>  <SCORE.SYSTEM.DIHEDRAL>
0

>  <SCORE.SYSTEM.SOLV>
0

>  <SCORE.SYSTEM.norm>
0

>  <SCORE.heavy>
19

>  <SCORE.norm>
-0.90143

>  <RMSD>
14.716

$$$$
ligand
 OpenBabel11021811483D
libRbt.so/2013.1/901 2013/11/27
 19 21  0  0  0  0  0  0  0  0999 V2000
  -12.9022   -0.6442   -2.3450 C   0  0  0  0  0  0  0  0  0  0  0  0
  -12.9768   -2.0284   -1.9727 O   0  0  0  0  0  0  0  0  0  0  0  0
  -11.8726   -0.4467   -3.4598 C   0  0  1  0  0  0  0  0  0  0  0  0
  -11.8279    0.9323   -3.8735 O   0  0  0  0  0  0  0  0  0  0  0  0
  -10.4780   -0.8177   -2.9871 C   0  0  1  0  0  0  0  0  0  0  0  0
  -10.0745   -2.0881   -3.5132 O   0  0  0  0  0  0  0  0  0  0  0  0
   -9.5665    0.2791   -3.4934 C   0  0  0  0  0  0  0  0  0  0  0  0
  -10.4805    1.4257   -3.9004 C   0  0  2  0  0  0  0  0  0  0  0  0
  -12.5264    3.8293    0.2984 N   0  0  0  0  0  0  0  0  0  0  0  0
  -12.9473    2.7145   -0.3575 C   0  0  1  0  0  0  0  0  0  0  0  0
  -14.0567    2.0727    0.0800 N   0  0  0  0  0  0  0  0  0  0  0  0
  -12.2834    2.2328   -1.4434 N   0  0  0  0  0  0  0  0  0  0  0  0
  -11.1654    2.8407   -1.9251 C   0  0  2  0  0  0  0  0  0  0  0  0
  -10.6911    3.9791   -1.2986 C   0  0  1  0  0  0  0  0  0  0  0  0
  -11.4238    4.4932   -0.1135 C   0  0  0  0  0  0  0  0  0  0  0  0
  -11.0307    5.5162    0.4906 O   0  0  0  0  0  0  0  0  0  0  0  0
   -9.5873    4.3784   -1.9539 N   0  0  0  0  0  0  0  0  0  0  0  0
   -9.3825    3.5097   -2.9715 C   0  0  0  0  0  0  0  0  0  0  0  0
  -10.3472    2.5719   -2.9533 N   0  0  1  0  0  0  0  0  0  0  0  0
  1  2  1  0  0  0  0
  3  1  1  1  0  0  0
  3  4  1  0  0  0  0
  3  5  1  0  0  0  0
  5  6  1  6  0  0  0
  5  7  1  0  0  0  0
  7  8  1  0  0  0  0
  8  4  1  1  0  0  0
  8 19  1  0  0  0  0
  9 15  1  0  0  0  0
  9 10  1  0  0  0  0
 10 11  1  6  0  0  0
 10 12  1  0  0  0  0
 13 12  1  6  0  0  0
 13 14  1  0  0  0  0
 13 19  1  0  0  0  0
 14 15  1  1  0  0  0
 14 17  1  0  0  0  0
 15 16  2  0  0  0  0
 17 18  1  0  0  0  0
 19 18  1  1  0  0  0
M  END
>  <CHROM.1>
177.84938143,20.51713027,-11.36561687,1.74664354,-1.99932388,1.55427683,-0.63155873
-2.67812550

>  <Name>
ligand

>  <RI>
0

>  <Rbt.Current_Directory>
/home/itssahil/PROJECTS/Mol_Feturizer/New_Systems/rnas/3SKI

>  <Rbt.Executable>
rbdock ($Id: //depot/dev/client3/rdock/2013.1/src/exe/rbdock.cxx#4 $)

>  <Rbt.Library>
libRbt.so (2013.1, Build901 2013/11/27)

>  <Rbt.Parameter_File>
/export/apps/rDock/src/rDock_2013.1_src/data/scripts/dock_solv.prm

>  <Rbt.Receptor>
prm/blind_docking_80.prm

>  <SCORE>
-17.0603

>  <SCORE.INTER>
-14.0903

>  <SCORE.INTER.CONST>
1

>  <SCORE.INTER.POLAR>
0

>  <SCORE.INTER.ROT>
2

>  <SCORE.INTER.SOLV>
11.4254

>  <SCORE.INTER.VDW>
-18.1354

>  <SCORE.INTER.norm>
-0.741597

>  <SCORE.INTRA>
-2.96995

>  <SCORE.INTRA.DIHEDRAL>
-5.06594

>  <SCORE.INTRA.DIHEDRAL.0>
6.26853

>  <SCORE.INTRA.POLAR>
0

>  <SCORE.INTRA.POLAR.0>
0

>  <SCORE.INTRA.REPUL>
0

>  <SCORE.INTRA.REPUL.0>
0

>  <SCORE.INTRA.SOLV>
1.10163

>  <SCORE.INTRA.SOLV.lig_0>
-38.4926

>  <SCORE.INTRA.VDW>
-0.987795

>  <SCORE.INTRA.VDW.0>
-0.59057

>  <SCORE.INTRA.norm>
-0.156313

>  <SCORE.RESTR>
0

>  <SCORE.RESTR.CAVITY>
0

>  <SCORE.RESTR.norm>
0

>  <SCORE.SYSTEM>
0

>  <SCORE.SYSTEM.CONST>
0

>  <SCORE.SYSTEM.DIHEDRAL>
0

>  <SCORE.SYSTEM.SOLV>
0

>  <SCORE.SYSTEM.norm>
0

>  <SCORE.heavy>
19

>  <SCORE.norm>
-0.89791

>  <RMSD>
14.731

$$$$
ligand
 OpenBabel11021811483D
libRbt.so/2013.1/901 2013/11/27
 19 21  0  0  0  0  0  0  0  0999 V2000
  -12.8710   -0.6550   -2.3507 C   0  0  0  0  0  0  0  0  0  0  0  0
  -12.9621   -2.0462   -2.0093 O   0  0  0  0  0  0  0  0  0  0  0  0
  -11.8455   -0.4461   -3.4672 C   0  0  1  0  0  0  0  0  0  0  0  0
  -11.8137    0.9343   -3.8780 O   0  0  0  0  0  0  0  0  0  0  0  0
  -10.4467   -0.8060   -2.9984 C   0  0  1  0  0  0  0  0  0  0  0  0
  -10.0334   -2.0717   -3.5283 O   0  0  0  0  0  0  0  0  0  0  0  0
   -9.5459    0.2998   -3.5041 C   0  0  0  0  0  0  0  0  0  0  0  0
  -10.4706    1.4393   -3.9065 C   0  0  2  0  0  0  0  0  0  0  0  0
  -12.5382    3.8251    0.2918 N   0  0  0  0  0  0  0  0  0  0  0  0
  -12.9520    2.7094   -0.3670 C   0  0  1  0  0  0  0  0  0  0  0  0
  -14.0592    2.0613    0.0668 N   0  0  0  0  0  0  0  0  0  0  0  0
  -12.2832    2.2330   -1.4523 N   0  0  0  0  0  0  0  0  0  0  0  0
  -11.1671    2.8474   -1.9303 C   0  0  2  0  0  0  0  0  0  0  0  0
  -10.7000    3.9870   -1.3007 C   0  0  1  0  0  0  0  0  0  0  0  0
  -11.4380    4.4952   -0.1164 C   0  0  0  0  0  0  0  0  0  0  0  0
  -11.0514    5.5191    0.4905 O   0  0  0  0  0  0  0  0  0  0  0  0
   -9.5967    4.3929   -1.9527 N   0  0  0  0  0  0  0  0  0  0  0  0
   -9.3852    3.5271   -2.9714 C   0  0  0  0  0  0  0  0  0  0  0  0
  -10.3452    2.5845   -2.9571 N   0  0  1  0  0  0  0  0  0  0  0  0
  1  2  1  0  0  0  0
  3  1  1  1  0  0  0
  3  4  1  0  0  0  0
  3  5  1  0  0  0  0
  5  6  1  6  0  0  0
  5  7  1  0  0  0  0
  7  8  1  0  0  0  0
  8  4  1  1  0  0  0
  8 19  1  0  0  0  0
  9 15  1  0  0  0  0
  9 10  1  0  0  0  0
 10 11  1  6  0  0  0
 10 12  1  0  0  0  0
 13 12  1  6  0  0  0
 13 14  1  0  0  0  0
 13 19  1  0  0  0  0
 14 15  1  1  0  0  0
 14 17  1  0  0  0  0
 15 16  2  0  0  0  0
 17 18  1  0  0  0  0
 19 18  1  1  0  0  0
M  END
>  <CHROM.1>
176.11321977,20.18629409,-11.35906013,1.75064520,-2.00747986,1.54624559,-0.63079588
-2.68124876

>  <Name>
ligand

>  <RI>
0

>  <Rbt.Current_Directory>
/home/itssahil/PROJECTS/Mol_Feturizer/New_Systems/rnas/3SKI

>  <Rbt.Executable>
rbdock ($Id: //depot/dev/client3/rdock/2013.1/src/exe/rbdock.cxx#4 $)

>  <Rbt.Library>
libRbt.so (2013.1, Build901 2013/11/27)

>  <Rbt.Parameter_File>
/export/apps/rDock/src/rDock_2013.1_src/data/scripts/dock_solv.prm

>  <Rbt.Receptor>
prm/blind_docking_80.prm

>  <SCORE>
-17.0329

>  <SCORE.INTER>
-14.0654

>  <SCORE.INTER.CONST>
1

>  <SCORE.INTER.POLAR>
0

>  <SCORE.INTER.ROT>
2

>  <SCORE.INTER.SOLV>
11.4397

>  <SCORE.INTER.VDW>
-18.1235

>  <SCORE.INTER.norm>
-0.740283

>  <SCORE.INTRA>
-2.9675

>  <SCORE.INTRA.DIHEDRAL>
-5.02867

>  <SCORE.INTRA.DIHEDRAL.0>
6.26853

>  <SCORE.INTRA.POLAR>
0

>  <SCORE.INTRA.POLAR.0>
0

>  <SCORE.INTRA.REPUL>
0

>  <SCORE.INTRA.REPUL.0>
0

>  <SCORE.INTRA.SOLV>
1.08668

>  <SCORE.INTRA.SOLV.lig_0>
-38.4926

>  <SCORE.INTRA.VDW>
-0.996504

>  <SCORE.INTRA.VDW.0>
-0.59057

>  <SCORE.INTRA.norm>
-0.156184

>  <SCORE.RESTR>
0

>  <SCORE.RESTR.CAVITY>
0

>  <SCORE.RESTR.norm>
0

>  <SCORE.SYSTEM>
0

>  <SCORE.SYSTEM.CONST>
0

>  <SCORE.SYSTEM.DIHEDRAL>
0

>  <SCORE.SYSTEM.SOLV>
0

>  <SCORE.SYSTEM.norm>
0

>  <SCORE.heavy>
19

>  <SCORE.norm>
-0.896467

>  <RMSD>
14.740

$$$$
ligand
 OpenBabel11021811483D
libRbt.so/2013.1/901 2013/11/27
 19 21  0  0  0  0  0  0  0  0999 V2000
    3.6304   -0.6405    0.3338 C   0  0  0  0  0  0  0  0  0  0  0  0
    3.0788   -1.9527    0.5187 O   0  0  0  0  0  0  0  0  0  0  0  0
    2.7983    0.3988    1.0882 C   0  0  1  0  0  0  0  0  0  0  0  0
    2.8444    0.1558    2.5073 O   0  0  0  0  0  0  0  0  0  0  0  0
    3.3346    1.8005    0.8565 C   0  0  1  0  0  0  0  0  0  0  0  0
    2.5065    2.5259   -0.0609 O   0  0  0  0  0  0  0  0  0  0  0  0
    3.3354    2.4704    2.2134 C   0  0  0  0  0  0  0  0  0  0  0  0
    3.1729    1.3508    3.2310 C   0  0  2  0  0  0  0  0  0  0  0  0
    8.0048   -0.7069    3.1240 N   0  0  0  0  0  0  0  0  0  0  0  0
    7.0365   -0.7090    2.1687 C   0  0  1  0  0  0  0  0  0  0  0  0
    7.2824   -1.3161    0.9834 N   0  0  0  0  0  0  0  0  0  0  0  0
    5.8274   -0.1203    2.3779 N   0  0  0  0  0  0  0  0  0  0  0  0
    5.5285    0.5009    3.5510 C   0  0  2  0  0  0  0  0  0  0  0  0
    6.4746    0.5338    4.5594 C   0  0  1  0  0  0  0  0  0  0  0  0
    7.7906   -0.1107    4.3176 C   0  0  0  0  0  0  0  0  0  0  0  0
    8.6811   -0.1023    5.1969 O   0  0  0  0  0  0  0  0  0  0  0  0
    5.9439    1.2017    5.5984 N   0  0  0  0  0  0  0  0  0  0  0  0
    4.6903    1.5712    5.2460 C   0  0  0  0  0  0  0  0  0  0  0  0
    4.4377    1.1420    3.9961 N   0  0  1  0  0  0  0  0  0  0  0  0
  1  2  1  0  0  0  0
  3  1  1  6  0  0  0
  3  4  1  0  0  0  0
  3  5  1  0  0  0  0
  5  6  1  6  0  0  0
  5  7  1  0  0  0  0
  7  8  1  0  0  0  0
  8  4  1  6  0  0  0
  8 19  1  0  0  0  0
  9 15  1  0  0  0  0
  9 10  1  0  0  0  0
 10 11  1  1  0  0  0
 10 12  1  0  0  0  0
 13 12  1  1  0  0  0
 13 14  1  0  0  0  0
 13 19  1  0  0  0  0
 14 15  1  6  0  0  0
 14 17  1  0  0  0  0
 15 16  2  0  0  0  0
 17 18  1  0  0  0  0
 19 18  1  6  0  0  0
M  END
>  <CHROM.1>
63.43841308,41.01618824,5.02446805,0.40648654,2.66944929,-2.71967425,-0.51350905
0.98377884

>  <Name>
ligand

>  <RI>
0

>  <Rbt.Current_Directory>
/home/itssahil/PROJECTS/Mol_Feturizer/New_Systems/rnas/3SKI

>  <Rbt.Executable>
rbdock ($Id: //depot/dev/client3/rdock/2013.1/src/exe/rbdock.cxx#4 $)

>  <Rbt.Library>
libRbt.so (2013.1, Build901 2013/11/27)

>  <Rbt.Parameter_File>
/export/apps/rDock/src/rDock_2013.1_src/data/scripts/dock_solv.prm

>  <Rbt.Receptor>
prm/blind_docking_80.prm

>  <SCORE>
-12.6736

>  <SCORE.INTER>
-9.30771

>  <SCORE.INTER.CONST>
1

>  <SCORE.INTER.POLAR>
0

>  <SCORE.INTER.ROT>
2

>  <SCORE.INTER.SOLV>
15.6975

>  <SCORE.INTER.VDW>
-16.371

>  <SCORE.INTER.norm>
-0.489879

>  <SCORE.INTRA>
-3.36588

>  <SCORE.INTRA.DIHEDRAL>
-5.03756

>  <SCORE.INTRA.DIHEDRAL.0>
6.26853

>  <SCORE.INTRA.POLAR>
0

>  <SCORE.INTRA.POLAR.0>
0

>  <SCORE.INTRA.REPUL>
0

>  <SCORE.INTRA.REPUL.0>
0

>  <SCORE.INTRA.SOLV>
0.994868

>  <SCORE.INTRA.SOLV.lig_0>
-38.4926

>  <SCORE.INTRA.VDW>
-1.34453

>  <SCORE.INTRA.VDW.0>
-0.59057

>  <SCORE.INTRA.norm>
-0.177151

>  <SCORE.RESTR>
0

>  <SCORE.RESTR.CAVITY>
0

>  <SCORE.RESTR.norm>
0

>  <SCORE.SYSTEM>
0

>  <SCORE.SYSTEM.CONST>
0

>  <SCORE.SYSTEM.DIHEDRAL>
0

>  <SCORE.SYSTEM.SOLV>
0

>  <SCORE.SYSTEM.norm>
0

>  <SCORE.heavy>
19

>  <SCORE.norm>
-0.667031

>  <RMSD>
14.795

$$$$
ligand
 OpenBabel11021811483D
libRbt.so/2013.1/901 2013/11/27
 19 21  0  0  0  0  0  0  0  0999 V2000
  -13.8020    1.1444   -1.5530 C   0  0  0  0  0  0  0  0  0  0  0  0
  -14.5134    1.2653   -0.3122 O   0  0  0  0  0  0  0  0  0  0  0  0
  -13.9809   -0.2593   -2.1356 C   0  0  1  0  0  0  0  0  0  0  0  0
  -13.1999   -0.4161   -3.3358 O   0  0  0  0  0  0  0  0  0  0  0  0
  -13.5137   -1.3210   -1.1556 C   0  0  1  0  0  0  0  0  0  0  0  0
  -14.6262   -1.9734   -0.5308 O   0  0  0  0  0  0  0  0  0  0  0  0
  -12.7098   -2.3095   -1.9720 C   0  0  0  0  0  0  0  0  0  0  0  0
  -12.4106   -1.6140   -3.2920 C   0  0  2  0  0  0  0  0  0  0  0  0
   -8.9366    2.2360   -4.1300 N   0  0  0  0  0  0  0  0  0  0  0  0
  -10.2962    2.2777   -4.1182 C   0  0  1  0  0  0  0  0  0  0  0  0
  -10.9207    3.4565   -4.3511 N   0  0  0  0  0  0  0  0  0  0  0  0
  -11.0416    1.1637   -3.8827 N   0  0  0  0  0  0  0  0  0  0  0  0
  -10.4643   -0.0454   -3.6454 C   0  0  2  0  0  0  0  0  0  0  0  0
   -9.0850   -0.1483   -3.6459 C   0  0  1  0  0  0  0  0  0  0  0  0
   -8.2832    1.0753   -3.9023 C   0  0  0  0  0  0  0  0  0  0  0  0
   -7.0325    1.0342   -3.9072 O   0  0  0  0  0  0  0  0  0  0  0  0
   -8.7689   -1.4285   -3.3840 N   0  0  0  0  0  0  0  0  0  0  0  0
   -9.9284   -2.1098   -3.2301 C   0  0  0  0  0  0  0  0  0  0  0  0
  -10.9627   -1.2644   -3.3908 N   0  0  1  0  0  0  0  0  0  0  0  0
  1  2  1  0  0  0  0
  3  1  1  1  0  0  0
  3  4  1  0  0  0  0
  3  5  1  0  0  0  0
  5  6  1  6  0  0  0
  5  7  1  0  0  0  0
  7  8  1  0  0  0  0
  8  4  1  1  0  0  0
  8 19  1  0  0  0  0
  9 15  1  0  0  0  0
  9 10  1  0  0  0  0
 10 11  1  6  0  0  0
 10 12  1  0  0  0  0
 13 12  1  6  0  0  0
 13 14  1  0  0  0  0
 13 19  1  0  0  0  0
 14 15  1  1  0  0  0
 14 17  1  0  0  0  0
 15 16  2  0  0  0  0
 17 18  1  0  0  0  0
 19 18  1  1  0  0  0
M  END
>  <CHROM.1>
-176.26669047,-7.54238318,-11.36194954,0.04423148,-2.89167219,2.77210022
-0.41947739,2.98681717

>  <Name>
ligand

>  <RI>
0

>  <Rbt.Current_Directory>
/home/itssahil/PROJECTS/Mol_Feturizer/New_Systems/rnas/3SKI

>  <Rbt.Executable>
rbdock ($Id: //depot/dev/client3/rdock/2013.1/src/exe/rbdock.cxx#4 $)

>  <Rbt.Library>
libRbt.so (2013.1, Build901 2013/11/27)

>  <Rbt.Parameter_File>
/export/apps/rDock/src/rDock_2013.1_src/data/scripts/dock_solv.prm

>  <Rbt.Receptor>
prm/blind_docking_20.prm

>  <SCORE>
-15.5681

>  <SCORE.INTER>
-12.7111

>  <SCORE.INTER.CONST>
1

>  <SCORE.INTER.POLAR>
0

>  <SCORE.INTER.ROT>
2

>  <SCORE.INTER.SOLV>
19.4237

>  <SCORE.INTER.VDW>
-19.882

>  <SCORE.INTER.norm>
-0.669008

>  <SCORE.INTRA>
-2.85699

>  <SCORE.INTRA.DIHEDRAL>
-5.00663

>  <SCORE.INTRA.DIHEDRAL.0>
6.26853

>  <SCORE.INTRA.POLAR>
0

>  <SCORE.INTRA.POLAR.0>
0

>  <SCORE.INTRA.REPUL>
0

>  <SCORE.INTRA.REPUL.0>
0

>  <SCORE.INTRA.SOLV>
0.157976

>  <SCORE.INTRA.SOLV.lig_0>
-38.4926

>  <SCORE.INTRA.VDW>
-0.43266

>  <SCORE.INTRA.VDW.0>
-0.59057

>  <SCORE.INTRA.norm>
-0.150368

>  <SCORE.RESTR>
0

>  <SCORE.RESTR.CAVITY>
0

>  <SCORE.RESTR.norm>
0

>  <SCORE.SYSTEM>
0

>  <SCORE.SYSTEM.CONST>
0

>  <SCORE.SYSTEM.DIHEDRAL>
0

>  <SCORE.SYSTEM.SOLV>
0

>  <SCORE.SYSTEM.norm>
0

>  <SCORE.heavy>
19

>  <SCORE.norm>
-0.819375

>  <RMSD>
14.823

$$$$
ligand
 OpenBabel11021811483D
libRbt.so/2013.1/901 2013/11/27
 19 21  0  0  0  0  0  0  0  0999 V2000
  -13.7978    1.3294   -1.2619 C   0  0  0  0  0  0  0  0  0  0  0  0
  -14.9929    2.1230   -1.3090 O   0  0  0  0  0  0  0  0  0  0  0  0
  -14.0233   -0.0157   -1.9558 C   0  0  1  0  0  0  0  0  0  0  0  0
  -13.3924   -0.0330   -3.2507 O   0  0  0  0  0  0  0  0  0  0  0  0
  -13.4220   -1.1536   -1.1497 C   0  0  1  0  0  0  0  0  0  0  0  0
  -14.4387   -1.8952   -0.4641 O   0  0  0  0  0  0  0  0  0  0  0  0
  -12.7077   -2.0348   -2.1512 C   0  0  0  0  0  0  0  0  0  0  0  0
  -12.5839   -1.2064   -3.4216 C   0  0  2  0  0  0  0  0  0  0  0  0
   -9.0796    2.6957   -3.1261 N   0  0  0  0  0  0  0  0  0  0  0  0
  -10.4011    2.6863   -2.8040 C   0  0  1  0  0  0  0  0  0  0  0  0
  -10.9711    3.8194   -2.3294 N   0  0  0  0  0  0  0  0  0  0  0  0
  -11.1629    1.5683   -2.9515 N   0  0  0  0  0  0  0  0  0  0  0  0
  -10.6404    0.4049   -3.4259 C   0  0  2  0  0  0  0  0  0  0  0  0
   -9.3018    0.3555   -3.7706 C   0  0  1  0  0  0  0  0  0  0  0  0
   -8.4811    1.5819   -3.6030 C   0  0  0  0  0  0  0  0  0  0  0  0
   -7.2644    1.5854   -3.8954 O   0  0  0  0  0  0  0  0  0  0  0  0
   -9.0344   -0.8900   -4.2002 N   0  0  0  0  0  0  0  0  0  0  0  0
  -10.1851   -1.5995   -4.1304 C   0  0  0  0  0  0  0  0  0  0  0  0
  -11.1650   -0.8075   -3.6583 N   0  0  1  0  0  0  0  0  0  0  0  0
  1  2  1  0  0  0  0
  3  1  1  1  0  0  0
  3  4  1  0  0  0  0
  3  5  1  0  0  0  0
  5  6  1  6  0  0  0
  5  7  1  0  0  0  0
  7  8  1  0  0  0  0
  8  4  1  1  0  0  0
  8 19  1  0  0  0  0
  9 15  1  0  0  0  0
  9 10  1  0  0  0  0
 10 11  1  6  0  0  0
 10 12  1  0  0  0  0
 13 12  1  6  0  0  0
 13 14  1  0  0  0  0
 13 19  1  0  0  0  0
 14 15  1  1  0  0  0
 14 17  1  0  0  0  0
 15 16  2  0  0  0  0
 17 18  1  0  0  0  0
 19 18  1  1  0  0  0
M  END
>  <CHROM.1>
104.43117217,15.36721937,-11.49744164,0.45288367,-2.74268410,2.90121129,-0.42980615
-2.96966489

>  <Name>
ligand

>  <RI>
0

>  <Rbt.Current_Directory>
/home/itssahil/PROJECTS/Mol_Feturizer/New_Systems/rnas/3SKI

>  <Rbt.Executable>
rbdock ($Id: //depot/dev/client3/rdock/2013.1/src/exe/rbdock.cxx#4 $)

>  <Rbt.Library>
libRbt.so (2013.1, Build901 2013/11/27)

>  <Rbt.Parameter_File>
/export/apps/rDock/src/rDock_2013.1_src/data/scripts/dock_solv.prm

>  <Rbt.Receptor>
prm/blind_docking_100.prm

>  <SCORE>
-14.0937

>  <SCORE.INTER>
-13.1192

>  <SCORE.INTER.CONST>
1

>  <SCORE.INTER.POLAR>
0

>  <SCORE.INTER.ROT>
2

>  <SCORE.INTER.SOLV>
13.3411

>  <SCORE.INTER.VDW>
-18.1265

>  <SCORE.INTER.norm>
-0.690484

>  <SCORE.INTRA>
-0.974478

>  <SCORE.INTRA.DIHEDRAL>
-0.628451

>  <SCORE.INTRA.DIHEDRAL.0>
6.26853

>  <SCORE.INTRA.POLAR>
0

>  <SCORE.INTRA.POLAR.0>
0

>  <SCORE.INTRA.REPUL>
0

>  <SCORE.INTRA.REPUL.0>
0

>  <SCORE.INTRA.SOLV>
0.681

>  <SCORE.INTRA.SOLV.lig_0>
-38.4926

>  <SCORE.INTRA.VDW>
-1.00075

>  <SCORE.INTRA.VDW.0>
-0.59057

>  <SCORE.INTRA.norm>
-0.0512883

>  <SCORE.RESTR>
0

>  <SCORE.RESTR.CAVITY>
0

>  <SCORE.RESTR.norm>
0

>  <SCORE.SYSTEM>
0

>  <SCORE.SYSTEM.CONST>
0

>  <SCORE.SYSTEM.DIHEDRAL>
0

>  <SCORE.SYSTEM.SOLV>
0

>  <SCORE.SYSTEM.norm>
0

>  <SCORE.heavy>
19

>  <SCORE.norm>
-0.741772

>  <RMSD>
14.826

$$$$
ligand
 OpenBabel11021811483D
libRbt.so/2013.1/901 2013/11/27
 19 21  0  0  0  0  0  0  0  0999 V2000
    3.9050    0.6606    2.6269 C   0  0  0  0  0  0  0  0  0  0  0  0
    2.7243    0.7838    3.4337 O   0  0  0  0  0  0  0  0  0  0  0  0
    4.5742   -0.6949    2.8647 C   0  0  1  0  0  0  0  0  0  0  0  0
    3.6998   -1.7705    2.4730 O   0  0  0  0  0  0  0  0  0  0  0  0
    5.8442   -0.8286    2.0430 C   0  0  1  0  0  0  0  0  0  0  0  0
    7.0092   -0.6639    2.8611 O   0  0  0  0  0  0  0  0  0  0  0  0
    5.8058   -2.2201    1.4495 C   0  0  0  0  0  0  0  0  0  0  0  0
    4.3734   -2.7054    1.6175 C   0  0  2  0  0  0  0  0  0  0  0  0
    2.3332    0.0836   -2.3387 N   0  0  0  0  0  0  0  0  0  0  0  0
    2.9348    0.5071   -1.1947 C   0  0  1  0  0  0  0  0  0  0  0  0
    3.0624    1.8367   -0.9713 N   0  0  0  0  0  0  0  0  0  0  0  0
    3.4063   -0.3724   -0.2694 N   0  0  0  0  0  0  0  0  0  0  0  0
    3.3014   -1.7178   -0.4438 C   0  0  2  0  0  0  0  0  0  0  0  0
    2.6979   -2.2066   -1.5883 C   0  0  1  0  0  0  0  0  0  0  0  0
    2.1894   -1.2362   -2.5910 C   0  0  0  0  0  0  0  0  0  0  0  0
    1.6411   -1.6295   -3.6448 O   0  0  0  0  0  0  0  0  0  0  0  0
    2.7242   -3.5492   -1.5247 N   0  0  0  0  0  0  0  0  0  0  0  0
    3.3261   -3.8889   -0.3608 C   0  0  0  0  0  0  0  0  0  0  0  0
    3.6773   -2.7698    0.2985 N   0  0  1  0  0  0  0  0  0  0  0  0
  1  2  1  0  0  0  0
  3  1  1  6  0  0  0
  3  4  1  0  0  0  0
  3  5  1  0  0  0  0
  5  6  1  1  0  0  0
  5  7  1  0  0  0  0
  7  8  1  0  0  0  0
  8  4  1  1  0  0  0
  8 19  1  0  0  0  0
  9 15  1  0  0  0  0
  9 10  1  0  0  0  0
 10 11  1  1  0  0  0
 10 12  1  0  0  0  0
 13 12  1  1  0  0  0
 13 14  1  0  0  0  0
 13 19  1  0  0  0  0
 14 15  1  6  0  0  0
 14 17  1  0  0  0  0
 15 16  2  0  0  0  0
 17 18  1  0  0  0  0
 19 18  1  6  0  0  0
M  END
>  <CHROM.1>
62.44052483,48.14303189,3.66188198,-1.14410888,0.31615053,0.49725480,-1.01217468
0.42340791

>  <Name>
ligand

>  <RI>
0

>  <Rbt.Current_Directory>
/home/itssahil/PROJECTS/Mol_Feturizer/New_Systems/rnas/3SKI

>  <Rbt.Executable>
rbdock ($Id: //depot/dev/client3/rdock/2013.1/src/exe/rbdock.cxx#4 $)

>  <Rbt.Library>
libRbt.so (2013.1, Build901 2013/11/27)

>  <Rbt.Parameter_File>
/export/apps/rDock/src/rDock_2013.1_src/data/scripts/dock_solv.prm

>  <Rbt.Receptor>
prm/blind_docking_60.prm

>  <SCORE>
-13.927

>  <SCORE.INTER>
-10.4161

>  <SCORE.INTER.CONST>
1

>  <SCORE.INTER.POLAR>
0

>  <SCORE.INTER.ROT>
2

>  <SCORE.INTER.SOLV>
5.46915

>  <SCORE.INTER.VDW>
-13.7005

>  <SCORE.INTER.norm>
-0.548217

>  <SCORE.INTRA>
-3.51088

>  <SCORE.INTRA.DIHEDRAL>
-5.05433

>  <SCORE.INTRA.DIHEDRAL.0>
6.26853

>  <SCORE.INTRA.POLAR>
0

>  <SCORE.INTRA.POLAR.0>
0

>  <SCORE.INTRA.REPUL>
0

>  <SCORE.INTRA.REPUL.0>
0

>  <SCORE.INTRA.SOLV>
0.799119

>  <SCORE.INTRA.SOLV.lig_0>
-38.4926

>  <SCORE.INTRA.VDW>
-1.38328

>  <SCORE.INTRA.VDW.0>
-0.59057

>  <SCORE.INTRA.norm>
-0.184783

>  <SCORE.RESTR>
0

>  <SCORE.RESTR.CAVITY>
0

>  <SCORE.RESTR.norm>
0

>  <SCORE.SYSTEM>
0

>  <SCORE.SYSTEM.CONST>
0

>  <SCORE.SYSTEM.DIHEDRAL>
0

>  <SCORE.SYSTEM.SOLV>
0

>  <SCORE.SYSTEM.norm>
0

>  <SCORE.heavy>
19

>  <SCORE.norm>
-0.733

>  <RMSD>
14.851

$$$$
ligand
 OpenBabel11021811483D
libRbt.so/2013.1/901 2013/11/27
 19 21  0  0  0  0  0  0  0  0999 V2000
    6.2450    0.9465    1.2141 C   0  0  0  0  0  0  0  0  0  0  0  0
    5.4029    2.0058    0.7357 O   0  0  0  0  0  0  0  0  0  0  0  0
    5.8145    0.5159    2.6181 C   0  0  1  0  0  0  0  0  0  0  0  0
    4.4978   -0.0678    2.5907 O   0  0  0  0  0  0  0  0  0  0  0  0
    6.7575   -0.5329    3.1808 C   0  0  1  0  0  0  0  0  0  0  0  0
    7.6373    0.0344    4.1595 O   0  0  0  0  0  0  0  0  0  0  0  0
    5.8725   -1.5863    3.8111 C   0  0  0  0  0  0  0  0  0  0  0  0
    4.4719   -1.3292    3.2747 C   0  0  2  0  0  0  0  0  0  0  0  0
    2.7287   -2.3988   -1.5637 N   0  0  0  0  0  0  0  0  0  0  0  0
    3.0136   -1.2007   -0.9862 C   0  0  1  0  0  0  0  0  0  0  0  0
    2.8455   -0.0662   -1.7064 N   0  0  0  0  0  0  0  0  0  0  0  0
    3.4585   -1.1156    0.2972 N   0  0  0  0  0  0  0  0  0  0  0  0
    3.6422   -2.2240    1.0647 C   0  0  2  0  0  0  0  0  0  0  0  0
    3.3679   -3.4700    0.5304 C   0  0  1  0  0  0  0  0  0  0  0  0
    2.8849   -3.5490   -0.8718 C   0  0  0  0  0  0  0  0  0  0  0  0
    2.6287   -4.6534   -1.4015 O   0  0  0  0  0  0  0  0  0  0  0  0
    3.6327   -4.3890    1.4752 N   0  0  0  0  0  0  0  0  0  0  0  0
    4.0570   -3.7277    2.5774 C   0  0  0  0  0  0  0  0  0  0  0  0
    4.0616   -2.4059    2.3257 N   0  0  1  0  0  0  0  0  0  0  0  0
  1  2  1  0  0  0  0
  3  1  1  6  0  0  0
  3  4  1  0  0  0  0
  3  5  1  0  0  0  0
  5  6  1  1  0  0  0
  5  7  1  0  0  0  0
  7  8  1  0  0  0  0
  8  4  1  6  0  0  0
  8 19  1  0  0  0  0
  9 15  1  0  0  0  0
  9 10  1  0  0  0  0
 10 11  1  1  0  0  0
 10 12  1  0  0  0  0
 13 12  1  1  0  0  0
 13 14  1  0  0  0  0
 13 19  1  0  0  0  0
 14 15  1  6  0  0  0
 14 17  1  0  0  0  0
 15 16  2  0  0  0  0
 17 18  1  0  0  0  0
 19 18  1  6  0  0  0
M  END
>  <CHROM.1>
65.27113115,-6.52202566,4.41270362,-1.47373226,1.24565228,0.13792367,-0.96573015
-0.55928551

>  <Name>
ligand

>  <RI>
0

>  <Rbt.Current_Directory>
/home/itssahil/PROJECTS/Mol_Feturizer/New_Systems/rnas/3SKI

>  <Rbt.Executable>
rbdock ($Id: //depot/dev/client3/rdock/2013.1/src/exe/rbdock.cxx#4 $)

>  <Rbt.Library>
libRbt.so (2013.1, Build901 2013/11/27)

>  <Rbt.Parameter_File>
/export/apps/rDock/src/rDock_2013.1_src/data/scripts/dock_solv.prm

>  <Rbt.Receptor>
prm/blind_docking_80.prm

>  <SCORE>
-15.8038

>  <SCORE.INTER>
-12.7177

>  <SCORE.INTER.CONST>
1

>  <SCORE.INTER.POLAR>
0

>  <SCORE.INTER.ROT>
2

>  <SCORE.INTER.SOLV>
6.79673

>  <SCORE.INTER.VDW>
-15.6774

>  <SCORE.INTER.norm>
-0.669351

>  <SCORE.INTRA>
-3.08611

>  <SCORE.INTRA.DIHEDRAL>
-4.95744

>  <SCORE.INTRA.DIHEDRAL.0>
6.26853

>  <SCORE.INTRA.POLAR>
0

>  <SCORE.INTRA.POLAR.0>
0

>  <SCORE.INTRA.REPUL>
0

>  <SCORE.INTRA.REPUL.0>
0

>  <SCORE.INTRA.SOLV>
0.230915

>  <SCORE.INTRA.SOLV.lig_0>
-38.4926

>  <SCORE.INTRA.VDW>
-0.722848

>  <SCORE.INTRA.VDW.0>
-0.59057

>  <SCORE.INTRA.norm>
-0.162427

>  <SCORE.RESTR>
0

>  <SCORE.RESTR.CAVITY>
0

>  <SCORE.RESTR.norm>
0

>  <SCORE.SYSTEM>
0

>  <SCORE.SYSTEM.CONST>
0

>  <SCORE.SYSTEM.DIHEDRAL>
0

>  <SCORE.SYSTEM.SOLV>
0

>  <SCORE.SYSTEM.norm>
0

>  <SCORE.heavy>
19

>  <SCORE.norm>
-0.831777

>  <RMSD>
14.973

$$$$
ligand
 OpenBabel11021811483D
libRbt.so/2013.1/901 2013/11/27
 19 21  0  0  0  0  0  0  0  0999 V2000
    6.8129   -1.8475    2.0507 C   0  0  0  0  0  0  0  0  0  0  0  0
    7.9685   -1.8843    1.2001 O   0  0  0  0  0  0  0  0  0  0  0  0
    5.8603   -0.7346    1.6081 C   0  0  1  0  0  0  0  0  0  0  0  0
    5.4427   -0.9339    0.2440 O   0  0  0  0  0  0  0  0  0  0  0  0
    4.6052   -0.7181    2.4627 C   0  0  1  0  0  0  0  0  0  0  0  0
    4.6367    0.3592    3.4072 O   0  0  0  0  0  0  0  0  0  0  0  0
    3.4526   -0.5434    1.4978 C   0  0  0  0  0  0  0  0  0  0  0  0
    4.0160   -0.8447    0.1167 C   0  0  2  0  0  0  0  0  0  0  0  0
    3.1574   -5.9183    1.1725 N   0  0  0  0  0  0  0  0  0  0  0  0
    3.7229   -4.9520    1.9450 C   0  0  1  0  0  0  0  0  0  0  0  0
    4.1559   -5.2721    3.1876 N   0  0  0  0  0  0  0  0  0  0  0  0
    3.8673   -3.6750    1.4973 N   0  0  0  0  0  0  0  0  0  0  0  0
    3.4515   -3.3013    0.2567 C   0  0  2  0  0  0  0  0  0  0  0  0
    2.8695   -4.2421   -0.5736 C   0  0  1  0  0  0  0  0  0  0  0  0
    2.7161   -5.6316   -0.0722 C   0  0  0  0  0  0  0  0  0  0  0  0
    2.1906   -6.5168   -0.7837 O   0  0  0  0  0  0  0  0  0  0  0  0
    2.5450   -3.6285   -1.7249 N   0  0  0  0  0  0  0  0  0  0  0  0
    2.9234   -2.3335   -1.6156 C   0  0  0  0  0  0  0  0  0  0  0  0
    3.4774   -2.1353   -0.4056 N   0  0  1  0  0  0  0  0  0  0  0  0
  1  2  1  0  0  0  0
  3  1  1  1  0  0  0
  3  4  1  0  0  0  0
  3  5  1  0  0  0  0
  5  6  1  1  0  0  0
  5  7  1  0  0  0  0
  7  8  1  0  0  0  0
  8  4  1  1  0  0  0
  8 19  1  0  0  0  0
  9 15  1  0  0  0  0
  9 10  1  0  0  0  0
 10 11  1  6  0  0  0
 10 12  1  0  0  0  0
 13 12  1  6  0  0  0
 13 14  1  0  0  0  0
 13 19  1  0  0  0  0
 14 15  1  1  0  0  0
 14 17  1  0  0  0  0
 15 16  2  0  0  0  0
 17 18  1  0  0  0  0
 19 18  1  1  0  0  0
M  END
>  <CHROM.1>
58.77319705,68.85277873,4.15648753,-2.83982564,0.84555328,-0.61882152,0.91197938
2.70834255

>  <Name>
ligand

>  <RI>
0

>  <Rbt.Current_Directory>
/home/itssahil/PROJECTS/Mol_Feturizer/New_Systems/rnas/3SKI

>  <Rbt.Executable>
rbdock ($Id: //depot/dev/client3/rdock/2013.1/src/exe/rbdock.cxx#4 $)

>  <Rbt.Library>
libRbt.so (2013.1, Build901 2013/11/27)

>  <Rbt.Parameter_File>
/export/apps/rDock/src/rDock_2013.1_src/data/scripts/dock_solv.prm

>  <Rbt.Receptor>
prm/blind_docking_100.prm

>  <SCORE>
-17.7119

>  <SCORE.INTER>
-14.1407

>  <SCORE.INTER.CONST>
1

>  <SCORE.INTER.POLAR>
0

>  <SCORE.INTER.ROT>
2

>  <SCORE.INTER.SOLV>
6.72364

>  <SCORE.INTER.VDW>
-16.6017

>  <SCORE.INTER.norm>
-0.744245

>  <SCORE.INTRA>
-3.57126

>  <SCORE.INTRA.DIHEDRAL>
-5.05254

>  <SCORE.INTRA.DIHEDRAL.0>
6.26853

>  <SCORE.INTRA.POLAR>
0

>  <SCORE.INTRA.POLAR.0>
0

>  <SCORE.INTRA.REPUL>
0

>  <SCORE.INTRA.REPUL.0>
0

>  <SCORE.INTRA.SOLV>
0.0816376

>  <SCORE.INTRA.SOLV.lig_0>
-38.4926

>  <SCORE.INTRA.VDW>
-1.08581

>  <SCORE.INTRA.VDW.0>
-0.59057

>  <SCORE.INTRA.norm>
-0.187961

>  <SCORE.RESTR>
0

>  <SCORE.RESTR.CAVITY>
0

>  <SCORE.RESTR.norm>
0

>  <SCORE.SYSTEM>
0

>  <SCORE.SYSTEM.CONST>
0

>  <SCORE.SYSTEM.DIHEDRAL>
0

>  <SCORE.SYSTEM.SOLV>
0

>  <SCORE.SYSTEM.norm>
0

>  <SCORE.heavy>
19

>  <SCORE.norm>
-0.932206

>  <RMSD>
14.981

$$$$
ligand
 OpenBabel11021811483D
libRbt.so/2013.1/901 2013/11/27
 19 21  0  0  0  0  0  0  0  0999 V2000
    6.8403   -1.9482    1.9563 C   0  0  0  0  0  0  0  0  0  0  0  0
    7.9865   -1.9684    1.0925 O   0  0  0  0  0  0  0  0  0  0  0  0
    5.8721   -0.8419    1.5316 C   0  0  1  0  0  0  0  0  0  0  0  0
    5.4168   -1.0539    0.1815 O   0  0  0  0  0  0  0  0  0  0  0  0
    4.6414   -0.8221    2.4210 C   0  0  1  0  0  0  0  0  0  0  0  0
    4.6960    0.2631    3.3553 O   0  0  0  0  0  0  0  0  0  0  0  0
    3.4616   -0.6589    1.4876 C   0  0  0  0  0  0  0  0  0  0  0  0
    3.9868   -0.9700    0.0937 C   0  0  2  0  0  0  0  0  0  0  0  0
    3.2136   -6.0470    1.1979 N   0  0  0  0  0  0  0  0  0  0  0  0
    3.8022   -5.0738    1.9439 C   0  0  1  0  0  0  0  0  0  0  0  0
    4.2882   -5.3864    3.1687 N   0  0  0  0  0  0  0  0  0  0  0  0
    3.9178   -3.7970    1.4871 N   0  0  0  0  0  0  0  0  0  0  0  0
    3.4486   -3.4306    0.2636 C   0  0  2  0  0  0  0  0  0  0  0  0
    2.8409   -4.3787   -0.5397 C   0  0  1  0  0  0  0  0  0  0  0  0
    2.7195   -5.7678   -0.0285 C   0  0  0  0  0  0  0  0  0  0  0  0
    2.1726   -6.6594   -0.7155 O   0  0  0  0  0  0  0  0  0  0  0  0
    2.4647   -3.7714   -1.6785 N   0  0  0  0  0  0  0  0  0  0  0  0
    2.8366   -2.4730   -1.5884 C   0  0  0  0  0  0  0  0  0  0  0  0
    3.4380   -2.2665   -0.4026 N   0  0  1  0  0  0  0  0  0  0  0  0
  1  2  1  0  0  0  0
  3  1  1  1  0  0  0
  3  4  1  0  0  0  0
  3  5  1  0  0  0  0
  5  6  1  1  0  0  0
  5  7  1  0  0  0  0
  7  8  1  0  0  0  0
  8  4  1  1  0  0  0
  8 19  1  0  0  0  0
  9 15  1  0  0  0  0
  9 10  1  0  0  0  0
 10 11  1  6  0  0  0
 10 12  1  0  0  0  0
 13 12  1  6  0  0  0
 13 14  1  0  0  0  0
 13 19  1  0  0  0  0
 14 15  1  1  0  0  0
 14 17  1  0  0  0  0
 15 16  2  0  0  0  0
 17 18  1  0  0  0  0
 19 18  1  1  0  0  0
M  END
>  <CHROM.1>
60.10626760,68.01478534,4.16619931,-2.96010070,0.83102643,-0.66662552,0.87711155
2.75087898

>  <Name>
ligand

>  <RI>
0

>  <Rbt.Current_Directory>
/home/itssahil/PROJECTS/Mol_Feturizer/New_Systems/rnas/3SKI

>  <Rbt.Executable>
rbdock ($Id: //depot/dev/client3/rdock/2013.1/src/exe/rbdock.cxx#4 $)

>  <Rbt.Library>
libRbt.so (2013.1, Build901 2013/11/27)

>  <Rbt.Parameter_File>
/export/apps/rDock/src/rDock_2013.1_src/data/scripts/dock_solv.prm

>  <Rbt.Receptor>
prm/blind_docking_80.prm

>  <SCORE>
-17.7562

>  <SCORE.INTER>
-14.1918

>  <SCORE.INTER.CONST>
1

>  <SCORE.INTER.POLAR>
0

>  <SCORE.INTER.ROT>
2

>  <SCORE.INTER.SOLV>
6.2586

>  <SCORE.INTER.VDW>
-16.4807

>  <SCORE.INTER.norm>
-0.746936

>  <SCORE.INTRA>
-3.56442

>  <SCORE.INTRA.DIHEDRAL>
-5.0582

>  <SCORE.INTRA.DIHEDRAL.0>
6.26853

>  <SCORE.INTRA.POLAR>
0

>  <SCORE.INTRA.POLAR.0>
0

>  <SCORE.INTRA.REPUL>
0

>  <SCORE.INTRA.REPUL.0>
0

>  <SCORE.INTRA.SOLV>
0.113484

>  <SCORE.INTRA.SOLV.lig_0>
-38.4926

>  <SCORE.INTRA.VDW>
-1.09206

>  <SCORE.INTRA.VDW.0>
-0.59057

>  <SCORE.INTRA.norm>
-0.187601

>  <SCORE.RESTR>
0

>  <SCORE.RESTR.CAVITY>
0

>  <SCORE.RESTR.norm>
0

>  <SCORE.SYSTEM>
0

>  <SCORE.SYSTEM.CONST>
0

>  <SCORE.SYSTEM.DIHEDRAL>
0

>  <SCORE.SYSTEM.SOLV>
0

>  <SCORE.SYSTEM.norm>
0

>  <SCORE.heavy>
19

>  <SCORE.norm>
-0.934537

>  <RMSD>
14.995

$$$$
ligand
 OpenBabel11021811483D
libRbt.so/2013.1/901 2013/11/27
 19 21  0  0  0  0  0  0  0  0999 V2000
    6.7443   -1.7833    1.8959 C   0  0  0  0  0  0  0  0  0  0  0  0
    7.9542   -1.8369    1.1256 O   0  0  0  0  0  0  0  0  0  0  0  0
    5.8003   -0.7186    1.3325 C   0  0  1  0  0  0  0  0  0  0  0  0
    5.4001   -1.0519   -0.0105 O   0  0  0  0  0  0  0  0  0  0  0  0
    4.5342   -0.6160    2.1645 C   0  0  1  0  0  0  0  0  0  0  0  0
    4.5560    0.5496    2.9978 O   0  0  0  0  0  0  0  0  0  0  0  0
    3.3948   -0.5365    1.1719 C   0  0  0  0  0  0  0  0  0  0  0  0
    3.9754   -0.9740   -0.1649 C   0  0  2  0  0  0  0  0  0  0  0  0
    3.2156   -5.9524    1.3289 N   0  0  0  0  0  0  0  0  0  0  0  0
    3.7887   -4.9192    2.0029 C   0  0  1  0  0  0  0  0  0  0  0  0
    4.2598   -5.1305    3.2548 N   0  0  0  0  0  0  0  0  0  0  0  0
    3.9033   -3.6820    1.4476 N   0  0  0  0  0  0  0  0  0  0  0  0
    3.4486   -3.4170    0.1928 C   0  0  2  0  0  0  0  0  0  0  0  0
    2.8572   -4.4298   -0.5404 C   0  0  1  0  0  0  0  0  0  0  0  0
    2.7366   -5.7747    0.0779 C   0  0  0  0  0  0  0  0  0  0  0  0
    2.2040   -6.7216   -0.5432 O   0  0  0  0  0  0  0  0  0  0  0  0
    2.4930   -3.9172   -1.7286 N   0  0  0  0  0  0  0  0  0  0  0  0
    2.8564   -2.6134   -1.7371 C   0  0  0  0  0  0  0  0  0  0  0  0
    3.4405   -2.3094   -0.5637 N   0  0  1  0  0  0  0  0  0  0  0  0
  1  2  1  0  0  0  0
  3  1  1  1  0  0  0
  3  4  1  0  0  0  0
  3  5  1  0  0  0  0
  5  6  1  6  0  0  0
  5  7  1  0  0  0  0
  7  8  1  0  0  0  0
  8  4  1  1  0  0  0
  8 19  1  0  0  0  0
  9 15  1  0  0  0  0
  9 10  1  0  0  0  0
 10 11  1  6  0  0  0
 10 12  1  0  0  0  0
 13 12  1  6  0  0  0
 13 14  1  0  0  0  0
 13 19  1  0  0  0  0
 14 15  1  1  0  0  0
 14 17  1  0  0  0  0
 15 16  2  0  0  0  0
 17 18  1  0  0  0  0
 19 18  1  1  0  0  0
M  END
>  <CHROM.1>
63.00390380,66.18275404,4.13959050,-2.89309310,0.74981854,-0.68639505,0.89097638
2.70346459

>  <Name>
ligand

>  <RI>
0

>  <Rbt.Current_Directory>
/home/itssahil/PROJECTS/Mol_Feturizer/New_Systems/rnas/3SKI

>  <Rbt.Executable>
rbdock ($Id: //depot/dev/client3/rdock/2013.1/src/exe/rbdock.cxx#4 $)

>  <Rbt.Library>
libRbt.so (2013.1, Build901 2013/11/27)

>  <Rbt.Parameter_File>
/export/apps/rDock/src/rDock_2013.1_src/data/scripts/dock_solv.prm

>  <Rbt.Receptor>
prm/blind_docking_20.prm

>  <SCORE>
-17.6337

>  <SCORE.INTER>
-14.0495

>  <SCORE.INTER.CONST>
1

>  <SCORE.INTER.POLAR>
0

>  <SCORE.INTER.ROT>
2

>  <SCORE.INTER.SOLV>
6.72787

>  <SCORE.INTER.VDW>
-16.5423

>  <SCORE.INTER.norm>
-0.739446

>  <SCORE.INTRA>
-3.58419

>  <SCORE.INTRA.DIHEDRAL>
-5.02634

>  <SCORE.INTRA.DIHEDRAL.0>
6.26853

>  <SCORE.INTRA.POLAR>
0

>  <SCORE.INTRA.POLAR.0>
0

>  <SCORE.INTRA.REPUL>
0

>  <SCORE.INTRA.REPUL.0>
0

>  <SCORE.INTRA.SOLV>
0.181616

>  <SCORE.INTRA.SOLV.lig_0>
-38.4926

>  <SCORE.INTRA.VDW>
-1.16183

>  <SCORE.INTRA.VDW.0>
-0.59057

>  <SCORE.INTRA.norm>
-0.188642

>  <SCORE.RESTR>
0

>  <SCORE.RESTR.CAVITY>
0

>  <SCORE.RESTR.norm>
0

>  <SCORE.SYSTEM>
0

>  <SCORE.SYSTEM.CONST>
0

>  <SCORE.SYSTEM.DIHEDRAL>
0

>  <SCORE.SYSTEM.SOLV>
0

>  <SCORE.SYSTEM.norm>
0

>  <SCORE.heavy>
19

>  <SCORE.norm>
-0.928087

>  <RMSD>
15.031

$$$$
ligand
 OpenBabel11021811483D
libRbt.so/2013.1/901 2013/11/27
 19 21  0  0  0  0  0  0  0  0999 V2000
    5.1424   -0.4151    0.1157 C   0  0  0  0  0  0  0  0  0  0  0  0
    6.4838   -0.7902    0.4626 O   0  0  0  0  0  0  0  0  0  0  0  0
    4.7843   -0.9424   -1.2756 C   0  0  1  0  0  0  0  0  0  0  0  0
    5.0453   -2.3561   -1.3674 O   0  0  0  0  0  0  0  0  0  0  0  0
    3.3093   -0.7392   -1.5736 C   0  0  1  0  0  0  0  0  0  0  0  0
    3.1102    0.3554   -2.4769 O   0  0  0  0  0  0  0  0  0  0  0  0
    2.8331   -2.0336   -2.1963 C   0  0  0  0  0  0  0  0  0  0  0  0
    3.9138   -3.0622   -1.8972 C   0  0  2  0  0  0  0  0  0  0  0  0
    3.6964   -4.3247    3.1971 N   0  0  0  0  0  0  0  0  0  0  0  0
    4.2695   -3.2507    2.5901 C   0  0  1  0  0  0  0  0  0  0  0  0
    4.8995   -2.3236    3.3501 N   0  0  0  0  0  0  0  0  0  0  0  0
    4.2282   -3.0890    1.2395 N   0  0  0  0  0  0  0  0  0  0  0  0
    3.6103   -3.9917    0.4303 C   0  0  2  0  0  0  0  0  0  0  0  0
    3.0105   -5.1044    0.9919 C   0  0  1  0  0  0  0  0  0  0  0  0
    3.0611   -5.2679    2.4671 C   0  0  0  0  0  0  0  0  0  0  0  0
    2.5283   -6.2546    3.0226 O   0  0  0  0  0  0  0  0  0  0  0  0
    2.4723   -5.8277   -0.0053 N   0  0  0  0  0  0  0  0  0  0  0  0
    2.7374   -5.1814   -1.1647 C   0  0  0  0  0  0  0  0  0  0  0  0
    3.4329   -4.0610   -0.8974 N   0  0  1  0  0  0  0  0  0  0  0  0
  1  2  1  0  0  0  0
  3  1  1  1  0  0  0
  3  4  1  0  0  0  0
  3  5  1  0  0  0  0
  5  6  1  6  0  0  0
  5  7  1  0  0  0  0
  7  8  1  0  0  0  0
  8  4  1  1  0  0  0
  8 19  1  0  0  0  0
  9 15  1  0  0  0  0
  9 10  1  0  0  0  0
 10 11  1  6  0  0  0
 10 12  1  0  0  0  0
 13 12  1  6  0  0  0
 13 14  1  0  0  0  0
 13 19  1  0  0  0  0
 14 15  1  1  0  0  0
 14 17  1  0  0  0  0
 15 16  2  0  0  0  0
 17 18  1  0  0  0  0
 19 18  1  1  0  0  0
M  END
>  <CHROM.1>
52.51460797,24.99017442,3.85016656,-3.02273213,0.24322948,-1.23257934,0.98516906
2.14735873

>  <Name>
ligand

>  <RI>
0

>  <Rbt.Current_Directory>
/home/itssahil/PROJECTS/Mol_Feturizer/New_Systems/rnas/3SKI

>  <Rbt.Executable>
rbdock ($Id: //depot/dev/client3/rdock/2013.1/src/exe/rbdock.cxx#4 $)

>  <Rbt.Library>
libRbt.so (2013.1, Build901 2013/11/27)

>  <Rbt.Parameter_File>
/export/apps/rDock/src/rDock_2013.1_src/data/scripts/dock_solv.prm

>  <Rbt.Receptor>
prm/blind_docking_20.prm

>  <SCORE>
-18.4787

>  <SCORE.INTER>
-15.701

>  <SCORE.INTER.CONST>
1

>  <SCORE.INTER.POLAR>
0

>  <SCORE.INTER.ROT>
2

>  <SCORE.INTER.SOLV>
8.57406

>  <SCORE.INTER.VDW>
-18.2587

>  <SCORE.INTER.norm>
-0.826366

>  <SCORE.INTRA>
-2.77774

>  <SCORE.INTRA.DIHEDRAL>
-4.88619

>  <SCORE.INTRA.DIHEDRAL.0>
6.26853

>  <SCORE.INTRA.POLAR>
0

>  <SCORE.INTRA.POLAR.0>
0

>  <SCORE.INTRA.REPUL>
0

>  <SCORE.INTRA.REPUL.0>
0

>  <SCORE.INTRA.SOLV>
1.84405

>  <SCORE.INTRA.SOLV.lig_0>
-38.4926

>  <SCORE.INTRA.VDW>
-1.25667

>  <SCORE.INTRA.VDW.0>
-0.59057

>  <SCORE.INTRA.norm>
-0.146197

>  <SCORE.RESTR>
0

>  <SCORE.RESTR.CAVITY>
0

>  <SCORE.RESTR.norm>
0

>  <SCORE.SYSTEM>
0

>  <SCORE.SYSTEM.CONST>
0

>  <SCORE.SYSTEM.DIHEDRAL>
0

>  <SCORE.SYSTEM.SOLV>
0

>  <SCORE.SYSTEM.norm>
0

>  <SCORE.heavy>
19

>  <SCORE.norm>
-0.972563

>  <RMSD>
15.037

$$$$
ligand
 OpenBabel11021811483D
libRbt.so/2013.1/901 2013/11/27
 19 21  0  0  0  0  0  0  0  0999 V2000
    5.1471   -0.4604    0.0658 C   0  0  0  0  0  0  0  0  0  0  0  0
    6.4717   -0.8892    0.4149 O   0  0  0  0  0  0  0  0  0  0  0  0
    4.7674   -0.9792   -1.3229 C   0  0  1  0  0  0  0  0  0  0  0  0
    5.0180   -2.3941   -1.4243 O   0  0  0  0  0  0  0  0  0  0  0  0
    3.2899   -0.7652   -1.6006 C   0  0  1  0  0  0  0  0  0  0  0  0
    3.0860    0.3345   -2.4965 O   0  0  0  0  0  0  0  0  0  0  0  0
    2.7973   -2.0538   -2.2226 C   0  0  0  0  0  0  0  0  0  0  0  0
    3.8752   -3.0907   -1.9422 C   0  0  2  0  0  0  0  0  0  0  0  0
    3.6382   -4.3288    3.1572 N   0  0  0  0  0  0  0  0  0  0  0  0
    4.2006   -3.2502    2.5485 C   0  0  1  0  0  0  0  0  0  0  0  0
    4.8120   -2.3103    3.3080 N   0  0  0  0  0  0  0  0  0  0  0  0
    4.1669   -3.0963    1.1968 N   0  0  0  0  0  0  0  0  0  0  0  0
    3.5677   -4.0119    0.3880 C   0  0  2  0  0  0  0  0  0  0  0  0
    2.9795   -5.1299    0.9513 C   0  0  1  0  0  0  0  0  0  0  0  0
    3.0216   -5.2848    2.4278 C   0  0  0  0  0  0  0  0  0  0  0  0
    2.4986   -6.2759    2.9847 O   0  0  0  0  0  0  0  0  0  0  0  0
    2.4588   -5.8660   -0.0458 N   0  0  0  0  0  0  0  0  0  0  0  0
    2.7233   -5.2222   -1.2067 C   0  0  0  0  0  0  0  0  0  0  0  0
    3.4011   -4.0908   -0.9405 N   0  0  1  0  0  0  0  0  0  0  0  0
  1  2  1  0  0  0  0
  3  1  1  1  0  0  0
  3  4  1  0  0  0  0
  3  5  1  0  0  0  0
  5  6  1  6  0  0  0
  5  7  1  0  0  0  0
  7  8  1  0  0  0  0
  8  4  1  1  0  0  0
  8 19  1  0  0  0  0
  9 15  1  0  0  0  0
  9 10  1  0  0  0  0
 10 11  1  6  0  0  0
 10 12  1  0  0  0  0
 13 12  1  6  0  0  0
 13 14  1  0  0  0  0
 13 19  1  0  0  0  0
 14 15  1  1  0  0  0
 14 17  1  0  0  0  0
 15 16  2  0  0  0  0
 17 18  1  0  0  0  0
 19 18  1  1  0  0  0
M  END
>  <CHROM.1>
50.29172848,26.73822728,3.81650611,-3.05004826,0.20264284,-1.22096156,0.99085716
2.13485940

>  <Name>
ligand

>  <RI>
0

>  <Rbt.Current_Directory>
/home/itssahil/PROJECTS/Mol_Feturizer/New_Systems/rnas/3SKI

>  <Rbt.Executable>
rbdock ($Id: //depot/dev/client3/rdock/2013.1/src/exe/rbdock.cxx#4 $)

>  <Rbt.Library>
libRbt.so (2013.1, Build901 2013/11/27)

>  <Rbt.Parameter_File>
/export/apps/rDock/src/rDock_2013.1_src/data/scripts/dock_solv.prm

>  <Rbt.Receptor>
prm/blind_docking_80.prm

>  <SCORE>
-18.4873

>  <SCORE.INTER>
-15.7805

>  <SCORE.INTER.CONST>
1

>  <SCORE.INTER.POLAR>
0

>  <SCORE.INTER.ROT>
2

>  <SCORE.INTER.SOLV>
8.99928

>  <SCORE.INTER.VDW>
-18.4534

>  <SCORE.INTER.norm>
-0.830552

>  <SCORE.INTRA>
-2.7068

>  <SCORE.INTRA.DIHEDRAL>
-4.75383

>  <SCORE.INTRA.DIHEDRAL.0>
6.26853

>  <SCORE.INTRA.POLAR>
0

>  <SCORE.INTRA.POLAR.0>
0

>  <SCORE.INTRA.REPUL>
0

>  <SCORE.INTRA.REPUL.0>
0

>  <SCORE.INTRA.SOLV>
1.88344

>  <SCORE.INTRA.SOLV.lig_0>
-38.4926

>  <SCORE.INTRA.VDW>
-1.2716

>  <SCORE.INTRA.VDW.0>
-0.59057

>  <SCORE.INTRA.norm>
-0.142463

>  <SCORE.RESTR>
0

>  <SCORE.RESTR.CAVITY>
0

>  <SCORE.RESTR.norm>
0

>  <SCORE.SYSTEM>
0

>  <SCORE.SYSTEM.CONST>
0

>  <SCORE.SYSTEM.DIHEDRAL>
0

>  <SCORE.SYSTEM.SOLV>
0

>  <SCORE.SYSTEM.norm>
0

>  <SCORE.heavy>
19

>  <SCORE.norm>
-0.973015

>  <RMSD>
15.037

$$$$
ligand
 OpenBabel11021811483D
libRbt.so/2013.1/901 2013/11/27
 19 21  0  0  0  0  0  0  0  0999 V2000
    6.8366   -2.0184    1.9394 C   0  0  0  0  0  0  0  0  0  0  0  0
    8.0616   -2.0187    1.1914 O   0  0  0  0  0  0  0  0  0  0  0  0
    5.9012   -0.9195    1.4300 C   0  0  1  0  0  0  0  0  0  0  0  0
    5.4802   -1.1941    0.0801 O   0  0  0  0  0  0  0  0  0  0  0  0
    4.6466   -0.8324    2.2812 C   0  0  1  0  0  0  0  0  0  0  0  0
    4.6949    0.2991    3.1592 O   0  0  0  0  0  0  0  0  0  0  0  0
    3.4967   -0.6983    1.3067 C   0  0  0  0  0  0  0  0  0  0  0  0
    4.0551   -1.0908   -0.0534 C   0  0  2  0  0  0  0  0  0  0  0  0
    3.2300   -6.1097    1.2591 N   0  0  0  0  0  0  0  0  0  0  0  0
    3.8241   -5.1113    1.9665 C   0  0  1  0  0  0  0  0  0  0  0  0
    4.3015   -5.3767    3.2057 N   0  0  0  0  0  0  0  0  0  0  0  0
    3.9535   -3.8560    1.4571 N   0  0  0  0  0  0  0  0  0  0  0  0
    3.4934   -3.5371    0.2169 C   0  0  2  0  0  0  0  0  0  0  0  0
    2.8808   -4.5126   -0.5489 C   0  0  1  0  0  0  0  0  0  0  0  0
    2.7442   -5.8778    0.0195 C   0  0  0  0  0  0  0  0  0  0  0  0
    2.1923   -6.7926   -0.6322 O   0  0  0  0  0  0  0  0  0  0  0  0
    2.5155   -3.9503   -1.7140 N   0  0  0  0  0  0  0  0  0  0  0  0
    2.8989   -2.6527   -1.6766 C   0  0  0  0  0  0  0  0  0  0  0  0
    3.4966   -2.4020   -0.4975 N   0  0  1  0  0  0  0  0  0  0  0  0
  1  2  1  0  0  0  0
  3  1  1  1  0  0  0
  3  4  1  0  0  0  0
  3  5  1  0  0  0  0
  5  6  1  1  0  0  0
  5  7  1  0  0  0  0
  7  8  1  0  0  0  0
  8  4  1  1  0  0  0
  8 19  1  0  0  0  0
  9 15  1  0  0  0  0
  9 10  1  0  0  0  0
 10 11  1  6  0  0  0
 10 12  1  0  0  0  0
 13 12  1  6  0  0  0
 13 14  1  0  0  0  0
 13 19  1  0  0  0  0
 14 15  1  1  0  0  0
 14 17  1  0  0  0  0
 15 16  2  0  0  0  0
 17 18  1  0  0  0  0
 19 18  1  1  0  0  0
M  END
>  <CHROM.1>
65.59805721,66.45823251,4.20089520,-3.04299013,0.78724655,-0.66510744,0.87504322
2.72433288

>  <Name>
ligand

>  <RI>
0

>  <Rbt.Current_Directory>
/home/itssahil/PROJECTS/Mol_Feturizer/New_Systems/rnas/3SKI

>  <Rbt.Executable>
rbdock ($Id: //depot/dev/client3/rdock/2013.1/src/exe/rbdock.cxx#4 $)

>  <Rbt.Library>
libRbt.so (2013.1, Build901 2013/11/27)

>  <Rbt.Parameter_File>
/export/apps/rDock/src/rDock_2013.1_src/data/scripts/dock_solv.prm

>  <Rbt.Receptor>
prm/blind_docking_80.prm

>  <SCORE>
-17.7368

>  <SCORE.INTER>
-14.187

>  <SCORE.INTER.CONST>
1

>  <SCORE.INTER.POLAR>
0

>  <SCORE.INTER.ROT>
2

>  <SCORE.INTER.SOLV>
6.2254

>  <SCORE.INTER.VDW>
-16.4664

>  <SCORE.INTER.norm>
-0.746682

>  <SCORE.INTRA>
-3.5498

>  <SCORE.INTRA.DIHEDRAL>
-4.94526

>  <SCORE.INTRA.DIHEDRAL.0>
6.26853

>  <SCORE.INTRA.POLAR>
0

>  <SCORE.INTRA.POLAR.0>
0

>  <SCORE.INTRA.REPUL>
0

>  <SCORE.INTRA.REPUL.0>
0

>  <SCORE.INTRA.SOLV>
0.160345

>  <SCORE.INTRA.SOLV.lig_0>
-38.4926

>  <SCORE.INTRA.VDW>
-1.15735

>  <SCORE.INTRA.VDW.0>
-0.59057

>  <SCORE.INTRA.norm>
-0.186832

>  <SCORE.RESTR>
0

>  <SCORE.RESTR.CAVITY>
0

>  <SCORE.RESTR.norm>
0

>  <SCORE.SYSTEM>
0

>  <SCORE.SYSTEM.CONST>
0

>  <SCORE.SYSTEM.DIHEDRAL>
0

>  <SCORE.SYSTEM.SOLV>
0

>  <SCORE.SYSTEM.norm>
0

>  <SCORE.heavy>
19

>  <SCORE.norm>
-0.933514

>  <RMSD>
15.043

$$$$
ligand
 OpenBabel11021811483D
libRbt.so/2013.1/901 2013/11/27
 19 21  0  0  0  0  0  0  0  0999 V2000
    5.1347   -0.4186    0.0948 C   0  0  0  0  0  0  0  0  0  0  0  0
    6.4794   -0.7792    0.4440 O   0  0  0  0  0  0  0  0  0  0  0  0
    4.7836   -0.9523   -1.2958 C   0  0  1  0  0  0  0  0  0  0  0  0
    5.0492   -2.3655   -1.3811 O   0  0  0  0  0  0  0  0  0  0  0  0
    3.3091   -0.7547   -1.6003 C   0  0  1  0  0  0  0  0  0  0  0  0
    3.1102    0.3357   -2.5085 O   0  0  0  0  0  0  0  0  0  0  0  0
    2.8393   -2.0530   -2.2199 C   0  0  0  0  0  0  0  0  0  0  0  0
    3.9219   -3.0772   -1.9126 C   0  0  2  0  0  0  0  0  0  0  0  0
    3.6859   -4.3191    3.1859 N   0  0  0  0  0  0  0  0  0  0  0  0
    4.2577   -3.2455    2.5771 C   0  0  1  0  0  0  0  0  0  0  0  0
    4.8807   -2.3129    3.3360 N   0  0  0  0  0  0  0  0  0  0  0  0
    4.2220   -3.0897    1.2256 N   0  0  0  0  0  0  0  0  0  0  0  0
    3.6112   -3.9980    0.4174 C   0  0  2  0  0  0  0  0  0  0  0  0
    3.0130   -5.1106    0.9809 C   0  0  1  0  0  0  0  0  0  0  0  0
    3.0575   -5.2678    2.4570 C   0  0  0  0  0  0  0  0  0  0  0  0
    2.5258   -6.2542    3.0142 O   0  0  0  0  0  0  0  0  0  0  0  0
    2.4821   -5.8401   -0.0157 N   0  0  0  0  0  0  0  0  0  0  0  0
    2.7501   -5.1976   -1.1766 C   0  0  0  0  0  0  0  0  0  0  0  0
    3.4402   -4.0736   -0.9108 N   0  0  1  0  0  0  0  0  0  0  0  0
  1  2  1  0  0  0  0
  3  1  1  1  0  0  0
  3  4  1  0  0  0  0
  3  5  1  0  0  0  0
  5  6  1  6  0  0  0
  5  7  1  0  0  0  0
  7  8  1  0  0  0  0
  8  4  1  1  0  0  0
  8 19  1  0  0  0  0
  9 15  1  0  0  0  0
  9 10  1  0  0  0  0
 10 11  1  6  0  0  0
 10 12  1  0  0  0  0
 13 12  1  6  0  0  0
 13 14  1  0  0  0  0
 13 19  1  0  0  0  0
 14 15  1  1  0  0  0
 14 17  1  0  0  0  0
 15 16  2  0  0  0  0
 17 18  1  0  0  0  0
 19 18  1  1  0  0  0
M  END
>  <CHROM.1>
52.97311882,25.05084448,3.84930241,-3.02864243,0.22723840,-1.22789295,0.99027673
2.13990656

>  <Name>
ligand

>  <RI>
0

>  <Rbt.Current_Directory>
/home/itssahil/PROJECTS/Mol_Feturizer/New_Systems/rnas/3SKI

>  <Rbt.Executable>
rbdock ($Id: //depot/dev/client3/rdock/2013.1/src/exe/rbdock.cxx#4 $)

>  <Rbt.Library>
libRbt.so (2013.1, Build901 2013/11/27)

>  <Rbt.Parameter_File>
/export/apps/rDock/src/rDock_2013.1_src/data/scripts/dock_solv.prm

>  <Rbt.Receptor>
prm/blind_docking_80.prm

>  <SCORE>
-18.4876

>  <SCORE.INTER>
-15.6921

>  <SCORE.INTER.CONST>
1

>  <SCORE.INTER.POLAR>
0

>  <SCORE.INTER.ROT>
2

>  <SCORE.INTER.SOLV>
8.70436

>  <SCORE.INTER.VDW>
-18.2962

>  <SCORE.INTER.norm>
-0.8259

>  <SCORE.INTRA>
-2.79551

>  <SCORE.INTRA.DIHEDRAL>
-4.90953

>  <SCORE.INTRA.DIHEDRAL.0>
6.26853

>  <SCORE.INTRA.POLAR>
0

>  <SCORE.INTRA.POLAR.0>
0

>  <SCORE.INTRA.REPUL>
0

>  <SCORE.INTRA.REPUL.0>
0

>  <SCORE.INTRA.SOLV>
1.83029

>  <SCORE.INTRA.SOLV.lig_0>
-38.4926

>  <SCORE.INTRA.VDW>
-1.25588

>  <SCORE.INTRA.VDW.0>
-0.59057

>  <SCORE.INTRA.norm>
-0.147132

>  <SCORE.RESTR>
0

>  <SCORE.RESTR.CAVITY>
0

>  <SCORE.RESTR.norm>
0

>  <SCORE.SYSTEM>
0

>  <SCORE.SYSTEM.CONST>
0

>  <SCORE.SYSTEM.DIHEDRAL>
0

>  <SCORE.SYSTEM.SOLV>
0

>  <SCORE.SYSTEM.norm>
0

>  <SCORE.heavy>
19

>  <SCORE.norm>
-0.973032

>  <RMSD>
15.045

$$$$
ligand
 OpenBabel11021811483D
libRbt.so/2013.1/901 2013/11/27
 19 21  0  0  0  0  0  0  0  0999 V2000
    6.9099   -1.9372    1.9259 C   0  0  0  0  0  0  0  0  0  0  0  0
    8.0779   -1.9918    1.0933 O   0  0  0  0  0  0  0  0  0  0  0  0
    5.9809   -0.8106    1.4680 C   0  0  1  0  0  0  0  0  0  0  0  0
    5.5439   -1.0297    0.1130 O   0  0  0  0  0  0  0  0  0  0  0  0
    4.7358   -0.7434    2.3345 C   0  0  1  0  0  0  0  0  0  0  0  0
    4.8043    0.3536    3.2541 O   0  0  0  0  0  0  0  0  0  0  0  0
    3.5777   -0.5610    1.3776 C   0  0  0  0  0  0  0  0  0  0  0  0
    4.1186   -0.9072   -0.0019 C   0  0  2  0  0  0  0  0  0  0  0  0
    3.1295   -5.9283    1.1827 N   0  0  0  0  0  0  0  0  0  0  0  0
    3.7255   -4.9592    1.9282 C   0  0  1  0  0  0  0  0  0  0  0  0
    4.1569   -5.2604    3.1760 N   0  0  0  0  0  0  0  0  0  0  0  0
    3.9016   -3.6979    1.4485 N   0  0  0  0  0  0  0  0  0  0  0  0
    3.4888   -3.3435    0.2014 C   0  0  2  0  0  0  0  0  0  0  0  0
    2.8768   -4.2881   -0.6026 C   0  0  1  0  0  0  0  0  0  0  0  0
    2.6889   -5.6603   -0.0664 C   0  0  0  0  0  0  0  0  0  0  0  0
    2.1355   -6.5480   -0.7532 O   0  0  0  0  0  0  0  0  0  0  0  0
    2.5622   -3.6942   -1.7669 N   0  0  0  0  0  0  0  0  0  0  0  0
    2.9761   -2.4077   -1.6914 C   0  0  0  0  0  0  0  0  0  0  0  0
    3.5424   -2.1951   -0.4896 N   0  0  1  0  0  0  0  0  0  0  0  0
  1  2  1  0  0  0  0
  3  1  1  1  0  0  0
  3  4  1  0  0  0  0
  3  5  1  0  0  0  0
  5  6  1  1  0  0  0
  5  7  1  0  0  0  0
  7  8  1  0  0  0  0
  8  4  1  1  0  0  0
  8 19  1  0  0  0  0
  9 15  1  0  0  0  0
  9 10  1  0  0  0  0
 10 11  1  6  0  0  0
 10 12  1  0  0  0  0
 13 12  1  6  0  0  0
 13 14  1  0  0  0  0
 13 19  1  0  0  0  0
 14 15  1  1  0  0  0
 14 17  1  0  0  0  0
 15 16  2  0  0  0  0
 17 18  1  0  0  0  0
 19 18  1  1  0  0  0
M  END
>  <CHROM.1>
60.79533189,69.17339469,4.21399893,-2.88543202,0.77371731,-0.57902326,0.89269078
2.65128341

>  <Name>
ligand

>  <RI>
0

>  <Rbt.Current_Directory>
/home/itssahil/PROJECTS/Mol_Feturizer/New_Systems/rnas/3SKI

>  <Rbt.Executable>
rbdock ($Id: //depot/dev/client3/rdock/2013.1/src/exe/rbdock.cxx#4 $)

>  <Rbt.Library>
libRbt.so (2013.1, Build901 2013/11/27)

>  <Rbt.Parameter_File>
/export/apps/rDock/src/rDock_2013.1_src/data/scripts/dock_solv.prm

>  <Rbt.Receptor>
prm/blind_docking_100.prm

>  <SCORE>
-17.7277

>  <SCORE.INTER>
-14.1692

>  <SCORE.INTER.CONST>
1

>  <SCORE.INTER.POLAR>
0

>  <SCORE.INTER.ROT>
2

>  <SCORE.INTER.SOLV>
6.93264

>  <SCORE.INTER.VDW>
-16.6904

>  <SCORE.INTER.norm>
-0.745749

>  <SCORE.INTRA>
-3.55846

>  <SCORE.INTRA.DIHEDRAL>
-5.05469

>  <SCORE.INTRA.DIHEDRAL.0>
6.26853

>  <SCORE.INTRA.POLAR>
0

>  <SCORE.INTRA.POLAR.0>
0

>  <SCORE.INTRA.REPUL>
0

>  <SCORE.INTRA.REPUL.0>
0

>  <SCORE.INTRA.SOLV>
0.0597662

>  <SCORE.INTRA.SOLV.lig_0>
-38.4926

>  <SCORE.INTRA.VDW>
-1.061

>  <SCORE.INTRA.VDW.0>
-0.59057

>  <SCORE.INTRA.norm>
-0.187287

>  <SCORE.RESTR>
0

>  <SCORE.RESTR.CAVITY>
0

>  <SCORE.RESTR.norm>
0

>  <SCORE.SYSTEM>
0

>  <SCORE.SYSTEM.CONST>
0

>  <SCORE.SYSTEM.DIHEDRAL>
0

>  <SCORE.SYSTEM.SOLV>
0

>  <SCORE.SYSTEM.norm>
0

>  <SCORE.heavy>
19

>  <SCORE.norm>
-0.933036

>  <RMSD>
15.066

$$$$
ligand
 OpenBabel11021811483D
libRbt.so/2013.1/901 2013/11/27
 19 21  0  0  0  0  0  0  0  0999 V2000
    6.8742   -1.9229    1.8995 C   0  0  0  0  0  0  0  0  0  0  0  0
    8.0643   -1.9749    1.0987 O   0  0  0  0  0  0  0  0  0  0  0  0
    5.9529   -0.8020    1.4133 C   0  0  1  0  0  0  0  0  0  0  0  0
    5.5187   -1.0493    0.0622 O   0  0  0  0  0  0  0  0  0  0  0  0
    4.7056   -0.7081    2.2742 C   0  0  1  0  0  0  0  0  0  0  0  0
    4.7776    0.4090    3.1689 O   0  0  0  0  0  0  0  0  0  0  0  0
    3.5514   -0.5412    1.3098 C   0  0  0  0  0  0  0  0  0  0  0  0
    4.0945   -0.9216   -0.0598 C   0  0  2  0  0  0  0  0  0  0  0  0
    3.1464   -5.9309    1.2054 N   0  0  0  0  0  0  0  0  0  0  0  0
    3.7544   -4.9511    1.9267 C   0  0  1  0  0  0  0  0  0  0  0  0
    4.2126   -5.2359    3.1689 N   0  0  0  0  0  0  0  0  0  0  0  0
    3.9166   -3.6951    1.4283 N   0  0  0  0  0  0  0  0  0  0  0  0
    3.4769   -3.3571    0.1858 C   0  0  2  0  0  0  0  0  0  0  0  0
    2.8515   -4.3132   -0.5939 C   0  0  1  0  0  0  0  0  0  0  0  0
    2.6791   -5.6794   -0.0374 C   0  0  0  0  0  0  0  0  0  0  0  0
    2.1146   -6.5770   -0.7019 O   0  0  0  0  0  0  0  0  0  0  0  0
    2.5110   -3.7345   -1.7585 N   0  0  0  0  0  0  0  0  0  0  0  0
    2.9222   -2.4459   -1.7071 C   0  0  0  0  0  0  0  0  0  0  0  0
    3.5125   -2.2170   -0.5199 N   0  0  1  0  0  0  0  0  0  0  0  0
  1  2  1  0  0  0  0
  3  1  1  1  0  0  0
  3  4  1  0  0  0  0
  3  5  1  0  0  0  0
  5  6  1  1  0  0  0
  5  7  1  0  0  0  0
  7  8  1  0  0  0  0
  8  4  1  1  0  0  0
  8 19  1  0  0  0  0
  9 15  1  0  0  0  0
  9 10  1  0  0  0  0
 10 11  1  6  0  0  0
 10 12  1  0  0  0  0
 13 12  1  6  0  0  0
 13 14  1  0  0  0  0
 13 19  1  0  0  0  0
 14 15  1  1  0  0  0
 14 17  1  0  0  0  0
 15 16  2  0  0  0  0
 17 18  1  0  0  0  0
 19 18  1  1  0  0  0
M  END
>  <CHROM.1>
62.64967502,67.60379651,4.19830526,-2.88674553,0.75397788,-0.61617061,0.87614067
2.68293570

>  <Name>
ligand

>  <RI>
0

>  <Rbt.Current_Directory>
/home/itssahil/PROJECTS/Mol_Feturizer/New_Systems/rnas/3SKI

>  <Rbt.Executable>
rbdock ($Id: //depot/dev/client3/rdock/2013.1/src/exe/rbdock.cxx#4 $)

>  <Rbt.Library>
libRbt.so (2013.1, Build901 2013/11/27)

>  <Rbt.Parameter_File>
/export/apps/rDock/src/rDock_2013.1_src/data/scripts/dock_solv.prm

>  <Rbt.Receptor>
prm/blind_docking_100.prm

>  <SCORE>
-17.719

>  <SCORE.INTER>
-14.1385

>  <SCORE.INTER.CONST>
1

>  <SCORE.INTER.POLAR>
0

>  <SCORE.INTER.ROT>
2

>  <SCORE.INTER.SOLV>
6.81965

>  <SCORE.INTER.VDW>
-16.6322

>  <SCORE.INTER.norm>
-0.744131

>  <SCORE.INTRA>
-3.58075

>  <SCORE.INTRA.DIHEDRAL>
-5.03237

>  <SCORE.INTRA.DIHEDRAL.0>
6.26853

>  <SCORE.INTRA.POLAR>
0

>  <SCORE.INTRA.POLAR.0>
0

>  <SCORE.INTRA.REPUL>
0

>  <SCORE.INTRA.REPUL.0>
0

>  <SCORE.INTRA.SOLV>
0.121878

>  <SCORE.INTRA.SOLV.lig_0>
-38.4926

>  <SCORE.INTRA.VDW>
-1.1255

>  <SCORE.INTRA.VDW.0>
-0.59057

>  <SCORE.INTRA.norm>
-0.188461

>  <SCORE.RESTR>
0.000286824

>  <SCORE.RESTR.CAVITY>
0.000286824

>  <SCORE.RESTR.norm>
1.5096e-05

>  <SCORE.SYSTEM>
0

>  <SCORE.SYSTEM.CONST>
0

>  <SCORE.SYSTEM.DIHEDRAL>
0

>  <SCORE.SYSTEM.SOLV>
0

>  <SCORE.SYSTEM.norm>
0

>  <SCORE.heavy>
19

>  <SCORE.norm>
-0.932576

>  <RMSD>
15.069

$$$$
ligand
 OpenBabel11021811483D
libRbt.so/2013.1/901 2013/11/27
 19 21  0  0  0  0  0  0  0  0999 V2000
    7.3166   -1.1156    1.4855 C   0  0  0  0  0  0  0  0  0  0  0  0
    6.9060   -2.4393    1.1123 O   0  0  0  0  0  0  0  0  0  0  0  0
    6.1066   -0.1811    1.5524 C   0  0  1  0  0  0  0  0  0  0  0  0
    5.3888   -0.1867    0.3035 O   0  0  0  0  0  0  0  0  0  0  0  0
    5.1331   -0.6243    2.6302 C   0  0  1  0  0  0  0  0  0  0  0  0
    5.2253    0.2157    3.7875 O   0  0  0  0  0  0  0  0  0  0  0  0
    3.7569   -0.5218    2.0092 C   0  0  0  0  0  0  0  0  0  0  0  0
    3.9845   -0.3989    0.5096 C   0  0  2  0  0  0  0  0  0  0  0  0
    3.3392   -5.5964    0.9134 N   0  0  0  0  0  0  0  0  0  0  0  0
    3.7948   -4.7019    1.8313 C   0  0  1  0  0  0  0  0  0  0  0  0
    4.1574   -5.1449    3.0586 N   0  0  0  0  0  0  0  0  0  0  0  0
    3.8984   -3.3757    1.5440 N   0  0  0  0  0  0  0  0  0  0  0  0
    3.5497   -2.8790    0.3262 C   0  0  2  0  0  0  0  0  0  0  0  0
    3.0804   -3.7422   -0.6474 C   0  0  1  0  0  0  0  0  0  0  0  0
    2.9704   -5.1867   -0.3204 C   0  0  0  0  0  0  0  0  0  0  0  0
    2.5459   -6.0060   -1.1657 O   0  0  0  0  0  0  0  0  0  0  0  0
    2.8031   -3.0136   -1.7426 N   0  0  0  0  0  0  0  0  0  0  0  0
    3.1000   -1.7239   -1.4584 C   0  0  0  0  0  0  0  0  0  0  0  0
    3.5565   -1.6432   -0.1953 N   0  0  1  0  0  0  0  0  0  0  0  0
  1  2  1  0  0  0  0
  3  1  1  6  0  0  0
  3  4  1  0  0  0  0
  3  5  1  0  0  0  0
  5  6  1  1  0  0  0
  5  7  1  0  0  0  0
  7  8  1  0  0  0  0
  8  4  1  1  0  0  0
  8 19  1  0  0  0  0
  9 15  1  0  0  0  0
  9 10  1  0  0  0  0
 10 11  1  6  0  0  0
 10 12  1  0  0  0  0
 13 12  1  6  0  0  0
 13 14  1  0  0  0  0
 13 19  1  0  0  0  0
 14 15  1  1  0  0  0
 14 17  1  0  0  0  0
 15 16  2  0  0  0  0
 17 18  1  0  0  0  0
 19 18  1  1  0  0  0
M  END
>  <CHROM.1>
-55.63972300,90.02153246,4.29325648,-2.50872390,0.84838730,-0.52055890,1.00819612
2.61779836

>  <Name>
ligand

>  <RI>
0

>  <Rbt.Current_Directory>
/home/itssahil/PROJECTS/Mol_Feturizer/New_Systems/rnas/3SKI

>  <Rbt.Executable>
rbdock ($Id: //depot/dev/client3/rdock/2013.1/src/exe/rbdock.cxx#4 $)

>  <Rbt.Library>
libRbt.so (2013.1, Build901 2013/11/27)

>  <Rbt.Parameter_File>
/export/apps/rDock/src/rDock_2013.1_src/data/scripts/dock_solv.prm

>  <Rbt.Receptor>
prm/blind_docking_40.prm

>  <SCORE>
-17.4928

>  <SCORE.INTER>
-14.5569

>  <SCORE.INTER.CONST>
1

>  <SCORE.INTER.POLAR>
0

>  <SCORE.INTER.ROT>
2

>  <SCORE.INTER.SOLV>
6.03564

>  <SCORE.INTER.VDW>
-16.6498

>  <SCORE.INTER.norm>
-0.766154

>  <SCORE.INTRA>
-2.93584

>  <SCORE.INTRA.DIHEDRAL>
-4.977

>  <SCORE.INTRA.DIHEDRAL.0>
6.26853

>  <SCORE.INTRA.POLAR>
0

>  <SCORE.INTRA.POLAR.0>
0

>  <SCORE.INTRA.REPUL>
0

>  <SCORE.INTRA.REPUL.0>
0

>  <SCORE.INTRA.SOLV>
0.348269

>  <SCORE.INTRA.SOLV.lig_0>
-38.4926

>  <SCORE.INTRA.VDW>
-0.621472

>  <SCORE.INTRA.VDW.0>
-0.59057

>  <SCORE.INTRA.norm>
-0.154518

>  <SCORE.RESTR>
0

>  <SCORE.RESTR.CAVITY>
0

>  <SCORE.RESTR.norm>
0

>  <SCORE.SYSTEM>
0

>  <SCORE.SYSTEM.CONST>
0

>  <SCORE.SYSTEM.DIHEDRAL>
0

>  <SCORE.SYSTEM.SOLV>
0

>  <SCORE.SYSTEM.norm>
0

>  <SCORE.heavy>
19

>  <SCORE.norm>
-0.920671

>  <RMSD>
15.090

$$$$
ligand
 OpenBabel11021811483D
libRbt.so/2013.1/901 2013/11/27
 19 21  0  0  0  0  0  0  0  0999 V2000
    6.8805   -1.8852    1.9022 C   0  0  0  0  0  0  0  0  0  0  0  0
    8.0552   -2.0038    1.0861 O   0  0  0  0  0  0  0  0  0  0  0  0
    5.9763   -0.7682    1.3761 C   0  0  1  0  0  0  0  0  0  0  0  0
    5.5604   -1.0434    0.0247 O   0  0  0  0  0  0  0  0  0  0  0  0
    4.7170   -0.6440    2.2156 C   0  0  1  0  0  0  0  0  0  0  0  0
    4.7852    0.4930    3.0851 O   0  0  0  0  0  0  0  0  0  0  0  0
    3.5790   -0.4900    1.2301 C   0  0  0  0  0  0  0  0  0  0  0  0
    4.1393   -0.9067   -0.1220 C   0  0  2  0  0  0  0  0  0  0  0  0
    3.1621   -5.8875    1.2306 N   0  0  0  0  0  0  0  0  0  0  0  0
    3.7718   -4.8975    1.9365 C   0  0  1  0  0  0  0  0  0  0  0  0
    4.2233   -5.1616    3.1856 N   0  0  0  0  0  0  0  0  0  0  0  0
    3.9420   -3.6516    1.4159 N   0  0  0  0  0  0  0  0  0  0  0  0
    3.5091   -3.3344    0.1655 C   0  0  2  0  0  0  0  0  0  0  0  0
    2.8825   -4.3017   -0.5992 C   0  0  1  0  0  0  0  0  0  0  0  0
    2.7013   -5.6566   -0.0186 C   0  0  0  0  0  0  0  0  0  0  0  0
    2.1353   -6.5636   -0.6689 O   0  0  0  0  0  0  0  0  0  0  0  0
    2.5497   -3.7428   -1.7757 N   0  0  0  0  0  0  0  0  0  0  0  0
    2.9667   -2.4554   -1.7461 C   0  0  0  0  0  0  0  0  0  0  0  0
    3.5531   -2.2076   -0.5607 N   0  0  1  0  0  0  0  0  0  0  0  0
  1  2  1  0  0  0  0
  3  1  1  1  0  0  0
  3  4  1  0  0  0  0
  3  5  1  0  0  0  0
  5  6  1  1  0  0  0
  5  7  1  0  0  0  0
  7  8  1  0  0  0  0
  8  4  1  1  0  0  0
  8 19  1  0  0  0  0
  9 15  1  0  0  0  0
  9 10  1  0  0  0  0
 10 11  1  6  0  0  0
 10 12  1  0  0  0  0
 13 12  1  6  0  0  0
 13 14  1  0  0  0  0
 13 19  1  0  0  0  0
 14 15  1  1  0  0  0
 14 17  1  0  0  0  0
 15 16  2  0  0  0  0
 17 18  1  0  0  0  0
 19 18  1  1  0  0  0
M  END
>  <CHROM.1>
60.16962038,66.88417337,4.22163434,-2.85843803,0.73261309,-0.61581728,0.88106492
2.66836297

>  <Name>
ligand

>  <RI>
0

>  <Rbt.Current_Directory>
/home/itssahil/PROJECTS/Mol_Feturizer/New_Systems/rnas/3SKI

>  <Rbt.Executable>
rbdock ($Id: //depot/dev/client3/rdock/2013.1/src/exe/rbdock.cxx#4 $)

>  <Rbt.Library>
libRbt.so (2013.1, Build901 2013/11/27)

>  <Rbt.Parameter_File>
/export/apps/rDock/src/rDock_2013.1_src/data/scripts/dock_solv.prm

>  <Rbt.Receptor>
prm/blind_docking_40.prm

>  <SCORE>
-17.6755

>  <SCORE.INTER>
-14.092

>  <SCORE.INTER.CONST>
1

>  <SCORE.INTER.POLAR>
0

>  <SCORE.INTER.ROT>
2

>  <SCORE.INTER.SOLV>
6.9431

>  <SCORE.INTER.VDW>
-16.6424

>  <SCORE.INTER.norm>
-0.741684

>  <SCORE.INTRA>
-3.5889

>  <SCORE.INTRA.DIHEDRAL>
-5.05915

>  <SCORE.INTRA.DIHEDRAL.0>
6.26853

>  <SCORE.INTRA.POLAR>
0

>  <SCORE.INTRA.POLAR.0>
0

>  <SCORE.INTRA.REPUL>
0

>  <SCORE.INTRA.REPUL.0>
0

>  <SCORE.INTRA.SOLV>
0.162262

>  <SCORE.INTRA.SOLV.lig_0>
-38.4926

>  <SCORE.INTRA.VDW>
-1.14046

>  <SCORE.INTRA.VDW.0>
-0.59057

>  <SCORE.INTRA.norm>
-0.18889

>  <SCORE.RESTR>
0.00540521

>  <SCORE.RESTR.CAVITY>
0.00540521

>  <SCORE.RESTR.norm>
0.000284485

>  <SCORE.SYSTEM>
0

>  <SCORE.SYSTEM.CONST>
0

>  <SCORE.SYSTEM.DIHEDRAL>
0

>  <SCORE.SYSTEM.SOLV>
0

>  <SCORE.SYSTEM.norm>
0

>  <SCORE.heavy>
19

>  <SCORE.norm>
-0.930289

>  <RMSD>
15.099

$$$$
ligand
 OpenBabel11021811483D
libRbt.so/2013.1/901 2013/11/27
 19 21  0  0  0  0  0  0  0  0999 V2000
    6.8564   -1.8141    1.9640 C   0  0  0  0  0  0  0  0  0  0  0  0
    8.0432   -1.8957    1.1609 O   0  0  0  0  0  0  0  0  0  0  0  0
    5.9524   -0.6842    1.4661 C   0  0  1  0  0  0  0  0  0  0  0  0
    5.5521   -0.9156    0.1018 O   0  0  0  0  0  0  0  0  0  0  0  0
    4.6837   -0.5941    2.2957 C   0  0  1  0  0  0  0  0  0  0  0  0
    4.7370    0.5133    3.2036 O   0  0  0  0  0  0  0  0  0  0  0  0
    3.5554   -0.4122    1.3037 C   0  0  0  0  0  0  0  0  0  0  0  0
    4.1320   -0.7806   -0.0555 C   0  0  2  0  0  0  0  0  0  0  0  0
    3.1777   -5.8121    1.1132 N   0  0  0  0  0  0  0  0  0  0  0  0
    3.7765   -4.8440    1.8578 C   0  0  1  0  0  0  0  0  0  0  0  0
    4.2216   -5.1495    3.0998 N   0  0  0  0  0  0  0  0  0  0  0  0
    3.9421   -3.5795    1.3828 N   0  0  0  0  0  0  0  0  0  0  0  0
    3.5154   -3.2207    0.1416 C   0  0  2  0  0  0  0  0  0  0  0  0
    2.8999   -4.1641   -0.6611 C   0  0  1  0  0  0  0  0  0  0  0  0
    2.7235   -5.5398   -0.1300 C   0  0  0  0  0  0  0  0  0  0  0  0
    2.1675   -6.4266   -0.8159 O   0  0  0  0  0  0  0  0  0  0  0  0
    2.5712   -3.5659   -1.8192 N   0  0  0  0  0  0  0  0  0  0  0  0
    2.9798   -2.2778   -1.7413 C   0  0  0  0  0  0  0  0  0  0  0  0
    3.5569   -2.0686   -0.5440 N   0  0  1  0  0  0  0  0  0  0  0  0
  1  2  1  0  0  0  0
  3  1  1  1  0  0  0
  3  4  1  0  0  0  0
  3  5  1  0  0  0  0
  5  6  1  1  0  0  0
  5  7  1  0  0  0  0
  7  8  1  0  0  0  0
  8  4  1  1  0  0  0
  8 19  1  0  0  0  0
  9 15  1  0  0  0  0
  9 10  1  0  0  0  0
 10 11  1  6  0  0  0
 10 12  1  0  0  0  0
 13 12  1  6  0  0  0
 13 14  1  0  0  0  0
 13 19  1  0  0  0  0
 14 15  1  1  0  0  0
 14 17  1  0  0  0  0
 15 16  2  0  0  0  0
 17 18  1  0  0  0  0
 19 18  1  1  0  0  0
M  END
>  <CHROM.1>
60.43781016,66.61522368,4.21867319,-2.76032990,0.73266884,-0.62302708,0.88993220
2.71169524

>  <Name>
ligand

>  <RI>
0

>  <Rbt.Current_Directory>
/home/itssahil/PROJECTS/Mol_Feturizer/New_Systems/rnas/3SKI

>  <Rbt.Executable>
rbdock ($Id: //depot/dev/client3/rdock/2013.1/src/exe/rbdock.cxx#4 $)

>  <Rbt.Library>
libRbt.so (2013.1, Build901 2013/11/27)

>  <Rbt.Parameter_File>
/export/apps/rDock/src/rDock_2013.1_src/data/scripts/dock_solv.prm

>  <Rbt.Receptor>
prm/blind_docking_40.prm

>  <SCORE>
-17.5677

>  <SCORE.INTER>
-13.9772

>  <SCORE.INTER.CONST>
1

>  <SCORE.INTER.POLAR>
0

>  <SCORE.INTER.ROT>
2

>  <SCORE.INTER.SOLV>
6.80102

>  <SCORE.INTER.VDW>
-16.5185

>  <SCORE.INTER.norm>
-0.735641

>  <SCORE.INTRA>
-3.59052

>  <SCORE.INTRA.DIHEDRAL>
-5.05871

>  <SCORE.INTRA.DIHEDRAL.0>
6.26853

>  <SCORE.INTRA.POLAR>
0

>  <SCORE.INTRA.POLAR.0>
0

>  <SCORE.INTRA.REPUL>
0

>  <SCORE.INTRA.REPUL.0>
0

>  <SCORE.INTRA.SOLV>
0.17278

>  <SCORE.INTRA.SOLV.lig_0>
-38.4926

>  <SCORE.INTRA.VDW>
-1.14756

>  <SCORE.INTRA.VDW.0>
-0.59057

>  <SCORE.INTRA.norm>
-0.188975

>  <SCORE.RESTR>
0

>  <SCORE.RESTR.CAVITY>
0

>  <SCORE.RESTR.norm>
0

>  <SCORE.SYSTEM>
0

>  <SCORE.SYSTEM.CONST>
0

>  <SCORE.SYSTEM.DIHEDRAL>
0

>  <SCORE.SYSTEM.SOLV>
0

>  <SCORE.SYSTEM.norm>
0

>  <SCORE.heavy>
19

>  <SCORE.norm>
-0.924616

>  <RMSD>
15.100

$$$$
ligand
 OpenBabel11021811483D
libRbt.so/2013.1/901 2013/11/27
 19 21  0  0  0  0  0  0  0  0999 V2000
  -12.3198   -2.0952   -2.7766 C   0  0  0  0  0  0  0  0  0  0  0  0
  -12.4056   -0.8529   -2.0627 O   0  0  0  0  0  0  0  0  0  0  0  0
  -11.1181   -2.0839   -3.7240 C   0  0  1  0  0  0  0  0  0  0  0  0
  -11.0711   -0.8542   -4.4727 O   0  0  0  0  0  0  0  0  0  0  0  0
   -9.8140   -2.1887   -2.9531 C   0  0  1  0  0  0  0  0  0  0  0  0
   -9.2572   -3.5052   -3.0552 O   0  0  0  0  0  0  0  0  0  0  0  0
   -8.8844   -1.1704   -3.5766 C   0  0  0  0  0  0  0  0  0  0  0  0
   -9.7682   -0.2555   -4.4116 C   0  0  2  0  0  0  0  0  0  0  0  0
   -7.2922    4.2933   -3.5336 N   0  0  0  0  0  0  0  0  0  0  0  0
   -6.8624    3.1802   -4.1866 C   0  0  1  0  0  0  0  0  0  0  0  0
   -5.6164    3.1681   -4.7170 N   0  0  0  0  0  0  0  0  0  0  0  0
   -7.6521    2.0793   -4.3149 N   0  0  0  0  0  0  0  0  0  0  0  0
   -8.9105    2.0384   -3.7988 C   0  0  2  0  0  0  0  0  0  0  0  0
   -9.4009    3.1414   -3.1235 C   0  0  1  0  0  0  0  0  0  0  0  0
   -8.5296    4.3370   -2.9922 C   0  0  0  0  0  0  0  0  0  0  0  0
   -8.9303    5.3612   -2.3953 O   0  0  0  0  0  0  0  0  0  0  0  0
  -10.6513    2.8543   -2.7221 N   0  0  0  0  0  0  0  0  0  0  0  0
  -10.9310    1.5954   -3.1336 C   0  0  0  0  0  0  0  0  0  0  0  0
   -9.8670    1.0982   -3.7901 N   0  0  1  0  0  0  0  0  0  0  0  0
  1  2  1  0  0  0  0
  3  1  1  1  0  0  0
  3  4  1  0  0  0  0
  3  5  1  0  0  0  0
  5  6  1  6  0  0  0
  5  7  1  0  0  0  0
  7  8  1  0  0  0  0
  8  4  1  1  0  0  0
  8 19  1  0  0  0  0
  9 15  1  0  0  0  0
  9 10  1  0  0  0  0
 10 11  1  1  0  0  0
 10 12  1  0  0  0  0
 13 12  1  1  0  0  0
 13 14  1  0  0  0  0
 13 19  1  0  0  0  0
 14 15  1  6  0  0  0
 14 17  1  0  0  0  0
 15 16  2  0  0  0  0
 17 18  1  0  0  0  0
 19 18  1  6  0  0  0
M  END
>  <CHROM.1>
-46.66948141,-166.66518290,-9.47639618,0.98884487,-3.44363218,2.08321645
-0.35356836,-3.00456599

>  <Name>
ligand

>  <RI>
0

>  <Rbt.Current_Directory>
/home/itssahil/PROJECTS/Mol_Feturizer/New_Systems/rnas/3SKI

>  <Rbt.Executable>
rbdock ($Id: //depot/dev/client3/rdock/2013.1/src/exe/rbdock.cxx#4 $)

>  <Rbt.Library>
libRbt.so (2013.1, Build901 2013/11/27)

>  <Rbt.Parameter_File>
/export/apps/rDock/src/rDock_2013.1_src/data/scripts/dock_solv.prm

>  <Rbt.Receptor>
prm/blind_docking_60.prm

>  <SCORE>
-18.6269

>  <SCORE.INTER>
-15.8677

>  <SCORE.INTER.CONST>
1

>  <SCORE.INTER.POLAR>
0

>  <SCORE.INTER.ROT>
2

>  <SCORE.INTER.SOLV>
11.1052

>  <SCORE.INTER.VDW>
-19.2136

>  <SCORE.INTER.norm>
-0.835143

>  <SCORE.INTRA>
-2.75921

>  <SCORE.INTRA.DIHEDRAL>
-4.43275

>  <SCORE.INTRA.DIHEDRAL.0>
6.26853

>  <SCORE.INTRA.POLAR>
0

>  <SCORE.INTRA.POLAR.0>
0

>  <SCORE.INTRA.REPUL>
0

>  <SCORE.INTRA.REPUL.0>
0

>  <SCORE.INTRA.SOLV>
0.262103

>  <SCORE.INTRA.SOLV.lig_0>
-38.4926

>  <SCORE.INTRA.VDW>
-0.673886

>  <SCORE.INTRA.VDW.0>
-0.59057

>  <SCORE.INTRA.norm>
-0.145222

>  <SCORE.RESTR>
0

>  <SCORE.RESTR.CAVITY>
0

>  <SCORE.RESTR.norm>
0

>  <SCORE.SYSTEM>
0

>  <SCORE.SYSTEM.CONST>
0

>  <SCORE.SYSTEM.DIHEDRAL>
0

>  <SCORE.SYSTEM.SOLV>
0

>  <SCORE.SYSTEM.norm>
0

>  <SCORE.heavy>
19

>  <SCORE.norm>
-0.980365

>  <RMSD>
15.100

$$$$
ligand
 OpenBabel11021811483D
libRbt.so/2013.1/901 2013/11/27
 19 21  0  0  0  0  0  0  0  0999 V2000
  -12.3554   -2.0657   -2.7416 C   0  0  0  0  0  0  0  0  0  0  0  0
  -12.4588   -0.8034   -2.0664 O   0  0  0  0  0  0  0  0  0  0  0  0
  -11.1600   -2.0630   -3.6971 C   0  0  1  0  0  0  0  0  0  0  0  0
  -11.1109   -0.8348   -4.4482 O   0  0  0  0  0  0  0  0  0  0  0  0
   -9.8513   -2.1741   -2.9348 C   0  0  1  0  0  0  0  0  0  0  0  0
   -9.3029   -3.4939   -3.0385 O   0  0  0  0  0  0  0  0  0  0  0  0
   -8.9201   -1.1621   -3.5663 C   0  0  0  0  0  0  0  0  0  0  0  0
   -9.8043   -0.2435   -4.3969 C   0  0  2  0  0  0  0  0  0  0  0  0
   -7.2939    4.2900   -3.5380 N   0  0  0  0  0  0  0  0  0  0  0  0
   -6.8746    3.1730   -4.1913 C   0  0  1  0  0  0  0  0  0  0  0  0
   -5.6313    3.1518   -4.7277 N   0  0  0  0  0  0  0  0  0  0  0  0
   -7.6722    2.0773   -4.3141 N   0  0  0  0  0  0  0  0  0  0  0  0
   -8.9283    2.0455   -3.7919 C   0  0  2  0  0  0  0  0  0  0  0  0
   -9.4081    3.1528   -3.1159 C   0  0  1  0  0  0  0  0  0  0  0  0
   -8.5283    4.3428   -2.9907 C   0  0  0  0  0  0  0  0  0  0  0  0
   -8.9193    5.3706   -2.3934 O   0  0  0  0  0  0  0  0  0  0  0  0
  -10.6585    2.8746   -2.7080 N   0  0  0  0  0  0  0  0  0  0  0  0
  -10.9485    1.6170   -3.1162 C   0  0  0  0  0  0  0  0  0  0  0  0
   -9.8910    1.1117   -3.7771 N   0  0  1  0  0  0  0  0  0  0  0  0
  1  2  1  0  0  0  0
  3  1  1  1  0  0  0
  3  4  1  0  0  0  0
  3  5  1  0  0  0  0
  5  6  1  6  0  0  0
  5  7  1  0  0  0  0
  7  8  1  0  0  0  0
  8  4  1  1  0  0  0
  8 19  1  0  0  0  0
  9 15  1  0  0  0  0
  9 10  1  0  0  0  0
 10 11  1  1  0  0  0
 10 12  1  0  0  0  0
 13 12  1  1  0  0  0
 13 14  1  0  0  0  0
 13 19  1  0  0  0  0
 14 15  1  6  0  0  0
 14 17  1  0  0  0  0
 15 16  2  0  0  0  0
 17 18  1  0  0  0  0
 19 18  1  6  0  0  0
M  END
>  <CHROM.1>
-44.50243978,-166.78474414,-9.49988791,1.00118030,-3.43379758,2.09067612
-0.35461478,-3.00435166

>  <Name>
ligand

>  <RI>
0

>  <Rbt.Current_Directory>
/home/itssahil/PROJECTS/Mol_Feturizer/New_Systems/rnas/3SKI

>  <Rbt.Executable>
rbdock ($Id: //depot/dev/client3/rdock/2013.1/src/exe/rbdock.cxx#4 $)

>  <Rbt.Library>
libRbt.so (2013.1, Build901 2013/11/27)

>  <Rbt.Parameter_File>
/export/apps/rDock/src/rDock_2013.1_src/data/scripts/dock_solv.prm

>  <Rbt.Receptor>
prm/blind_docking_80.prm

>  <SCORE>
-18.6053

>  <SCORE.INTER>
-15.957

>  <SCORE.INTER.CONST>
1

>  <SCORE.INTER.POLAR>
0

>  <SCORE.INTER.ROT>
2

>  <SCORE.INTER.SOLV>
11.1309

>  <SCORE.INTER.VDW>
-19.2816

>  <SCORE.INTER.norm>
-0.839841

>  <SCORE.INTRA>
-2.64835

>  <SCORE.INTRA.DIHEDRAL>
-4.2274

>  <SCORE.INTRA.DIHEDRAL.0>
6.26853

>  <SCORE.INTRA.POLAR>
0

>  <SCORE.INTRA.POLAR.0>
0

>  <SCORE.INTRA.REPUL>
0

>  <SCORE.INTRA.REPUL.0>
0

>  <SCORE.INTRA.SOLV>
0.261434

>  <SCORE.INTRA.SOLV.lig_0>
-38.4926

>  <SCORE.INTRA.VDW>
-0.665365

>  <SCORE.INTRA.VDW.0>
-0.59057

>  <SCORE.INTRA.norm>
-0.139387

>  <SCORE.RESTR>
0

>  <SCORE.RESTR.CAVITY>
0

>  <SCORE.RESTR.norm>
0

>  <SCORE.SYSTEM>
0

>  <SCORE.SYSTEM.CONST>
0

>  <SCORE.SYSTEM.DIHEDRAL>
0

>  <SCORE.SYSTEM.SOLV>
0

>  <SCORE.SYSTEM.norm>
0

>  <SCORE.heavy>
19

>  <SCORE.norm>
-0.979228

>  <RMSD>
15.100

$$$$
ligand
 OpenBabel11021811483D
libRbt.so/2013.1/901 2013/11/27
 19 21  0  0  0  0  0  0  0  0999 V2000
  -12.3201   -2.1071   -2.7920 C   0  0  0  0  0  0  0  0  0  0  0  0
  -12.4191   -0.8630   -2.0830 O   0  0  0  0  0  0  0  0  0  0  0  0
  -11.1165   -2.0882   -3.7368 C   0  0  1  0  0  0  0  0  0  0  0  0
  -11.0696   -0.8536   -4.4775 O   0  0  0  0  0  0  0  0  0  0  0  0
   -9.8138   -2.1962   -2.9639 C   0  0  1  0  0  0  0  0  0  0  0  0
   -9.2551   -3.5113   -3.0733 O   0  0  0  0  0  0  0  0  0  0  0  0
   -8.8843   -1.1727   -3.5790 C   0  0  0  0  0  0  0  0  0  0  0  0
   -9.7676   -0.2536   -4.4099 C   0  0  2  0  0  0  0  0  0  0  0  0
   -7.3140    4.3071   -3.5308 N   0  0  0  0  0  0  0  0  0  0  0  0
   -6.8831    3.2005   -4.1942 C   0  0  1  0  0  0  0  0  0  0  0  0
   -5.6424    3.1999   -4.7369 N   0  0  0  0  0  0  0  0  0  0  0  0
   -7.6666    2.0950   -4.3209 N   0  0  0  0  0  0  0  0  0  0  0  0
   -8.9195    2.0427   -3.7928 C   0  0  2  0  0  0  0  0  0  0  0  0
   -9.4107    3.1386   -3.1065 C   0  0  1  0  0  0  0  0  0  0  0  0
   -8.5463    4.3393   -2.9771 C   0  0  0  0  0  0  0  0  0  0  0  0
   -8.9481    5.3575   -2.3706 O   0  0  0  0  0  0  0  0  0  0  0  0
  -10.6552    2.8407   -2.6945 N   0  0  0  0  0  0  0  0  0  0  0  0
  -10.9303    1.5822   -3.1103 C   0  0  0  0  0  0  0  0  0  0  0  0
   -9.8695    1.0959   -3.7800 N   0  0  1  0  0  0  0  0  0  0  0  0
  1  2  1  0  0  0  0
  3  1  1  1  0  0  0
  3  4  1  0  0  0  0
  3  5  1  0  0  0  0
  5  6  1  6  0  0  0
  5  7  1  0  0  0  0
  7  8  1  0  0  0  0
  8  4  1  1  0  0  0
  8 19  1  0  0  0  0
  9 15  1  0  0  0  0
  9 10  1  0  0  0  0
 10 11  1  1  0  0  0
 10 12  1  0  0  0  0
 13 12  1  1  0  0  0
 13 14  1  0  0  0  0
 13 19  1  0  0  0  0
 14 15  1  6  0  0  0
 14 17  1  0  0  0  0
 15 16  2  0  0  0  0
 17 18  1  0  0  0  0
 19 18  1  6  0  0  0
M  END
>  <CHROM.1>
-45.92469462,-165.91422619,-9.48420410,0.98934301,-3.44355713,2.08088097
-0.35966257,-2.99945441

>  <Name>
ligand

>  <RI>
0

>  <Rbt.Current_Directory>
/home/itssahil/PROJECTS/Mol_Feturizer/New_Systems/rnas/3SKI

>  <Rbt.Executable>
rbdock ($Id: //depot/dev/client3/rdock/2013.1/src/exe/rbdock.cxx#4 $)

>  <Rbt.Library>
libRbt.so (2013.1, Build901 2013/11/27)

>  <Rbt.Parameter_File>
/export/apps/rDock/src/rDock_2013.1_src/data/scripts/dock_solv.prm

>  <Rbt.Receptor>
prm/blind_docking_60.prm

>  <SCORE>
-18.6445

>  <SCORE.INTER>
-15.9174

>  <SCORE.INTER.CONST>
1

>  <SCORE.INTER.POLAR>
0

>  <SCORE.INTER.ROT>
2

>  <SCORE.INTER.SOLV>
11.1634

>  <SCORE.INTER.VDW>
-19.2661

>  <SCORE.INTER.norm>
-0.837758

>  <SCORE.INTRA>
-2.72712

>  <SCORE.INTRA.DIHEDRAL>
-4.36438

>  <SCORE.INTRA.DIHEDRAL.0>
6.26853

>  <SCORE.INTRA.POLAR>
0

>  <SCORE.INTRA.POLAR.0>
0

>  <SCORE.INTRA.REPUL>
0

>  <SCORE.INTRA.REPUL.0>
0

>  <SCORE.INTRA.SOLV>
0.261967

>  <SCORE.INTRA.SOLV.lig_0>
-38.4926

>  <SCORE.INTRA.VDW>
-0.675911

>  <SCORE.INTRA.VDW.0>
-0.59057

>  <SCORE.INTRA.norm>
-0.143533

>  <SCORE.RESTR>
0

>  <SCORE.RESTR.CAVITY>
0

>  <SCORE.RESTR.norm>
0

>  <SCORE.SYSTEM>
0

>  <SCORE.SYSTEM.CONST>
0

>  <SCORE.SYSTEM.DIHEDRAL>
0

>  <SCORE.SYSTEM.SOLV>
0

>  <SCORE.SYSTEM.norm>
0

>  <SCORE.heavy>
19

>  <SCORE.norm>
-0.981291

>  <RMSD>
15.101

$$$$
ligand
 OpenBabel11021811483D
libRbt.so/2013.1/901 2013/11/27
 19 21  0  0  0  0  0  0  0  0999 V2000
    5.4222   -0.5469   -0.1888 C   0  0  0  0  0  0  0  0  0  0  0  0
    5.4017    0.8858   -0.1032 O   0  0  0  0  0  0  0  0  0  0  0  0
    4.8224   -1.0103   -1.5182 C   0  0  1  0  0  0  0  0  0  0  0  0
    4.9737   -2.4340   -1.6766 O   0  0  0  0  0  0  0  0  0  0  0  0
    3.3355   -0.7084   -1.5812 C   0  0  1  0  0  0  0  0  0  0  0  0
    3.0726    0.4223   -2.4216 O   0  0  0  0  0  0  0  0  0  0  0  0
    2.6867   -1.9524   -2.1482 C   0  0  0  0  0  0  0  0  0  0  0  0
    3.7311   -3.0537   -2.0394 C   0  0  2  0  0  0  0  0  0  0  0  0
    3.7309   -4.1652    3.0946 N   0  0  0  0  0  0  0  0  0  0  0  0
    4.2145   -3.0754    2.4399 C   0  0  1  0  0  0  0  0  0  0  0  0
    4.8003   -2.0848    3.1539 N   0  0  0  0  0  0  0  0  0  0  0  0
    4.1275   -2.9598    1.0867 N   0  0  0  0  0  0  0  0  0  0  0  0
    3.5510   -3.9268    0.3225 C   0  0  2  0  0  0  0  0  0  0  0  0
    3.0422   -5.0584    0.9338 C   0  0  1  0  0  0  0  0  0  0  0  0
    3.1417   -5.1712    2.4113 C   0  0  0  0  0  0  0  0  0  0  0  0
    2.6910   -6.1730    3.0108 O   0  0  0  0  0  0  0  0  0  0  0  0
    2.5281   -5.8472   -0.0258 N   0  0  0  0  0  0  0  0  0  0  0  0
    2.7191   -5.2219   -1.2110 C   0  0  0  0  0  0  0  0  0  0  0  0
    3.3445   -4.0499   -0.9970 N   0  0  1  0  0  0  0  0  0  0  0  0
  1  2  1  0  0  0  0
  3  1  1  1  0  0  0
  3  4  1  0  0  0  0
  3  5  1  0  0  0  0
  5  6  1  6  0  0  0
  5  7  1  0  0  0  0
  7  8  1  0  0  0  0
  8  4  1  1  0  0  0
  8 19  1  0  0  0  0
  9 15  1  0  0  0  0
  9 10  1  0  0  0  0
 10 11  1  6  0  0  0
 10 12  1  0  0  0  0
 13 12  1  6  0  0  0
 13 14  1  0  0  0  0
 13 19  1  0  0  0  0
 14 15  1  1  0  0  0
 14 17  1  0  0  0  0
 15 16  2  0  0  0  0
 17 18  1  0  0  0  0
 19 18  1  1  0  0  0
M  END
>  <CHROM.1>
173.62698132,35.89625489,3.77686863,-2.87629590,0.10910155,-1.15556371,1.11025807
2.12342546

>  <Name>
ligand

>  <RI>
0

>  <Rbt.Current_Directory>
/home/itssahil/PROJECTS/Mol_Feturizer/New_Systems/rnas/3SKI

>  <Rbt.Executable>
rbdock ($Id: //depot/dev/client3/rdock/2013.1/src/exe/rbdock.cxx#4 $)

>  <Rbt.Library>
libRbt.so (2013.1, Build901 2013/11/27)

>  <Rbt.Parameter_File>
/export/apps/rDock/src/rDock_2013.1_src/data/scripts/dock_solv.prm

>  <Rbt.Receptor>
prm/blind_docking_80.prm

>  <SCORE>
-19.2065

>  <SCORE.INTER>
-16.1172

>  <SCORE.INTER.CONST>
1

>  <SCORE.INTER.POLAR>
0

>  <SCORE.INTER.ROT>
2

>  <SCORE.INTER.SOLV>
8.62616

>  <SCORE.INTER.VDW>
-18.5535

>  <SCORE.INTER.norm>
-0.848274

>  <SCORE.INTRA>
-3.08927

>  <SCORE.INTRA.DIHEDRAL>
-4.94024

>  <SCORE.INTRA.DIHEDRAL.0>
6.26853

>  <SCORE.INTRA.POLAR>
0

>  <SCORE.INTRA.POLAR.0>
0

>  <SCORE.INTRA.REPUL>
0

>  <SCORE.INTRA.REPUL.0>
0

>  <SCORE.INTRA.SOLV>
1.18512

>  <SCORE.INTRA.SOLV.lig_0>
-38.4926

>  <SCORE.INTRA.VDW>
-1.2117

>  <SCORE.INTRA.VDW.0>
-0.59057

>  <SCORE.INTRA.norm>
-0.162593

>  <SCORE.RESTR>
0

>  <SCORE.RESTR.CAVITY>
0

>  <SCORE.RESTR.norm>
0

>  <SCORE.SYSTEM>
0

>  <SCORE.SYSTEM.CONST>
0

>  <SCORE.SYSTEM.DIHEDRAL>
0

>  <SCORE.SYSTEM.SOLV>
0

>  <SCORE.SYSTEM.norm>
0

>  <SCORE.heavy>
19

>  <SCORE.norm>
-1.01087

>  <RMSD>
15.102

$$$$
ligand
 OpenBabel11021811483D
libRbt.so/2013.1/901 2013/11/27
 19 21  0  0  0  0  0  0  0  0999 V2000
  -12.5553   -1.9199   -2.3035 C   0  0  0  0  0  0  0  0  0  0  0  0
  -13.7120   -1.2398   -2.8131 O   0  0  0  0  0  0  0  0  0  0  0  0
  -11.4774   -2.0220   -3.3850 C   0  0  1  0  0  0  0  0  0  0  0  0
  -11.4360   -0.8203   -4.1781 O   0  0  0  0  0  0  0  0  0  0  0  0
  -10.1008   -2.1995   -2.7690 C   0  0  1  0  0  0  0  0  0  0  0  0
   -9.6519   -3.5552   -2.8879 O   0  0  0  0  0  0  0  0  0  0  0  0
   -9.1847   -1.2689   -3.5337 C   0  0  0  0  0  0  0  0  0  0  0  0
  -10.0972   -0.3160   -4.2919 C   0  0  2  0  0  0  0  0  0  0  0  0
   -7.1431    3.9875   -3.7037 N   0  0  0  0  0  0  0  0  0  0  0  0
   -6.8617    2.8189   -4.3403 C   0  0  1  0  0  0  0  0  0  0  0  0
   -5.6550    2.6679   -4.9361 N   0  0  0  0  0  0  0  0  0  0  0  0
   -7.7611    1.7988   -4.3885 N   0  0  0  0  0  0  0  0  0  0  0  0
   -8.9862    1.8979   -3.8047 C   0  0  2  0  0  0  0  0  0  0  0  0
   -9.3275    3.0632   -3.1421 C   0  0  1  0  0  0  0  0  0  0  0  0
   -8.3376    4.1695   -3.0986 C   0  0  0  0  0  0  0  0  0  0  0  0
   -8.6019    5.2452   -2.5163 O   0  0  0  0  0  0  0  0  0  0  0  0
  -10.5752    2.9133   -2.6647 N   0  0  0  0  0  0  0  0  0  0  0  0
  -10.9993    1.6772   -3.0174 C   0  0  0  0  0  0  0  0  0  0  0  0
  -10.0279    1.0581   -3.7127 N   0  0  1  0  0  0  0  0  0  0  0  0
  1  2  1  0  0  0  0
  3  1  1  1  0  0  0
  3  4  1  0  0  0  0
  3  5  1  0  0  0  0
  5  6  1  6  0  0  0
  5  7  1  0  0  0  0
  7  8  1  0  0  0  0
  8  4  1  1  0  0  0
  8 19  1  0  0  0  0
  9 15  1  0  0  0  0
  9 10  1  0  0  0  0
 10 11  1  1  0  0  0
 10 12  1  0  0  0  0
 13 12  1  1  0  0  0
 13 14  1  0  0  0  0
 13 19  1  0  0  0  0
 14 15  1  6  0  0  0
 14 17  1  0  0  0  0
 15 16  2  0  0  0  0
 17 18  1  0  0  0  0
 19 18  1  6  0  0  0
M  END
>  <CHROM.1>
38.01140820,-170.63775918,-9.65905153,0.87286182,-3.43429927,2.19683619,-0.30285206
-3.03363525

>  <Name>
ligand

>  <RI>
0

>  <Rbt.Current_Directory>
/home/itssahil/PROJECTS/Mol_Feturizer/New_Systems/rnas/3SKI

>  <Rbt.Executable>
rbdock ($Id: //depot/dev/client3/rdock/2013.1/src/exe/rbdock.cxx#4 $)

>  <Rbt.Library>
libRbt.so (2013.1, Build901 2013/11/27)

>  <Rbt.Parameter_File>
/export/apps/rDock/src/rDock_2013.1_src/data/scripts/dock_solv.prm

>  <Rbt.Receptor>
prm/blind_docking_80.prm

>  <SCORE>
-18.5068

>  <SCORE.INTER>
-16.3121

>  <SCORE.INTER.CONST>
1

>  <SCORE.INTER.POLAR>
0

>  <SCORE.INTER.ROT>
2

>  <SCORE.INTER.SOLV>
11.4142

>  <SCORE.INTER.VDW>
-19.6128

>  <SCORE.INTER.norm>
-0.85853

>  <SCORE.INTRA>
-2.19473

>  <SCORE.INTRA.DIHEDRAL>
-3.50028

>  <SCORE.INTRA.DIHEDRAL.0>
6.26853

>  <SCORE.INTRA.POLAR>
0

>  <SCORE.INTRA.POLAR.0>
0

>  <SCORE.INTRA.REPUL>
0

>  <SCORE.INTRA.REPUL.0>
0

>  <SCORE.INTRA.SOLV>
-0.148301

>  <SCORE.INTRA.SOLV.lig_0>
-38.4926

>  <SCORE.INTRA.VDW>
-0.370439

>  <SCORE.INTRA.VDW.0>
-0.59057

>  <SCORE.INTRA.norm>
-0.115512

>  <SCORE.RESTR>
0

>  <SCORE.RESTR.CAVITY>
0

>  <SCORE.RESTR.norm>
0

>  <SCORE.SYSTEM>
0

>  <SCORE.SYSTEM.CONST>
0

>  <SCORE.SYSTEM.DIHEDRAL>
0

>  <SCORE.SYSTEM.SOLV>
0

>  <SCORE.SYSTEM.norm>
0

>  <SCORE.heavy>
19

>  <SCORE.norm>
-0.974042

>  <RMSD>
15.103

$$$$
ligand
 OpenBabel11021811483D
libRbt.so/2013.1/901 2013/11/27
 19 21  0  0  0  0  0  0  0  0999 V2000
    7.1532   -1.1283    1.4378 C   0  0  0  0  0  0  0  0  0  0  0  0
    7.8950   -0.8952    2.6443 O   0  0  0  0  0  0  0  0  0  0  0  0
    5.9615   -0.1721    1.3514 C   0  0  1  0  0  0  0  0  0  0  0  0
    5.2963   -0.3007    0.0802 O   0  0  0  0  0  0  0  0  0  0  0  0
    4.9350   -0.4804    2.4270 C   0  0  1  0  0  0  0  0  0  0  0  0
    4.9967    0.4780    3.4907 O   0  0  0  0  0  0  0  0  0  0  0  0
    3.5882   -0.4228    1.7393 C   0  0  0  0  0  0  0  0  0  0  0  0
    3.8804   -0.4662    0.2465 C   0  0  2  0  0  0  0  0  0  0  0  0
    3.4546   -5.6383    1.0596 N   0  0  0  0  0  0  0  0  0  0  0  0
    3.9327   -4.6646    1.8802 C   0  0  1  0  0  0  0  0  0  0  0  0
    4.3870   -5.0045    3.1099 N   0  0  0  0  0  0  0  0  0  0  0  0
    3.9691   -3.3604    1.4933 N   0  0  0  0  0  0  0  0  0  0  0  0
    3.5273   -2.9658    0.2683 C   0  0  2  0  0  0  0  0  0  0  0  0
    3.0308   -3.9128   -0.6091 C   0  0  1  0  0  0  0  0  0  0  0  0
    2.9949   -5.3323   -0.1738 C   0  0  0  0  0  0  0  0  0  0  0  0
    2.5494   -6.2247   -0.9296 O   0  0  0  0  0  0  0  0  0  0  0  0
    2.6592   -3.2759   -1.7332 N   0  0  0  0  0  0  0  0  0  0  0  0
    2.9252   -1.9599   -1.5611 C   0  0  0  0  0  0  0  0  0  0  0  0
    3.4560   -1.7720   -0.3391 N   0  0  1  0  0  0  0  0  0  0  0  0
  1  2  1  0  0  0  0
  3  1  1  6  0  0  0
  3  4  1  0  0  0  0
  3  5  1  0  0  0  0
  5  6  1  1  0  0  0
  5  7  1  0  0  0  0
  7  8  1  0  0  0  0
  8  4  1  1  0  0  0
  8 19  1  0  0  0  0
  9 15  1  0  0  0  0
  9 10  1  0  0  0  0
 10 11  1  6  0  0  0
 10 12  1  0  0  0  0
 13 12  1  6  0  0  0
 13 14  1  0  0  0  0
 13 19  1  0  0  0  0
 14 15  1  1  0  0  0
 14 17  1  0  0  0  0
 15 16  2  0  0  0  0
 17 18  1  0  0  0  0
 19 18  1  1  0  0  0
M  END
>  <CHROM.1>
173.85115610,82.91463742,4.29955223,-2.45206606,0.87854834,-0.61480807,0.92517012
2.74938792

>  <Name>
ligand

>  <RI>
0

>  <Rbt.Current_Directory>
/home/itssahil/PROJECTS/Mol_Feturizer/New_Systems/rnas/3SKI

>  <Rbt.Executable>
rbdock ($Id: //depot/dev/client3/rdock/2013.1/src/exe/rbdock.cxx#4 $)

>  <Rbt.Library>
libRbt.so (2013.1, Build901 2013/11/27)

>  <Rbt.Parameter_File>
/export/apps/rDock/src/rDock_2013.1_src/data/scripts/dock_solv.prm

>  <Rbt.Receptor>
prm/blind_docking_80.prm

>  <SCORE>
-17.1981

>  <SCORE.INTER>
-14.2013

>  <SCORE.INTER.CONST>
1

>  <SCORE.INTER.POLAR>
0

>  <SCORE.INTER.ROT>
2

>  <SCORE.INTER.SOLV>
5.59303

>  <SCORE.INTER.VDW>
-16.2652

>  <SCORE.INTER.norm>
-0.747438

>  <SCORE.INTRA>
-2.99678

>  <SCORE.INTRA.DIHEDRAL>
-4.91501

>  <SCORE.INTRA.DIHEDRAL.0>
6.26853

>  <SCORE.INTRA.POLAR>
0

>  <SCORE.INTRA.POLAR.0>
0

>  <SCORE.INTRA.REPUL>
0

>  <SCORE.INTRA.REPUL.0>
0

>  <SCORE.INTRA.SOLV>
-0.00290432

>  <SCORE.INTRA.SOLV.lig_0>
-38.4926

>  <SCORE.INTRA.VDW>
-0.537828

>  <SCORE.INTRA.VDW.0>
-0.59057

>  <SCORE.INTRA.norm>
-0.157725

>  <SCORE.RESTR>
0

>  <SCORE.RESTR.CAVITY>
0

>  <SCORE.RESTR.norm>
0

>  <SCORE.SYSTEM>
0

>  <SCORE.SYSTEM.CONST>
0

>  <SCORE.SYSTEM.DIHEDRAL>
0

>  <SCORE.SYSTEM.SOLV>
0

>  <SCORE.SYSTEM.norm>
0

>  <SCORE.heavy>
19

>  <SCORE.norm>
-0.905163

>  <RMSD>
15.104

$$$$
ligand
 OpenBabel11021811483D
libRbt.so/2013.1/901 2013/11/27
 19 21  0  0  0  0  0  0  0  0999 V2000
    5.4110   -0.5763   -0.2385 C   0  0  0  0  0  0  0  0  0  0  0  0
    5.3906    0.8568   -0.1616 O   0  0  0  0  0  0  0  0  0  0  0  0
    4.8031   -1.0480   -1.5614 C   0  0  1  0  0  0  0  0  0  0  0  0
    4.9562   -2.4722   -1.7132 O   0  0  0  0  0  0  0  0  0  0  0  0
    3.3153   -0.7493   -1.6159 C   0  0  1  0  0  0  0  0  0  0  0  0
    3.0443    0.3763   -2.4604 O   0  0  0  0  0  0  0  0  0  0  0  0
    2.6651   -1.9976   -2.1718 C   0  0  0  0  0  0  0  0  0  0  0  0
    3.7124   -3.0962   -2.0642 C   0  0  2  0  0  0  0  0  0  0  0  0
    3.7171   -4.1644    3.0790 N   0  0  0  0  0  0  0  0  0  0  0  0
    4.1902   -3.0751    2.4157 C   0  0  1  0  0  0  0  0  0  0  0  0
    4.7646   -2.0725    3.1220 N   0  0  0  0  0  0  0  0  0  0  0  0
    4.1038   -2.9719    1.0615 N   0  0  0  0  0  0  0  0  0  0  0  0
    3.5384   -3.9512    0.3048 C   0  0  2  0  0  0  0  0  0  0  0  0
    3.0406   -5.0830    0.9250 C   0  0  1  0  0  0  0  0  0  0  0  0
    3.1394   -5.1823    2.4035 C   0  0  0  0  0  0  0  0  0  0  0  0
    2.6984   -6.1836    3.0108 O   0  0  0  0  0  0  0  0  0  0  0  0
    2.5361   -5.8851   -0.0286 N   0  0  0  0  0  0  0  0  0  0  0  0
    2.7221   -5.2679   -1.2188 C   0  0  0  0  0  0  0  0  0  0  0  0
    3.3348   -4.0876   -1.0139 N   0  0  1  0  0  0  0  0  0  0  0  0
  1  2  1  0  0  0  0
  3  1  1  1  0  0  0
  3  4  1  0  0  0  0
  3  5  1  0  0  0  0
  5  6  1  6  0  0  0
  5  7  1  0  0  0  0
  7  8  1  0  0  0  0
  8  4  1  1  0  0  0
  8 19  1  0  0  0  0
  9 15  1  0  0  0  0
  9 10  1  0  0  0  0
 10 11  1  6  0  0  0
 10 12  1  0  0  0  0
 13 12  1  6  0  0  0
 13 14  1  0  0  0  0
 13 19  1  0  0  0  0
 14 15  1  1  0  0  0
 14 17  1  0  0  0  0
 15 16  2  0  0  0  0
 17 18  1  0  0  0  0
 19 18  1  1  0  0  0
M  END
>  <CHROM.1>
173.51587414,36.58984117,3.76341668,-2.90278620,0.08384238,-1.15594422,1.11560437
2.11648121

>  <Name>
ligand

>  <RI>
0

>  <Rbt.Current_Directory>
/home/itssahil/PROJECTS/Mol_Feturizer/New_Systems/rnas/3SKI

>  <Rbt.Executable>
rbdock ($Id: //depot/dev/client3/rdock/2013.1/src/exe/rbdock.cxx#4 $)

>  <Rbt.Library>
libRbt.so (2013.1, Build901 2013/11/27)

>  <Rbt.Parameter_File>
/export/apps/rDock/src/rDock_2013.1_src/data/scripts/dock_solv.prm

>  <Rbt.Receptor>
prm/blind_docking_80.prm

>  <SCORE>
-19.2725

>  <SCORE.INTER>
-16.1756

>  <SCORE.INTER.CONST>
1

>  <SCORE.INTER.POLAR>
0

>  <SCORE.INTER.ROT>
2

>  <SCORE.INTER.SOLV>
8.7863

>  <SCORE.INTER.VDW>
-18.6458

>  <SCORE.INTER.norm>
-0.851348

>  <SCORE.INTRA>
-3.09694

>  <SCORE.INTRA.DIHEDRAL>
-4.93501

>  <SCORE.INTRA.DIHEDRAL.0>
6.26853

>  <SCORE.INTRA.POLAR>
0

>  <SCORE.INTRA.POLAR.0>
0

>  <SCORE.INTRA.REPUL>
0

>  <SCORE.INTRA.REPUL.0>
0

>  <SCORE.INTRA.SOLV>
1.18039

>  <SCORE.INTRA.SOLV.lig_0>
-38.4926

>  <SCORE.INTRA.VDW>
-1.21963

>  <SCORE.INTRA.VDW.0>
-0.59057

>  <SCORE.INTRA.norm>
-0.162997

>  <SCORE.RESTR>
0

>  <SCORE.RESTR.CAVITY>
0

>  <SCORE.RESTR.norm>
0

>  <SCORE.SYSTEM>
0

>  <SCORE.SYSTEM.CONST>
0

>  <SCORE.SYSTEM.DIHEDRAL>
0

>  <SCORE.SYSTEM.SOLV>
0

>  <SCORE.SYSTEM.norm>
0

>  <SCORE.heavy>
19

>  <SCORE.norm>
-1.01434

>  <RMSD>
15.106

$$$$
ligand
 OpenBabel11021811483D
libRbt.so/2013.1/901 2013/11/27
 19 21  0  0  0  0  0  0  0  0999 V2000
    5.3612   -0.5084   -0.1839 C   0  0  0  0  0  0  0  0  0  0  0  0
    5.2298    0.9166   -0.0740 O   0  0  0  0  0  0  0  0  0  0  0  0
    4.8018   -0.9939   -1.5230 C   0  0  1  0  0  0  0  0  0  0  0  0
    4.9753   -2.4171   -1.6618 O   0  0  0  0  0  0  0  0  0  0  0  0
    3.3133   -0.7121   -1.6273 C   0  0  1  0  0  0  0  0  0  0  0  0
    3.0575    0.4059   -2.4865 O   0  0  0  0  0  0  0  0  0  0  0  0
    2.6952   -1.9705   -2.1969 C   0  0  0  0  0  0  0  0  0  0  0  0
    3.7505   -3.0568   -2.0492 C   0  0  2  0  0  0  0  0  0  0  0  0
    3.7660   -4.1808    3.0820 N   0  0  0  0  0  0  0  0  0  0  0  0
    4.2686   -3.1004    2.4260 C   0  0  1  0  0  0  0  0  0  0  0  0
    4.8819   -2.1249    3.1376 N   0  0  0  0  0  0  0  0  0  0  0  0
    4.1736   -2.9796    1.0738 N   0  0  0  0  0  0  0  0  0  0  0  0
    3.5696   -3.9316    0.3120 C   0  0  2  0  0  0  0  0  0  0  0  0
    3.0406   -5.0532    0.9247 C   0  0  1  0  0  0  0  0  0  0  0  0
    3.1492   -5.1718    2.4011 C   0  0  0  0  0  0  0  0  0  0  0  0
    2.6810   -6.1648    3.0018 O   0  0  0  0  0  0  0  0  0  0  0  0
    2.5015   -5.8279   -0.0327 N   0  0  0  0  0  0  0  0  0  0  0  0
    2.6971   -5.2040   -1.2179 C   0  0  0  0  0  0  0  0  0  0  0  0
    3.3500   -4.0468   -1.0062 N   0  0  1  0  0  0  0  0  0  0  0  0
  1  2  1  0  0  0  0
  3  1  1  1  0  0  0
  3  4  1  0  0  0  0
  3  5  1  0  0  0  0
  5  6  1  6  0  0  0
  5  7  1  0  0  0  0
  7  8  1  0  0  0  0
  8  4  1  1  0  0  0
  8 19  1  0  0  0  0
  9 15  1  0  0  0  0
  9 10  1  0  0  0  0
 10 11  1  6  0  0  0
 10 12  1  0  0  0  0
 13 12  1  6  0  0  0
 13 14  1  0  0  0  0
 13 19  1  0  0  0  0
 14 15  1  1  0  0  0
 14 17  1  0  0  0  0
 15 16  2  0  0  0  0
 17 18  1  0  0  0  0
 19 18  1  1  0  0  0
M  END
>  <CHROM.1>
177.86422369,33.00821892,3.77112624,-2.87550742,0.09646959,-1.18704058,1.11074211
2.14694160

>  <Name>
ligand

>  <RI>
0

>  <Rbt.Current_Directory>
/home/itssahil/PROJECTS/Mol_Feturizer/New_Systems/rnas/3SKI

>  <Rbt.Executable>
rbdock ($Id: //depot/dev/client3/rdock/2013.1/src/exe/rbdock.cxx#4 $)

>  <Rbt.Library>
libRbt.so (2013.1, Build901 2013/11/27)

>  <Rbt.Parameter_File>
/export/apps/rDock/src/rDock_2013.1_src/data/scripts/dock_solv.prm

>  <Rbt.Receptor>
prm/blind_docking_80.prm

>  <SCORE>
-19.2887

>  <SCORE.INTER>
-16.1887

>  <SCORE.INTER.CONST>
1

>  <SCORE.INTER.POLAR>
0

>  <SCORE.INTER.ROT>
2

>  <SCORE.INTER.SOLV>
8.13873

>  <SCORE.INTER.VDW>
-18.4387

>  <SCORE.INTER.norm>
-0.852039

>  <SCORE.INTRA>
-3.09997

>  <SCORE.INTRA.DIHEDRAL>
-5.06837

>  <SCORE.INTRA.DIHEDRAL.0>
6.26853

>  <SCORE.INTRA.POLAR>
0

>  <SCORE.INTRA.POLAR.0>
0

>  <SCORE.INTRA.REPUL>
0

>  <SCORE.INTRA.REPUL.0>
0

>  <SCORE.INTRA.SOLV>
1.21551

>  <SCORE.INTRA.SOLV.lig_0>
-38.4926

>  <SCORE.INTRA.VDW>
-1.17354

>  <SCORE.INTRA.VDW.0>
-0.59057

>  <SCORE.INTRA.norm>
-0.163156

>  <SCORE.RESTR>
0

>  <SCORE.RESTR.CAVITY>
0

>  <SCORE.RESTR.norm>
0

>  <SCORE.SYSTEM>
0

>  <SCORE.SYSTEM.CONST>
0

>  <SCORE.SYSTEM.DIHEDRAL>
0

>  <SCORE.SYSTEM.SOLV>
0

>  <SCORE.SYSTEM.norm>
0

>  <SCORE.heavy>
19

>  <SCORE.norm>
-1.01519

>  <RMSD>
15.109

$$$$
ligand
 OpenBabel11021811483D
libRbt.so/2013.1/901 2013/11/27
 19 21  0  0  0  0  0  0  0  0999 V2000
    5.3601   -0.5151   -0.1825 C   0  0  0  0  0  0  0  0  0  0  0  0
    5.2643    0.9139   -0.0874 O   0  0  0  0  0  0  0  0  0  0  0  0
    4.7993   -0.9992   -1.5215 C   0  0  1  0  0  0  0  0  0  0  0  0
    4.9731   -2.4223   -1.6620 O   0  0  0  0  0  0  0  0  0  0  0  0
    3.3107   -0.7177   -1.6239 C   0  0  1  0  0  0  0  0  0  0  0  0
    3.0537    0.4011   -2.4816 O   0  0  0  0  0  0  0  0  0  0  0  0
    2.6923   -1.9757   -2.1942 C   0  0  0  0  0  0  0  0  0  0  0  0
    3.7480   -3.0619   -2.0488 C   0  0  2  0  0  0  0  0  0  0  0  0
    3.7646   -4.1889    3.0817 N   0  0  0  0  0  0  0  0  0  0  0  0
    4.2656   -3.1073    2.4265 C   0  0  1  0  0  0  0  0  0  0  0  0
    4.8773   -2.1313    3.1387 N   0  0  0  0  0  0  0  0  0  0  0  0
    4.1706   -2.9858    1.0743 N   0  0  0  0  0  0  0  0  0  0  0  0
    3.5682   -3.9383    0.3119 C   0  0  2  0  0  0  0  0  0  0  0  0
    3.0407   -5.0610    0.9238 C   0  0  1  0  0  0  0  0  0  0  0  0
    3.1494   -5.1804    2.4001 C   0  0  0  0  0  0  0  0  0  0  0  0
    2.6826   -6.1744    3.0002 O   0  0  0  0  0  0  0  0  0  0  0  0
    2.5030   -5.8360   -0.0341 N   0  0  0  0  0  0  0  0  0  0  0  0
    2.6977   -5.2112   -1.2189 C   0  0  0  0  0  0  0  0  0  0  0  0
    3.3489   -4.0531   -1.0064 N   0  0  1  0  0  0  0  0  0  0  0  0
  1  2  1  0  0  0  0
  3  1  1  1  0  0  0
  3  4  1  0  0  0  0
  3  5  1  0  0  0  0
  5  6  1  6  0  0  0
  5  7  1  0  0  0  0
  7  8  1  0  0  0  0
  8  4  1  1  0  0  0
  8 19  1  0  0  0  0
  9 15  1  0  0  0  0
  9 10  1  0  0  0  0
 10 11  1  6  0  0  0
 10 12  1  0  0  0  0
 13 12  1  6  0  0  0
 13 14  1  0  0  0  0
 13 19  1  0  0  0  0
 14 15  1  1  0  0  0
 14 17  1  0  0  0  0
 15 16  2  0  0  0  0
 17 18  1  0  0  0  0
 19 18  1  1  0  0  0
M  END
>  <CHROM.1>
176.17186578,33.11226911,3.77175092,-2.88188534,0.09618129,-1.18570766,1.10884897
2.14731421

>  <Name>
ligand

>  <RI>
0

>  <Rbt.Current_Directory>
/home/itssahil/PROJECTS/Mol_Feturizer/New_Systems/rnas/3SKI

>  <Rbt.Executable>
rbdock ($Id: //depot/dev/client3/rdock/2013.1/src/exe/rbdock.cxx#4 $)

>  <Rbt.Library>
libRbt.so (2013.1, Build901 2013/11/27)

>  <Rbt.Parameter_File>
/export/apps/rDock/src/rDock_2013.1_src/data/scripts/dock_solv.prm

>  <Rbt.Receptor>
prm/blind_docking_80.prm

>  <SCORE>
-19.2624

>  <SCORE.INTER>
-16.1823

>  <SCORE.INTER.CONST>
1

>  <SCORE.INTER.POLAR>
0

>  <SCORE.INTER.ROT>
2

>  <SCORE.INTER.SOLV>
8.18392

>  <SCORE.INTER.VDW>
-18.4495

>  <SCORE.INTER.norm>
-0.851699

>  <SCORE.INTRA>
-3.08013

>  <SCORE.INTRA.DIHEDRAL>
-5.03262

>  <SCORE.INTRA.DIHEDRAL.0>
6.26853

>  <SCORE.INTRA.POLAR>
0

>  <SCORE.INTRA.POLAR.0>
0

>  <SCORE.INTRA.REPUL>
0

>  <SCORE.INTRA.REPUL.0>
0

>  <SCORE.INTRA.SOLV>
1.20695

>  <SCORE.INTRA.SOLV.lig_0>
-38.4926

>  <SCORE.INTRA.VDW>
-1.16729

>  <SCORE.INTRA.VDW.0>
-0.59057

>  <SCORE.INTRA.norm>
-0.162112

>  <SCORE.RESTR>
0

>  <SCORE.RESTR.CAVITY>
0

>  <SCORE.RESTR.norm>
0

>  <SCORE.SYSTEM>
0

>  <SCORE.SYSTEM.CONST>
0

>  <SCORE.SYSTEM.DIHEDRAL>
0

>  <SCORE.SYSTEM.SOLV>
0

>  <SCORE.SYSTEM.norm>
0

>  <SCORE.heavy>
19

>  <SCORE.norm>
-1.01381

>  <RMSD>
15.110

$$$$
ligand
 OpenBabel11021811483D
libRbt.so/2013.1/901 2013/11/27
 19 21  0  0  0  0  0  0  0  0999 V2000
    7.1044   -1.6883    1.2437 C   0  0  0  0  0  0  0  0  0  0  0  0
    7.8107   -1.1494    2.3710 O   0  0  0  0  0  0  0  0  0  0  0  0
    5.9719   -0.7481    0.8250 C   0  0  1  0  0  0  0  0  0  0  0  0
    5.3652   -1.1961   -0.4023 O   0  0  0  0  0  0  0  0  0  0  0  0
    4.8775   -0.7090    1.8770 C   0  0  1  0  0  0  0  0  0  0  0  0
    4.9374    0.5021    2.6408 O   0  0  0  0  0  0  0  0  0  0  0  0
    3.5720   -0.7916    1.1161 C   0  0  0  0  0  0  0  0  0  0  0  0
    3.9360   -1.2553   -0.2868 C   0  0  2  0  0  0  0  0  0  0  0  0
    3.5889   -6.0918    1.7334 N   0  0  0  0  0  0  0  0  0  0  0  0
    4.1259   -4.9618    2.2674 C   0  0  1  0  0  0  0  0  0  0  0  0
    4.6744   -5.0146    3.5044 N   0  0  0  0  0  0  0  0  0  0  0  0
    4.1286   -3.7833    1.5869 N   0  0  0  0  0  0  0  0  0  0  0  0
    3.5928   -3.6764    0.3407 C   0  0  2  0  0  0  0  0  0  0  0  0
    3.0331   -4.7932   -0.2531 C   0  0  1  0  0  0  0  0  0  0  0  0
    3.0349   -6.0727    0.5010 C   0  0  0  0  0  0  0  0  0  0  0  0
    2.5353   -7.1090    0.0086 O   0  0  0  0  0  0  0  0  0  0  0  0
    2.5744   -4.4283   -1.4629 N   0  0  0  0  0  0  0  0  0  0  0  0
    2.8490   -3.1123   -1.6214 C   0  0  0  0  0  0  0  0  0  0  0  0
    3.4715   -2.6547   -0.5198 N   0  0  1  0  0  0  0  0  0  0  0  0
  1  2  1  0  0  0  0
  3  1  1  1  0  0  0
  3  4  1  0  0  0  0
  3  5  1  0  0  0  0
  5  6  1  6  0  0  0
  5  7  1  0  0  0  0
  7  8  1  0  0  0  0
  8  4  1  1  0  0  0
  8 19  1  0  0  0  0
  9 15  1  0  0  0  0
  9 10  1  0  0  0  0
 10 11  1  6  0  0  0
 10 12  1  0  0  0  0
 13 12  1  6  0  0  0
 13 14  1  0  0  0  0
 13 19  1  0  0  0  0
 14 15  1  1  0  0  0
 14 17  1  0  0  0  0
 15 16  2  0  0  0  0
 17 18  1  0  0  0  0
 19 18  1  1  0  0  0
M  END
>  <CHROM.1>
172.86214939,74.51506952,4.32884063,-3.03504452,0.84639639,-0.69993706,0.89180306
2.63484450

>  <Name>
ligand

>  <RI>
0

>  <Rbt.Current_Directory>
/home/itssahil/PROJECTS/Mol_Feturizer/New_Systems/rnas/3SKI

>  <Rbt.Executable>
rbdock ($Id: //depot/dev/client3/rdock/2013.1/src/exe/rbdock.cxx#4 $)

>  <Rbt.Library>
libRbt.so (2013.1, Build901 2013/11/27)

>  <Rbt.Parameter_File>
/export/apps/rDock/src/rDock_2013.1_src/data/scripts/dock_solv.prm

>  <Rbt.Receptor>
prm/blind_docking_20.prm

>  <SCORE>
-17.8582

>  <SCORE.INTER>
-14.5215

>  <SCORE.INTER.CONST>
1

>  <SCORE.INTER.POLAR>
0

>  <SCORE.INTER.ROT>
2

>  <SCORE.INTER.SOLV>
4.75313

>  <SCORE.INTER.VDW>
-16.1987

>  <SCORE.INTER.norm>
-0.76429

>  <SCORE.INTRA>
-3.33671

>  <SCORE.INTRA.DIHEDRAL>
-4.87343

>  <SCORE.INTRA.DIHEDRAL.0>
6.26853

>  <SCORE.INTRA.POLAR>
0

>  <SCORE.INTRA.POLAR.0>
0

>  <SCORE.INTRA.REPUL>
0

>  <SCORE.INTRA.REPUL.0>
0

>  <SCORE.INTRA.SOLV>
0.00657899

>  <SCORE.INTRA.SOLV.lig_0>
-38.4926

>  <SCORE.INTRA.VDW>
-0.903288

>  <SCORE.INTRA.VDW.0>
-0.59057

>  <SCORE.INTRA.norm>
-0.175617

>  <SCORE.RESTR>
0

>  <SCORE.RESTR.CAVITY>
0

>  <SCORE.RESTR.norm>
0

>  <SCORE.SYSTEM>
0

>  <SCORE.SYSTEM.CONST>
0

>  <SCORE.SYSTEM.DIHEDRAL>
0

>  <SCORE.SYSTEM.SOLV>
0

>  <SCORE.SYSTEM.norm>
0

>  <SCORE.heavy>
19

>  <SCORE.norm>
-0.939906

>  <RMSD>
15.114

$$$$
ligand
 OpenBabel11021811483D
libRbt.so/2013.1/901 2013/11/27
 19 21  0  0  0  0  0  0  0  0999 V2000
  -12.1906    0.3597   -2.9776 C   0  0  0  0  0  0  0  0  0  0  0  0
  -13.1527   -0.1358   -2.0346 O   0  0  0  0  0  0  0  0  0  0  0  0
  -11.5313   -0.8007   -3.7263 C   0  0  1  0  0  0  0  0  0  0  0  0
  -10.7489   -0.3137   -4.8334 O   0  0  0  0  0  0  0  0  0  0  0  0
  -10.5900   -1.5721   -2.8180 C   0  0  1  0  0  0  0  0  0  0  0  0
  -11.1718   -2.8153   -2.4064 O   0  0  0  0  0  0  0  0  0  0  0  0
   -9.3392   -1.8166   -3.6339 C   0  0  0  0  0  0  0  0  0  0  0  0
   -9.4275   -0.8736   -4.8249 C   0  0  2  0  0  0  0  0  0  0  0  0
   -8.4866    3.9688   -3.0197 N   0  0  0  0  0  0  0  0  0  0  0  0
   -9.6174    3.2165   -2.9451 C   0  0  1  0  0  0  0  0  0  0  0  0
  -10.7085    3.7276   -2.3270 N   0  0  0  0  0  0  0  0  0  0  0  0
   -9.6787    1.9666   -3.4801 N   0  0  0  0  0  0  0  0  0  0  0  0
   -8.6122    1.4072   -4.1135 C   0  0  2  0  0  0  0  0  0  0  0  0
   -7.4354    2.1263   -4.2203 C   0  0  1  0  0  0  0  0  0  0  0  0
   -7.3812    3.4882   -3.6306 C   0  0  0  0  0  0  0  0  0  0  0  0
   -6.3374    4.1755   -3.6966 O   0  0  0  0  0  0  0  0  0  0  0  0
   -6.5448    1.3607   -4.8746 N   0  0  0  0  0  0  0  0  0  0  0  0
   -7.1572    0.1914   -5.1746 C   0  0  0  0  0  0  0  0  0  0  0  0
   -8.4196    0.2215   -4.7100 N   0  0  1  0  0  0  0  0  0  0  0  0
  1  2  1  0  0  0  0
  3  1  1  1  0  0  0
  3  4  1  0  0  0  0
  3  5  1  0  0  0  0
  5  6  1  6  0  0  0
  5  7  1  0  0  0  0
  7  8  1  0  0  0  0
  8  4  1  1  0  0  0
  8 19  1  0  0  0  0
  9 15  1  0  0  0  0
  9 10  1  0  0  0  0
 10 11  1  6  0  0  0
 10 12  1  0  0  0  0
 13 12  1  6  0  0  0
 13 14  1  0  0  0  0
 13 19  1  0  0  0  0
 14 15  1  1  0  0  0
 14 17  1  0  0  0  0
 15 16  2  0  0  0  0
 17 18  1  0  0  0  0
 19 18  1  1  0  0  0
M  END
>  <CHROM.1>
169.62806494,28.43010130,-9.46485958,0.89835100,-3.62712632,2.38908357,-0.43330691
-2.88862295

>  <Name>
ligand

>  <RI>
0

>  <Rbt.Current_Directory>
/home/itssahil/PROJECTS/Mol_Feturizer/New_Systems/rnas/3SKI

>  <Rbt.Executable>
rbdock ($Id: //depot/dev/client3/rdock/2013.1/src/exe/rbdock.cxx#4 $)

>  <Rbt.Library>
libRbt.so (2013.1, Build901 2013/11/27)

>  <Rbt.Parameter_File>
/export/apps/rDock/src/rDock_2013.1_src/data/scripts/dock_solv.prm

>  <Rbt.Receptor>
prm/blind_docking_100.prm

>  <SCORE>
-17.6974

>  <SCORE.INTER>
-14.7736

>  <SCORE.INTER.CONST>
1

>  <SCORE.INTER.POLAR>
0

>  <SCORE.INTER.ROT>
2

>  <SCORE.INTER.SOLV>
12.4674

>  <SCORE.INTER.VDW>
-18.9382

>  <SCORE.INTER.norm>
-0.777558

>  <SCORE.INTRA>
-2.92383

>  <SCORE.INTRA.DIHEDRAL>
-4.70829

>  <SCORE.INTRA.DIHEDRAL.0>
6.26853

>  <SCORE.INTRA.POLAR>
0

>  <SCORE.INTRA.POLAR.0>
0

>  <SCORE.INTRA.REPUL>
0

>  <SCORE.INTRA.REPUL.0>
0

>  <SCORE.INTRA.SOLV>
1.16028

>  <SCORE.INTRA.SOLV.lig_0>
-38.4926

>  <SCORE.INTRA.VDW>
-1.14982

>  <SCORE.INTRA.VDW.0>
-0.59057

>  <SCORE.INTRA.norm>
-0.153886

>  <SCORE.RESTR>
0

>  <SCORE.RESTR.CAVITY>
0

>  <SCORE.RESTR.norm>
0

>  <SCORE.SYSTEM>
0

>  <SCORE.SYSTEM.CONST>
0

>  <SCORE.SYSTEM.DIHEDRAL>
0

>  <SCORE.SYSTEM.SOLV>
0

>  <SCORE.SYSTEM.norm>
0

>  <SCORE.heavy>
19

>  <SCORE.norm>
-0.931444

>  <RMSD>
15.118

$$$$
ligand
 OpenBabel11021811483D
libRbt.so/2013.1/901 2013/11/27
 19 21  0  0  0  0  0  0  0  0999 V2000
    5.4015   -0.5383   -0.1800 C   0  0  0  0  0  0  0  0  0  0  0  0
    5.3293    0.8916   -0.0782 O   0  0  0  0  0  0  0  0  0  0  0  0
    4.8179   -1.0081   -1.5143 C   0  0  1  0  0  0  0  0  0  0  0  0
    4.9784   -2.4313   -1.6678 O   0  0  0  0  0  0  0  0  0  0  0  0
    3.3301   -0.7144   -1.5933 C   0  0  1  0  0  0  0  0  0  0  0  0
    3.0697    0.4128   -2.4390 O   0  0  0  0  0  0  0  0  0  0  0  0
    2.6938   -1.9632   -2.1639 C   0  0  0  0  0  0  0  0  0  0  0  0
    3.7430   -3.0586   -2.0417 C   0  0  2  0  0  0  0  0  0  0  0  0
    3.8019   -4.2122    3.0826 N   0  0  0  0  0  0  0  0  0  0  0  0
    4.2993   -3.1281    2.4286 C   0  0  1  0  0  0  0  0  0  0  0  0
    4.9190   -2.1570    3.1405 N   0  0  0  0  0  0  0  0  0  0  0  0
    4.1927   -2.9995    1.0780 N   0  0  0  0  0  0  0  0  0  0  0  0
    3.5820   -3.9469    0.3159 C   0  0  2  0  0  0  0  0  0  0  0  0
    3.0577   -5.0718    0.9266 C   0  0  1  0  0  0  0  0  0  0  0  0
    3.1790   -5.1990    2.4013 C   0  0  0  0  0  0  0  0  0  0  0  0
    2.7155   -6.1953    3.0002 O   0  0  0  0  0  0  0  0  0  0  0  0
    2.5103   -5.8408   -0.0306 N   0  0  0  0  0  0  0  0  0  0  0  0
    2.6959   -5.2102   -1.2138 C   0  0  0  0  0  0  0  0  0  0  0  0
    3.3510   -4.0544   -1.0010 N   0  0  1  0  0  0  0  0  0  0  0  0
  1  2  1  0  0  0  0
  3  1  1  1  0  0  0
  3  4  1  0  0  0  0
  3  5  1  0  0  0  0
  5  6  1  6  0  0  0
  5  7  1  0  0  0  0
  7  8  1  0  0  0  0
  8  4  1  1  0  0  0
  8 19  1  0  0  0  0
  9 15  1  0  0  0  0
  9 10  1  0  0  0  0
 10 11  1  6  0  0  0
 10 12  1  0  0  0  0
 13 12  1  6  0  0  0
 13 14  1  0  0  0  0
 13 19  1  0  0  0  0
 14 15  1  1  0  0  0
 14 17  1  0  0  0  0
 15 16  2  0  0  0  0
 17 18  1  0  0  0  0
 19 18  1  1  0  0  0
M  END
>  <CHROM.1>
175.65009587,33.59872256,3.79317289,-2.89139872,0.10451862,-1.19235958,1.09888601
2.15957912

>  <Name>
ligand

>  <RI>
0

>  <Rbt.Current_Directory>
/home/itssahil/PROJECTS/Mol_Feturizer/New_Systems/rnas/3SKI

>  <Rbt.Executable>
rbdock ($Id: //depot/dev/client3/rdock/2013.1/src/exe/rbdock.cxx#4 $)

>  <Rbt.Library>
libRbt.so (2013.1, Build901 2013/11/27)

>  <Rbt.Parameter_File>
/export/apps/rDock/src/rDock_2013.1_src/data/scripts/dock_solv.prm

>  <Rbt.Receptor>
prm/blind_docking_80.prm

>  <SCORE>
-19.2212

>  <SCORE.INTER>
-16.1385

>  <SCORE.INTER.CONST>
1

>  <SCORE.INTER.POLAR>
0

>  <SCORE.INTER.ROT>
2

>  <SCORE.INTER.SOLV>
7.96241

>  <SCORE.INTER.VDW>
-18.3465

>  <SCORE.INTER.norm>
-0.849395

>  <SCORE.INTRA>
-3.08265

>  <SCORE.INTRA.DIHEDRAL>
-5.01742

>  <SCORE.INTRA.DIHEDRAL.0>
6.26853

>  <SCORE.INTRA.POLAR>
0

>  <SCORE.INTRA.POLAR.0>
0

>  <SCORE.INTRA.REPUL>
0

>  <SCORE.INTRA.REPUL.0>
0

>  <SCORE.INTRA.SOLV>
1.20366

>  <SCORE.INTRA.SOLV.lig_0>
-38.4926

>  <SCORE.INTRA.VDW>
-1.17577

>  <SCORE.INTRA.VDW.0>
-0.59057

>  <SCORE.INTRA.norm>
-0.162245

>  <SCORE.RESTR>
0

>  <SCORE.RESTR.CAVITY>
0

>  <SCORE.RESTR.norm>
0

>  <SCORE.SYSTEM>
0

>  <SCORE.SYSTEM.CONST>
0

>  <SCORE.SYSTEM.DIHEDRAL>
0

>  <SCORE.SYSTEM.SOLV>
0

>  <SCORE.SYSTEM.norm>
0

>  <SCORE.heavy>
19

>  <SCORE.norm>
-1.01164

>  <RMSD>
15.118

$$$$
ligand
 OpenBabel11021811483D
libRbt.so/2013.1/901 2013/11/27
 19 21  0  0  0  0  0  0  0  0999 V2000
    7.0995   -1.6890    1.2271 C   0  0  0  0  0  0  0  0  0  0  0  0
    7.7923   -1.1481    2.3619 O   0  0  0  0  0  0  0  0  0  0  0  0
    5.9667   -0.7537    0.7985 C   0  0  1  0  0  0  0  0  0  0  0  0
    5.3624   -1.2130   -0.4258 O   0  0  0  0  0  0  0  0  0  0  0  0
    4.8706   -0.7065    1.8484 C   0  0  1  0  0  0  0  0  0  0  0  0
    4.9281    0.5113    2.6016 O   0  0  0  0  0  0  0  0  0  0  0  0
    3.5664   -0.7970    1.0862 C   0  0  0  0  0  0  0  0  0  0  0  0
    3.9331   -1.2726   -0.3120 C   0  0  2  0  0  0  0  0  0  0  0  0
    3.5980   -6.0943    1.7453 N   0  0  0  0  0  0  0  0  0  0  0  0
    4.1343   -4.9595    2.2697 C   0  0  1  0  0  0  0  0  0  0  0  0
    4.6854   -5.0021    3.5059 N   0  0  0  0  0  0  0  0  0  0  0  0
    4.1337   -3.7861    1.5803 N   0  0  0  0  0  0  0  0  0  0  0  0
    3.5951   -3.6895    0.3344 C   0  0  2  0  0  0  0  0  0  0  0  0
    3.0360   -4.8117   -0.2497 C   0  0  1  0  0  0  0  0  0  0  0  0
    3.0414   -6.0854    0.5140 C   0  0  0  0  0  0  0  0  0  0  0  0
    2.5424   -7.1262    0.0305 O   0  0  0  0  0  0  0  0  0  0  0  0
    2.5741   -4.4566   -1.4613 N   0  0  0  0  0  0  0  0  0  0  0  0
    2.8463   -3.1415   -1.6302 C   0  0  0  0  0  0  0  0  0  0  0  0
    3.4704   -2.6745   -0.5335 N   0  0  1  0  0  0  0  0  0  0  0  0
  1  2  1  0  0  0  0
  3  1  1  1  0  0  0
  3  4  1  0  0  0  0
  3  5  1  0  0  0  0
  5  6  1  6  0  0  0
  5  7  1  0  0  0  0
  7  8  1  0  0  0  0
  8  4  1  1  0  0  0
  8 19  1  0  0  0  0
  9 15  1  0  0  0  0
  9 10  1  0  0  0  0
 10 11  1  6  0  0  0
 10 12  1  0  0  0  0
 13 12  1  6  0  0  0
 13 14  1  0  0  0  0
 13 19  1  0  0  0  0
 14 15  1  1  0  0  0
 14 17  1  0  0  0  0
 15 16  2  0  0  0  0
 17 18  1  0  0  0  0
 19 18  1  1  0  0  0
M  END
>  <CHROM.1>
173.62429520,74.29241946,4.32816804,-3.04329331,0.83673557,-0.70478569,0.89269380
2.63243633

>  <Name>
ligand

>  <RI>
0

>  <Rbt.Current_Directory>
/home/itssahil/PROJECTS/Mol_Feturizer/New_Systems/rnas/3SKI

>  <Rbt.Executable>
rbdock ($Id: //depot/dev/client3/rdock/2013.1/src/exe/rbdock.cxx#4 $)

>  <Rbt.Library>
libRbt.so (2013.1, Build901 2013/11/27)

>  <Rbt.Parameter_File>
/export/apps/rDock/src/rDock_2013.1_src/data/scripts/dock_solv.prm

>  <Rbt.Receptor>
prm/blind_docking_20.prm

>  <SCORE>
-17.8604

>  <SCORE.INTER>
-14.509

>  <SCORE.INTER.CONST>
1

>  <SCORE.INTER.POLAR>
0

>  <SCORE.INTER.ROT>
2

>  <SCORE.INTER.SOLV>
4.74236

>  <SCORE.INTER.VDW>
-16.1868

>  <SCORE.INTER.norm>
-0.763634

>  <SCORE.INTRA>
-3.3514

>  <SCORE.INTRA.DIHEDRAL>
-4.90979

>  <SCORE.INTRA.DIHEDRAL.0>
6.26853

>  <SCORE.INTRA.POLAR>
0

>  <SCORE.INTRA.POLAR.0>
0

>  <SCORE.INTRA.REPUL>
0

>  <SCORE.INTRA.REPUL.0>
0

>  <SCORE.INTRA.SOLV>
0.0210437

>  <SCORE.INTRA.SOLV.lig_0>
-38.4926

>  <SCORE.INTRA.VDW>
-0.907023

>  <SCORE.INTRA.VDW.0>
-0.59057

>  <SCORE.INTRA.norm>
-0.176389

>  <SCORE.RESTR>
0

>  <SCORE.RESTR.CAVITY>
0

>  <SCORE.RESTR.norm>
0

>  <SCORE.SYSTEM>
0

>  <SCORE.SYSTEM.CONST>
0

>  <SCORE.SYSTEM.DIHEDRAL>
0

>  <SCORE.SYSTEM.SOLV>
0

>  <SCORE.SYSTEM.norm>
0

>  <SCORE.heavy>
19

>  <SCORE.norm>
-0.940023

>  <RMSD>
15.119

$$$$
ligand
 OpenBabel11021811483D
libRbt.so/2013.1/901 2013/11/27
 19 21  0  0  0  0  0  0  0  0999 V2000
    5.3565   -0.4761   -0.2691 C   0  0  0  0  0  0  0  0  0  0  0  0
    5.2443    0.9529   -0.1951 O   0  0  0  0  0  0  0  0  0  0  0  0
    4.7763   -0.9889   -1.5890 C   0  0  1  0  0  0  0  0  0  0  0  0
    4.9776   -2.4095   -1.7163 O   0  0  0  0  0  0  0  0  0  0  0  0
    3.2799   -0.7406   -1.6609 C   0  0  1  0  0  0  0  0  0  0  0  0
    2.9795    0.3617   -2.5259 O   0  0  0  0  0  0  0  0  0  0  0  0
    2.6762   -2.0185   -2.2017 C   0  0  0  0  0  0  0  0  0  0  0  0
    3.7582   -3.0800   -2.0674 C   0  0  2  0  0  0  0  0  0  0  0  0
    3.7663   -4.0709    3.0912 N   0  0  0  0  0  0  0  0  0  0  0  0
    4.2108   -2.9781    2.4140 C   0  0  1  0  0  0  0  0  0  0  0  0
    4.7516   -1.9486    3.1080 N   0  0  0  0  0  0  0  0  0  0  0  0
    4.1287   -2.8976    1.0580 N   0  0  0  0  0  0  0  0  0  0  0  0
    3.5965   -3.9044    0.3132 C   0  0  2  0  0  0  0  0  0  0  0  0
    3.1288   -5.0409    0.9479 C   0  0  1  0  0  0  0  0  0  0  0  0
    3.2225   -5.1153    2.4282 C   0  0  0  0  0  0  0  0  0  0  0  0
    2.8078   -6.1200    3.0483 O   0  0  0  0  0  0  0  0  0  0  0  0
    2.6533   -5.8717    0.0039 N   0  0  0  0  0  0  0  0  0  0  0  0
    2.8276   -5.2670   -1.1945 C   0  0  0  0  0  0  0  0  0  0  0  0
    3.4043   -4.0663   -1.0043 N   0  0  1  0  0  0  0  0  0  0  0  0
  1  2  1  0  0  0  0
  3  1  1  1  0  0  0
  3  4  1  0  0  0  0
  3  5  1  0  0  0  0
  5  6  1  6  0  0  0
  5  7  1  0  0  0  0
  7  8  1  0  0  0  0
  8  4  1  1  0  0  0
  8 19  1  0  0  0  0
  9 15  1  0  0  0  0
  9 10  1  0  0  0  0
 10 11  1  6  0  0  0
 10 12  1  0  0  0  0
 13 12  1  6  0  0  0
 13 14  1  0  0  0  0
 13 19  1  0  0  0  0
 14 15  1  1  0  0  0
 14 17  1  0  0  0  0
 15 16  2  0  0  0  0
 17 18  1  0  0  0  0
 19 18  1  1  0  0  0
M  END
>  <CHROM.1>
175.58539742,36.29662396,3.78498738,-2.85245724,0.07845071,-1.18771533,1.14844574
2.12900849

>  <Name>
ligand

>  <RI>
0

>  <Rbt.Current_Directory>
/home/itssahil/PROJECTS/Mol_Feturizer/New_Systems/rnas/3SKI

>  <Rbt.Executable>
rbdock ($Id: //depot/dev/client3/rdock/2013.1/src/exe/rbdock.cxx#4 $)

>  <Rbt.Library>
libRbt.so (2013.1, Build901 2013/11/27)

>  <Rbt.Parameter_File>
/export/apps/rDock/src/rDock_2013.1_src/data/scripts/dock_solv.prm

>  <Rbt.Receptor>
prm/blind_docking_80.prm

>  <SCORE>
-19.1833

>  <SCORE.INTER>
-16.0483

>  <SCORE.INTER.CONST>
1

>  <SCORE.INTER.POLAR>
0

>  <SCORE.INTER.ROT>
2

>  <SCORE.INTER.SOLV>
8.56675

>  <SCORE.INTER.VDW>
-18.4878

>  <SCORE.INTER.norm>
-0.84465

>  <SCORE.INTRA>
-3.13494

>  <SCORE.INTRA.DIHEDRAL>
-5.01478

>  <SCORE.INTRA.DIHEDRAL.0>
6.26853

>  <SCORE.INTRA.POLAR>
0

>  <SCORE.INTRA.POLAR.0>
0

>  <SCORE.INTRA.REPUL>
0

>  <SCORE.INTRA.REPUL.0>
0

>  <SCORE.INTRA.SOLV>
1.19276

>  <SCORE.INTRA.SOLV.lig_0>
-38.4926

>  <SCORE.INTRA.VDW>
-1.22393

>  <SCORE.INTRA.VDW.0>
-0.59057

>  <SCORE.INTRA.norm>
-0.164997

>  <SCORE.RESTR>
0

>  <SCORE.RESTR.CAVITY>
0

>  <SCORE.RESTR.norm>
0

>  <SCORE.SYSTEM>
0

>  <SCORE.SYSTEM.CONST>
0

>  <SCORE.SYSTEM.DIHEDRAL>
0

>  <SCORE.SYSTEM.SOLV>
0

>  <SCORE.SYSTEM.norm>
0

>  <SCORE.heavy>
19

>  <SCORE.norm>
-1.00965

>  <RMSD>
15.120

$$$$
ligand
 OpenBabel11021811483D
libRbt.so/2013.1/901 2013/11/27
 19 21  0  0  0  0  0  0  0  0999 V2000
    5.4486   -0.5733   -0.1588 C   0  0  0  0  0  0  0  0  0  0  0  0
    5.4072    0.8585   -0.0670 O   0  0  0  0  0  0  0  0  0  0  0  0
    4.8797   -1.0382   -1.5012 C   0  0  1  0  0  0  0  0  0  0  0  0
    5.0275   -2.4633   -1.6510 O   0  0  0  0  0  0  0  0  0  0  0  0
    3.3965   -0.7289   -1.6023 C   0  0  1  0  0  0  0  0  0  0  0  0
    3.1605    0.4001   -2.4527 O   0  0  0  0  0  0  0  0  0  0  0  0
    2.7555   -1.9715   -2.1810 C   0  0  0  0  0  0  0  0  0  0  0  0
    3.7910   -3.0778   -2.0425 C   0  0  2  0  0  0  0  0  0  0  0  0
    3.7378   -4.2133    3.0860 N   0  0  0  0  0  0  0  0  0  0  0  0
    4.2533   -3.1337    2.4388 C   0  0  1  0  0  0  0  0  0  0  0  0
    4.8619   -2.1624    3.1601 N   0  0  0  0  0  0  0  0  0  0  0  0
    4.1756   -3.0094    1.0858 N   0  0  0  0  0  0  0  0  0  0  0  0
    3.5770   -3.9570    0.3143 C   0  0  2  0  0  0  0  0  0  0  0  0
    3.0355   -5.0777    0.9178 C   0  0  1  0  0  0  0  0  0  0  0  0
    3.1253   -5.2001    2.3951 C   0  0  0  0  0  0  0  0  0  0  0  0
    2.6454   -6.1924    2.9877 O   0  0  0  0  0  0  0  0  0  0  0  0
    2.5051   -5.8479   -0.0480 N   0  0  0  0  0  0  0  0  0  0  0  0
    2.7180   -5.2222   -1.2292 C   0  0  0  0  0  0  0  0  0  0  0  0
    3.3733   -4.0683   -1.0067 N   0  0  1  0  0  0  0  0  0  0  0  0
  1  2  1  0  0  0  0
  3  1  1  1  0  0  0
  3  4  1  0  0  0  0
  3  5  1  0  0  0  0
  5  6  1  6  0  0  0
  5  7  1  0  0  0  0
  7  8  1  0  0  0  0
  8  4  1  1  0  0  0
  8 19  1  0  0  0  0
  9 15  1  0  0  0  0
  9 10  1  0  0  0  0
 10 11  1  6  0  0  0
 10 12  1  0  0  0  0
 13 12  1  6  0  0  0
 13 14  1  0  0  0  0
 13 19  1  0  0  0  0
 14 15  1  1  0  0  0
 14 17  1  0  0  0  0
 15 16  2  0  0  0  0
 17 18  1  0  0  0  0
 19 18  1  1  0  0  0
M  END
>  <CHROM.1>
174.85317086,34.13704358,3.80552132,-2.90509933,0.10442224,-1.14058797,1.10225623
2.11124338

>  <Name>
ligand

>  <RI>
0

>  <Rbt.Current_Directory>
/home/itssahil/PROJECTS/Mol_Feturizer/New_Systems/rnas/3SKI

>  <Rbt.Executable>
rbdock ($Id: //depot/dev/client3/rdock/2013.1/src/exe/rbdock.cxx#4 $)

>  <Rbt.Library>
libRbt.so (2013.1, Build901 2013/11/27)

>  <Rbt.Parameter_File>
/export/apps/rDock/src/rDock_2013.1_src/data/scripts/dock_solv.prm

>  <Rbt.Receptor>
prm/blind_docking_80.prm

>  <SCORE>
-19.2045

>  <SCORE.INTER>
-16.1223

>  <SCORE.INTER.CONST>
1

>  <SCORE.INTER.POLAR>
0

>  <SCORE.INTER.ROT>
2

>  <SCORE.INTER.SOLV>
8.50762

>  <SCORE.INTER.VDW>
-18.5174

>  <SCORE.INTER.norm>
-0.848541

>  <SCORE.INTRA>
-3.08228

>  <SCORE.INTRA.DIHEDRAL>
-4.99053

>  <SCORE.INTRA.DIHEDRAL.0>
6.26853

>  <SCORE.INTRA.POLAR>
0

>  <SCORE.INTRA.POLAR.0>
0

>  <SCORE.INTRA.REPUL>
0

>  <SCORE.INTRA.REPUL.0>
0

>  <SCORE.INTRA.SOLV>
1.19845

>  <SCORE.INTRA.SOLV.lig_0>
-38.4926

>  <SCORE.INTRA.VDW>
-1.18624

>  <SCORE.INTRA.VDW.0>
-0.59057

>  <SCORE.INTRA.norm>
-0.162225

>  <SCORE.RESTR>
0

>  <SCORE.RESTR.CAVITY>
0

>  <SCORE.RESTR.norm>
0

>  <SCORE.SYSTEM>
0

>  <SCORE.SYSTEM.CONST>
0

>  <SCORE.SYSTEM.DIHEDRAL>
0

>  <SCORE.SYSTEM.SOLV>
0

>  <SCORE.SYSTEM.norm>
0

>  <SCORE.heavy>
19

>  <SCORE.norm>
-1.01077

>  <RMSD>
15.127

$$$$
ligand
 OpenBabel11021811483D
libRbt.so/2013.1/901 2013/11/27
 19 21  0  0  0  0  0  0  0  0999 V2000
    7.0970   -1.7094    1.2281 C   0  0  0  0  0  0  0  0  0  0  0  0
    7.7667   -1.1913    2.3871 O   0  0  0  0  0  0  0  0  0  0  0  0
    5.9735   -0.7650    0.7948 C   0  0  1  0  0  0  0  0  0  0  0  0
    5.3752   -1.2157   -0.4356 O   0  0  0  0  0  0  0  0  0  0  0  0
    4.8702   -0.7145    1.8369 C   0  0  1  0  0  0  0  0  0  0  0  0
    4.9302    0.5000    2.5952 O   0  0  0  0  0  0  0  0  0  0  0  0
    3.5710   -0.7936    1.0649 C   0  0  0  0  0  0  0  0  0  0  0  0
    3.9447   -1.2663   -0.3324 C   0  0  2  0  0  0  0  0  0  0  0  0
    3.5767   -6.0970    1.6978 N   0  0  0  0  0  0  0  0  0  0  0  0
    4.1183   -4.9682    2.2295 C   0  0  1  0  0  0  0  0  0  0  0  0
    4.6663   -5.0208    3.4669 N   0  0  0  0  0  0  0  0  0  0  0  0
    4.1262   -3.7911    1.5466 N   0  0  0  0  0  0  0  0  0  0  0  0
    3.5912   -3.6846    0.3000 C   0  0  2  0  0  0  0  0  0  0  0  0
    3.0269   -4.8003   -0.2916 C   0  0  1  0  0  0  0  0  0  0  0  0
    3.0231   -6.0782    0.4652 C   0  0  0  0  0  0  0  0  0  0  0  0
    2.5193   -7.1134   -0.0251 O   0  0  0  0  0  0  0  0  0  0  0  0
    2.5700   -4.4359   -1.5023 N   0  0  0  0  0  0  0  0  0  0  0  0
    2.8502   -3.1215   -1.6634 C   0  0  0  0  0  0  0  0  0  0  0  0
    3.4744   -2.6642   -0.5626 N   0  0  1  0  0  0  0  0  0  0  0  0
  1  2  1  0  0  0  0
  3  1  1  1  0  0  0
  3  4  1  0  0  0  0
  3  5  1  0  0  0  0
  5  6  1  6  0  0  0
  5  7  1  0  0  0  0
  7  8  1  0  0  0  0
  8  4  1  1  0  0  0
  8 19  1  0  0  0  0
  9 15  1  0  0  0  0
  9 10  1  0  0  0  0
 10 11  1  6  0  0  0
 10 12  1  0  0  0  0
 13 12  1  6  0  0  0
 13 14  1  0  0  0  0
 13 19  1  0  0  0  0
 14 15  1  1  0  0  0
 14 17  1  0  0  0  0
 15 16  2  0  0  0  0
 17 18  1  0  0  0  0
 19 18  1  1  0  0  0
M  END
>  <CHROM.1>
174.84567048,73.99254244,4.32254277,-3.04572924,0.81169565,-0.69613855,0.89476088
2.63296332

>  <Name>
ligand

>  <RI>
0

>  <Rbt.Current_Directory>
/home/itssahil/PROJECTS/Mol_Feturizer/New_Systems/rnas/3SKI

>  <Rbt.Executable>
rbdock ($Id: //depot/dev/client3/rdock/2013.1/src/exe/rbdock.cxx#4 $)

>  <Rbt.Library>
libRbt.so (2013.1, Build901 2013/11/27)

>  <Rbt.Parameter_File>
/export/apps/rDock/src/rDock_2013.1_src/data/scripts/dock_solv.prm

>  <Rbt.Receptor>
prm/blind_docking_20.prm

>  <SCORE>
-17.8949

>  <SCORE.INTER>
-14.5254

>  <SCORE.INTER.CONST>
1

>  <SCORE.INTER.POLAR>
0

>  <SCORE.INTER.ROT>
2

>  <SCORE.INTER.SOLV>
4.69443

>  <SCORE.INTER.VDW>
-16.1817

>  <SCORE.INTER.norm>
-0.764493

>  <SCORE.INTRA>
-3.36955

>  <SCORE.INTRA.DIHEDRAL>
-4.95972

>  <SCORE.INTRA.DIHEDRAL.0>
6.26853

>  <SCORE.INTRA.POLAR>
0

>  <SCORE.INTRA.POLAR.0>
0

>  <SCORE.INTRA.REPUL>
0

>  <SCORE.INTRA.REPUL.0>
0

>  <SCORE.INTRA.SOLV>
0.0414506

>  <SCORE.INTRA.SOLV.lig_0>
-38.4926

>  <SCORE.INTRA.VDW>
-0.910411

>  <SCORE.INTRA.VDW.0>
-0.59057

>  <SCORE.INTRA.norm>
-0.177345

>  <SCORE.RESTR>
0

>  <SCORE.RESTR.CAVITY>
0

>  <SCORE.RESTR.norm>
0

>  <SCORE.SYSTEM>
0

>  <SCORE.SYSTEM.CONST>
0

>  <SCORE.SYSTEM.DIHEDRAL>
0

>  <SCORE.SYSTEM.SOLV>
0

>  <SCORE.SYSTEM.norm>
0

>  <SCORE.heavy>
19

>  <SCORE.norm>
-0.941838

>  <RMSD>
15.130

$$$$
ligand
 OpenBabel11021811483D
libRbt.so/2013.1/901 2013/11/27
 19 21  0  0  0  0  0  0  0  0999 V2000
    5.3527   -0.4587   -0.2197 C   0  0  0  0  0  0  0  0  0  0  0  0
    5.2654    0.9723   -0.1515 O   0  0  0  0  0  0  0  0  0  0  0  0
    4.7924   -0.9642   -1.5511 C   0  0  1  0  0  0  0  0  0  0  0  0
    4.9784   -2.3873   -1.6746 O   0  0  0  0  0  0  0  0  0  0  0  0
    3.3010   -0.6972   -1.6525 C   0  0  1  0  0  0  0  0  0  0  0  0
    3.0316    0.4087   -2.5231 O   0  0  0  0  0  0  0  0  0  0  0  0
    2.6922   -1.9675   -2.2055 C   0  0  0  0  0  0  0  0  0  0  0  0
    3.7579   -3.0424   -2.0500 C   0  0  2  0  0  0  0  0  0  0  0  0
    3.8525   -4.1343    3.0873 N   0  0  0  0  0  0  0  0  0  0  0  0
    4.3486   -3.0600    2.4165 C   0  0  1  0  0  0  0  0  0  0  0  0
    4.9770   -2.0825    3.1118 N   0  0  0  0  0  0  0  0  0  0  0  0
    4.2320   -2.9473    1.0653 N   0  0  0  0  0  0  0  0  0  0  0  0
    3.6121   -3.9016    0.3194 C   0  0  2  0  0  0  0  0  0  0  0  0
    3.0887   -5.0172    0.9477 C   0  0  1  0  0  0  0  0  0  0  0  0
    3.2209   -5.1271    2.4228 C   0  0  0  0  0  0  0  0  0  0  0  0
    2.7587   -6.1144    3.0373 O   0  0  0  0  0  0  0  0  0  0  0  0
    2.5312   -5.7958    0.0041 N   0  0  0  0  0  0  0  0  0  0  0  0
    2.7099   -5.1802   -1.1881 C   0  0  0  0  0  0  0  0  0  0  0  0
    3.3706   -4.0243   -0.9943 N   0  0  1  0  0  0  0  0  0  0  0  0
  1  2  1  0  0  0  0
  3  1  1  1  0  0  0
  3  4  1  0  0  0  0
  3  5  1  0  0  0  0
  5  6  1  6  0  0  0
  5  7  1  0  0  0  0
  7  8  1  0  0  0  0
  8  4  1  1  0  0  0
  8 19  1  0  0  0  0
  9 15  1  0  0  0  0
  9 10  1  0  0  0  0
 10 11  1  6  0  0  0
 10 12  1  0  0  0  0
 13 12  1  6  0  0  0
 13 14  1  0  0  0  0
 13 19  1  0  0  0  0
 14 15  1  1  0  0  0
 14 17  1  0  0  0  0
 15 16  2  0  0  0  0
 17 18  1  0  0  0  0
 19 18  1  1  0  0  0
M  END
>  <CHROM.1>
175.18624751,31.94611142,3.80263211,-2.84375416,0.09015329,-1.22463095,1.10034027
2.17328631

>  <Name>
ligand

>  <RI>
0

>  <Rbt.Current_Directory>
/home/itssahil/PROJECTS/Mol_Feturizer/New_Systems/rnas/3SKI

>  <Rbt.Executable>
rbdock ($Id: //depot/dev/client3/rdock/2013.1/src/exe/rbdock.cxx#4 $)

>  <Rbt.Library>
libRbt.so (2013.1, Build901 2013/11/27)

>  <Rbt.Parameter_File>
/export/apps/rDock/src/rDock_2013.1_src/data/scripts/dock_solv.prm

>  <Rbt.Receptor>
prm/blind_docking_80.prm

>  <SCORE>
-19.2126

>  <SCORE.INTER>
-16.1516

>  <SCORE.INTER.CONST>
1

>  <SCORE.INTER.POLAR>
0

>  <SCORE.INTER.ROT>
2

>  <SCORE.INTER.SOLV>
7.59

>  <SCORE.INTER.VDW>
-18.2311

>  <SCORE.INTER.norm>
-0.850086

>  <SCORE.INTRA>
-3.061

>  <SCORE.INTRA.DIHEDRAL>
-5.00258

>  <SCORE.INTRA.DIHEDRAL.0>
6.26853

>  <SCORE.INTRA.POLAR>
0

>  <SCORE.INTRA.POLAR.0>
0

>  <SCORE.INTRA.REPUL>
0

>  <SCORE.INTRA.REPUL.0>
0

>  <SCORE.INTRA.SOLV>
1.20201

>  <SCORE.INTRA.SOLV.lig_0>
-38.4926

>  <SCORE.INTRA.VDW>
-1.16072

>  <SCORE.INTRA.VDW.0>
-0.59057

>  <SCORE.INTRA.norm>
-0.161105

>  <SCORE.RESTR>
0

>  <SCORE.RESTR.CAVITY>
0

>  <SCORE.RESTR.norm>
0

>  <SCORE.SYSTEM>
0

>  <SCORE.SYSTEM.CONST>
0

>  <SCORE.SYSTEM.DIHEDRAL>
0

>  <SCORE.SYSTEM.SOLV>
0

>  <SCORE.SYSTEM.norm>
0

>  <SCORE.heavy>
19

>  <SCORE.norm>
-1.01119

>  <RMSD>
15.134

$$$$
ligand
 OpenBabel11021811483D
libRbt.so/2013.1/901 2013/11/27
 19 21  0  0  0  0  0  0  0  0999 V2000
    5.3580   -0.4746   -0.2074 C   0  0  0  0  0  0  0  0  0  0  0  0
    5.2794    0.9565   -0.1292 O   0  0  0  0  0  0  0  0  0  0  0  0
    4.7936   -0.9674   -1.5417 C   0  0  1  0  0  0  0  0  0  0  0  0
    4.9747   -2.3900   -1.6772 O   0  0  0  0  0  0  0  0  0  0  0  0
    3.3030   -0.6947   -1.6384 C   0  0  1  0  0  0  0  0  0  0  0  0
    3.0358    0.4192   -2.4995 O   0  0  0  0  0  0  0  0  0  0  0  0
    2.6889   -1.9584   -2.2005 C   0  0  0  0  0  0  0  0  0  0  0  0
    3.7514   -3.0381   -2.0556 C   0  0  2  0  0  0  0  0  0  0  0  0
    3.8429   -4.1672    3.0737 N   0  0  0  0  0  0  0  0  0  0  0  0
    4.3404   -3.0886    2.4108 C   0  0  1  0  0  0  0  0  0  0  0  0
    4.9697   -2.1168    3.1134 N   0  0  0  0  0  0  0  0  0  0  0  0
    4.2244   -2.9660    1.0604 N   0  0  0  0  0  0  0  0  0  0  0  0
    3.6038   -3.9143    0.3074 C   0  0  2  0  0  0  0  0  0  0  0  0
    3.0790   -5.0338    0.9274 C   0  0  1  0  0  0  0  0  0  0  0  0
    3.2106   -5.1545    2.4018 C   0  0  0  0  0  0  0  0  0  0  0  0
    2.7471   -6.1458    3.0089 O   0  0  0  0  0  0  0  0  0  0  0  0
    2.5210   -5.8050   -0.0220 N   0  0  0  0  0  0  0  0  0  0  0  0
    2.7008   -5.1809   -1.2096 C   0  0  0  0  0  0  0  0  0  0  0  0
    3.3627   -4.0271   -1.0072 N   0  0  1  0  0  0  0  0  0  0  0  0
  1  2  1  0  0  0  0
  3  1  1  1  0  0  0
  3  4  1  0  0  0  0
  3  5  1  0  0  0  0
  5  6  1  6  0  0  0
  5  7  1  0  0  0  0
  7  8  1  0  0  0  0
  8  4  1  1  0  0  0
  8 19  1  0  0  0  0
  9 15  1  0  0  0  0
  9 10  1  0  0  0  0
 10 11  1  6  0  0  0
 10 12  1  0  0  0  0
 13 12  1  6  0  0  0
 13 14  1  0  0  0  0
 13 19  1  0  0  0  0
 14 15  1  1  0  0  0
 14 17  1  0  0  0  0
 15 16  2  0  0  0  0
 17 18  1  0  0  0  0
 19 18  1  1  0  0  0
M  END
>  <CHROM.1>
175.00707243,32.13155348,3.79837189,-2.85556423,0.08620929,-1.21991066,1.09835058
2.17676951

>  <Name>
ligand

>  <RI>
0

>  <Rbt.Current_Directory>
/home/itssahil/PROJECTS/Mol_Feturizer/New_Systems/rnas/3SKI

>  <Rbt.Executable>
rbdock ($Id: //depot/dev/client3/rdock/2013.1/src/exe/rbdock.cxx#4 $)

>  <Rbt.Library>
libRbt.so (2013.1, Build901 2013/11/27)

>  <Rbt.Parameter_File>
/export/apps/rDock/src/rDock_2013.1_src/data/scripts/dock_solv.prm

>  <Rbt.Receptor>
prm/blind_docking_80.prm

>  <SCORE>
-19.2316

>  <SCORE.INTER>
-16.1703

>  <SCORE.INTER.CONST>
1

>  <SCORE.INTER.POLAR>
0

>  <SCORE.INTER.ROT>
2

>  <SCORE.INTER.SOLV>
7.62568

>  <SCORE.INTER.VDW>
-18.2554

>  <SCORE.INTER.norm>
-0.851067

>  <SCORE.INTRA>
-3.0613

>  <SCORE.INTRA.DIHEDRAL>
-4.99634

>  <SCORE.INTRA.DIHEDRAL.0>
6.26853

>  <SCORE.INTRA.POLAR>
0

>  <SCORE.INTRA.POLAR.0>
0

>  <SCORE.INTRA.REPUL>
0

>  <SCORE.INTRA.REPUL.0>
0

>  <SCORE.INTRA.SOLV>
1.20124

>  <SCORE.INTRA.SOLV.lig_0>
-38.4926

>  <SCORE.INTRA.VDW>
-1.16375

>  <SCORE.INTRA.VDW.0>
-0.59057

>  <SCORE.INTRA.norm>
-0.161121

>  <SCORE.RESTR>
0

>  <SCORE.RESTR.CAVITY>
0

>  <SCORE.RESTR.norm>
0

>  <SCORE.SYSTEM>
0

>  <SCORE.SYSTEM.CONST>
0

>  <SCORE.SYSTEM.DIHEDRAL>
0

>  <SCORE.SYSTEM.SOLV>
0

>  <SCORE.SYSTEM.norm>
0

>  <SCORE.heavy>
19

>  <SCORE.norm>
-1.01219

>  <RMSD>
15.135

$$$$
ligand
 OpenBabel11021811483D
libRbt.so/2013.1/901 2013/11/27
 19 21  0  0  0  0  0  0  0  0999 V2000
    7.0997   -1.7127    1.2373 C   0  0  0  0  0  0  0  0  0  0  0  0
    7.8111   -1.1652    2.3573 O   0  0  0  0  0  0  0  0  0  0  0  0
    5.9760   -0.7678    0.8058 C   0  0  1  0  0  0  0  0  0  0  0  0
    5.3782   -1.2160   -0.4257 O   0  0  0  0  0  0  0  0  0  0  0  0
    4.8724   -0.7200    1.8477 C   0  0  1  0  0  0  0  0  0  0  0  0
    4.9317    0.4927    2.6088 O   0  0  0  0  0  0  0  0  0  0  0  0
    3.5735   -0.7979    1.0753 C   0  0  0  0  0  0  0  0  0  0  0  0
    3.9476   -1.2674   -0.3230 C   0  0  2  0  0  0  0  0  0  0  0  0
    3.6045   -6.1088    1.6858 N   0  0  0  0  0  0  0  0  0  0  0  0
    4.1484   -4.9818    2.2189 C   0  0  1  0  0  0  0  0  0  0  0  0
    4.7063   -5.0395    3.4515 N   0  0  0  0  0  0  0  0  0  0  0  0
    4.1487   -3.8013    1.5418 N   0  0  0  0  0  0  0  0  0  0  0  0
    3.6035   -3.6895    0.3001 C   0  0  2  0  0  0  0  0  0  0  0  0
    3.0365   -4.8032   -0.2925 C   0  0  1  0  0  0  0  0  0  0  0  0
    3.0410   -6.0848    0.4578 C   0  0  0  0  0  0  0  0  0  0  0  0
    2.5350   -7.1185   -0.0336 O   0  0  0  0  0  0  0  0  0  0  0  0
    2.5692   -4.4336   -1.4977 N   0  0  0  0  0  0  0  0  0  0  0  0
    2.8458   -3.1179   -1.6544 C   0  0  0  0  0  0  0  0  0  0  0  0
    3.4780   -2.6650   -0.5565 N   0  0  1  0  0  0  0  0  0  0  0  0
  1  2  1  0  0  0  0
  3  1  1  1  0  0  0
  3  4  1  0  0  0  0
  3  5  1  0  0  0  0
  5  6  1  6  0  0  0
  5  7  1  0  0  0  0
  7  8  1  0  0  0  0
  8  4  1  1  0  0  0
  8 19  1  0  0  0  0
  9 15  1  0  0  0  0
  9 10  1  0  0  0  0
 10 11  1  6  0  0  0
 10 12  1  0  0  0  0
 13 12  1  6  0  0  0
 13 14  1  0  0  0  0
 13 19  1  0  0  0  0
 14 15  1  1  0  0  0
 14 17  1  0  0  0  0
 15 16  2  0  0  0  0
 17 18  1  0  0  0  0
 19 18  1  1  0  0  0
M  END
>  <CHROM.1>
172.02092651,73.48736533,4.33515052,-3.04899615,0.81178569,-0.70758469,0.88813981
2.64910244

>  <Name>
ligand

>  <RI>
0

>  <Rbt.Current_Directory>
/home/itssahil/PROJECTS/Mol_Feturizer/New_Systems/rnas/3SKI

>  <Rbt.Executable>
rbdock ($Id: //depot/dev/client3/rdock/2013.1/src/exe/rbdock.cxx#4 $)

>  <Rbt.Library>
libRbt.so (2013.1, Build901 2013/11/27)

>  <Rbt.Parameter_File>
/export/apps/rDock/src/rDock_2013.1_src/data/scripts/dock_solv.prm

>  <Rbt.Receptor>
prm/blind_docking_20.prm

>  <SCORE>
-17.891

>  <SCORE.INTER>
-14.5592

>  <SCORE.INTER.CONST>
1

>  <SCORE.INTER.POLAR>
0

>  <SCORE.INTER.ROT>
2

>  <SCORE.INTER.SOLV>
4.59581

>  <SCORE.INTER.VDW>
-16.1714

>  <SCORE.INTER.norm>
-0.766271

>  <SCORE.INTRA>
-3.33183

>  <SCORE.INTRA.DIHEDRAL>
-4.82969

>  <SCORE.INTRA.DIHEDRAL.0>
6.26853

>  <SCORE.INTRA.POLAR>
0

>  <SCORE.INTRA.POLAR.0>
0

>  <SCORE.INTRA.REPUL>
0

>  <SCORE.INTRA.REPUL.0>
0

>  <SCORE.INTRA.SOLV>
0.0508312

>  <SCORE.INTRA.SOLV.lig_0>
-38.4926

>  <SCORE.INTRA.VDW>
-0.942402

>  <SCORE.INTRA.VDW.0>
-0.59057

>  <SCORE.INTRA.norm>
-0.17536

>  <SCORE.RESTR>
0

>  <SCORE.RESTR.CAVITY>
0

>  <SCORE.RESTR.norm>
0

>  <SCORE.SYSTEM>
0

>  <SCORE.SYSTEM.CONST>
0

>  <SCORE.SYSTEM.DIHEDRAL>
0

>  <SCORE.SYSTEM.SOLV>
0

>  <SCORE.SYSTEM.norm>
0

>  <SCORE.heavy>
19

>  <SCORE.norm>
-0.941631

>  <RMSD>
15.139

$$$$
ligand
 OpenBabel11021811483D
libRbt.so/2013.1/901 2013/11/27
 19 21  0  0  0  0  0  0  0  0999 V2000
    7.0614   -1.6114    1.1983 C   0  0  0  0  0  0  0  0  0  0  0  0
    7.8014   -1.1552    2.3404 O   0  0  0  0  0  0  0  0  0  0  0  0
    5.9430   -0.6238    0.8584 C   0  0  1  0  0  0  0  0  0  0  0  0
    5.3205   -0.9702   -0.3937 O   0  0  0  0  0  0  0  0  0  0  0  0
    4.8564   -0.6432    1.9190 C   0  0  1  0  0  0  0  0  0  0  0  0
    4.9426    0.5074    2.7688 O   0  0  0  0  0  0  0  0  0  0  0  0
    3.5447   -0.6474    1.1643 C   0  0  0  0  0  0  0  0  0  0  0  0
    3.8912   -1.0132   -0.2716 C   0  0  2  0  0  0  0  0  0  0  0  0
    3.4394   -5.9701    1.4071 N   0  0  0  0  0  0  0  0  0  0  0  0
    3.9958   -4.8908    2.0201 C   0  0  1  0  0  0  0  0  0  0  0  0
    4.5369   -5.0400    3.2525 N   0  0  0  0  0  0  0  0  0  0  0  0
    4.0250   -3.6682    1.4230 N   0  0  0  0  0  0  0  0  0  0  0  0
    3.4976   -3.4646    0.1853 C   0  0  2  0  0  0  0  0  0  0  0  0
    2.9192   -4.5263   -0.4866 C   0  0  1  0  0  0  0  0  0  0  0  0
    2.8921   -5.8547    0.1770 C   0  0  0  0  0  0  0  0  0  0  0  0
    2.3748   -6.8444   -0.3878 O   0  0  0  0  0  0  0  0  0  0  0  0
    2.4737   -4.0694   -1.6698 N   0  0  0  0  0  0  0  0  0  0  0  0
    2.7748   -2.7514   -1.7357 C   0  0  0  0  0  0  0  0  0  0  0  0
    3.4007   -2.3836   -0.6028 N   0  0  1  0  0  0  0  0  0  0  0  0
  1  2  1  0  0  0  0
  3  1  1  1  0  0  0
  3  4  1  0  0  0  0
  3  5  1  0  0  0  0
  5  6  1  1  0  0  0
  5  7  1  0  0  0  0
  7  8  1  0  0  0  0
  8  4  1  1  0  0  0
  8 19  1  0  0  0  0
  9 15  1  0  0  0  0
  9 10  1  0  0  0  0
 10 11  1  6  0  0  0
 10 12  1  0  0  0  0
 13 12  1  6  0  0  0
 13 14  1  0  0  0  0
 13 19  1  0  0  0  0
 14 15  1  1  0  0  0
 14 17  1  0  0  0  0
 15 16  2  0  0  0  0
 17 18  1  0  0  0  0
 19 18  1  1  0  0  0
M  END
>  <CHROM.1>
171.71288169,75.22691426,4.25180193,-2.87458806,0.72854432,-0.66595137,0.88160793
2.67363726

>  <Name>
ligand

>  <RI>
0

>  <Rbt.Current_Directory>
/home/itssahil/PROJECTS/Mol_Feturizer/New_Systems/rnas/3SKI

>  <Rbt.Executable>
rbdock ($Id: //depot/dev/client3/rdock/2013.1/src/exe/rbdock.cxx#4 $)

>  <Rbt.Library>
libRbt.so (2013.1, Build901 2013/11/27)

>  <Rbt.Parameter_File>
/export/apps/rDock/src/rDock_2013.1_src/data/scripts/dock_solv.prm

>  <Rbt.Receptor>
prm/blind_docking_20.prm

>  <SCORE>
-17.7126

>  <SCORE.INTER>
-14.4396

>  <SCORE.INTER.CONST>
1

>  <SCORE.INTER.POLAR>
0

>  <SCORE.INTER.ROT>
2

>  <SCORE.INTER.SOLV>
5.14613

>  <SCORE.INTER.VDW>
-16.2751

>  <SCORE.INTER.norm>
-0.759978

>  <SCORE.INTRA>
-3.27297

>  <SCORE.INTRA.DIHEDRAL>
-4.81096

>  <SCORE.INTRA.DIHEDRAL.0>
6.26853

>  <SCORE.INTRA.POLAR>
0

>  <SCORE.INTRA.POLAR.0>
0

>  <SCORE.INTRA.REPUL>
0

>  <SCORE.INTRA.REPUL.0>
0

>  <SCORE.INTRA.SOLV>
-0.00159902

>  <SCORE.INTRA.SOLV.lig_0>
-38.4926

>  <SCORE.INTRA.VDW>
-0.866686

>  <SCORE.INTRA.VDW.0>
-0.59057

>  <SCORE.INTRA.norm>
-0.172261

>  <SCORE.RESTR>
0

>  <SCORE.RESTR.CAVITY>
0

>  <SCORE.RESTR.norm>
0

>  <SCORE.SYSTEM>
0

>  <SCORE.SYSTEM.CONST>
0

>  <SCORE.SYSTEM.DIHEDRAL>
0

>  <SCORE.SYSTEM.SOLV>
0

>  <SCORE.SYSTEM.norm>
0

>  <SCORE.heavy>
19

>  <SCORE.norm>
-0.93224

>  <RMSD>
15.142

$$$$
ligand
 OpenBabel11021811483D
libRbt.so/2013.1/901 2013/11/27
 19 21  0  0  0  0  0  0  0  0999 V2000
    7.1212   -1.7174    1.2648 C   0  0  0  0  0  0  0  0  0  0  0  0
    7.8232   -1.1969    2.4035 O   0  0  0  0  0  0  0  0  0  0  0  0
    6.0098   -0.7557    0.8384 C   0  0  1  0  0  0  0  0  0  0  0  0
    5.4166   -1.1813   -0.4034 O   0  0  0  0  0  0  0  0  0  0  0  0
    4.8992   -0.7114    1.8730 C   0  0  1  0  0  0  0  0  0  0  0  0
    4.9648    0.4903    2.6510 O   0  0  0  0  0  0  0  0  0  0  0  0
    3.6052   -0.7660    1.0903 C   0  0  0  0  0  0  0  0  0  0  0  0
    3.9849   -1.2200   -0.3116 C   0  0  2  0  0  0  0  0  0  0  0  0
    3.5453   -6.0756    1.6439 N   0  0  0  0  0  0  0  0  0  0  0  0
    4.0920   -4.9601    2.1982 C   0  0  1  0  0  0  0  0  0  0  0  0
    4.6249   -5.0360    3.4408 N   0  0  0  0  0  0  0  0  0  0  0  0
    4.1195   -3.7734    1.5325 N   0  0  0  0  0  0  0  0  0  0  0  0
    3.6001   -3.6435    0.2816 C   0  0  2  0  0  0  0  0  0  0  0  0
    3.0316   -4.7448   -0.3326 C   0  0  1  0  0  0  0  0  0  0  0  0
    3.0063   -6.0334    0.4054 C   0  0  0  0  0  0  0  0  0  0  0  0
    2.4979   -7.0563   -0.1056 O   0  0  0  0  0  0  0  0  0  0  0  0
    2.5925   -4.3584   -1.5430 N   0  0  0  0  0  0  0  0  0  0  0  0
    2.8876   -3.0447   -1.6818 C   0  0  0  0  0  0  0  0  0  0  0  0
    3.5035   -2.6097   -0.5675 N   0  0  1  0  0  0  0  0  0  0  0  0
  1  2  1  0  0  0  0
  3  1  1  1  0  0  0
  3  4  1  0  0  0  0
  3  5  1  0  0  0  0
  5  6  1  6  0  0  0
  5  7  1  0  0  0  0
  7  8  1  0  0  0  0
  8  4  1  1  0  0  0
  8 19  1  0  0  0  0
  9 15  1  0  0  0  0
  9 10  1  0  0  0  0
 10 11  1  6  0  0  0
 10 12  1  0  0  0  0
 13 12  1  6  0  0  0
 13 14  1  0  0  0  0
 13 19  1  0  0  0  0
 14 15  1  1  0  0  0
 14 17  1  0  0  0  0
 15 16  2  0  0  0  0
 17 18  1  0  0  0  0
 19 18  1  1  0  0  0
M  END
>  <CHROM.1>
172.45182954,74.24461320,4.33659267,-3.01833031,0.80622718,-0.67224355,0.89605039
2.62705519

>  <Name>
ligand

>  <RI>
0

>  <Rbt.Current_Directory>
/home/itssahil/PROJECTS/Mol_Feturizer/New_Systems/rnas/3SKI

>  <Rbt.Executable>
rbdock ($Id: //depot/dev/client3/rdock/2013.1/src/exe/rbdock.cxx#4 $)

>  <Rbt.Library>
libRbt.so (2013.1, Build901 2013/11/27)

>  <Rbt.Parameter_File>
/export/apps/rDock/src/rDock_2013.1_src/data/scripts/dock_solv.prm

>  <Rbt.Receptor>
prm/blind_docking_40.prm

>  <SCORE>
-17.8429

>  <SCORE.INTER>
-14.5106

>  <SCORE.INTER.CONST>
1

>  <SCORE.INTER.POLAR>
0

>  <SCORE.INTER.ROT>
2

>  <SCORE.INTER.SOLV>
4.77887

>  <SCORE.INTER.VDW>
-16.2

>  <SCORE.INTER.norm>
-0.763717

>  <SCORE.INTRA>
-3.33226

>  <SCORE.INTRA.DIHEDRAL>
-4.85251

>  <SCORE.INTRA.DIHEDRAL.0>
6.26853

>  <SCORE.INTRA.POLAR>
0

>  <SCORE.INTRA.POLAR.0>
0

>  <SCORE.INTRA.REPUL>
0

>  <SCORE.INTRA.REPUL.0>
0

>  <SCORE.INTRA.SOLV>
0.0173071

>  <SCORE.INTRA.SOLV.lig_0>
-38.4926

>  <SCORE.INTRA.VDW>
-0.914657

>  <SCORE.INTRA.VDW.0>
-0.59057

>  <SCORE.INTRA.norm>
-0.175382

>  <SCORE.RESTR>
0

>  <SCORE.RESTR.CAVITY>
0

>  <SCORE.RESTR.norm>
0

>  <SCORE.SYSTEM>
0

>  <SCORE.SYSTEM.CONST>
0

>  <SCORE.SYSTEM.DIHEDRAL>
0

>  <SCORE.SYSTEM.SOLV>
0

>  <SCORE.SYSTEM.norm>
0

>  <SCORE.heavy>
19

>  <SCORE.norm>
-0.939099

>  <RMSD>
15.144

$$$$
ligand
 OpenBabel11021811483D
libRbt.so/2013.1/901 2013/11/27
 19 21  0  0  0  0  0  0  0  0999 V2000
    7.0492   -1.6035    1.2348 C   0  0  0  0  0  0  0  0  0  0  0  0
    7.7691   -1.2318    2.4196 O   0  0  0  0  0  0  0  0  0  0  0  0
    5.9824   -0.5561    0.9084 C   0  0  1  0  0  0  0  0  0  0  0  0
    5.3631   -0.8380   -0.3612 O   0  0  0  0  0  0  0  0  0  0  0  0
    4.8806   -0.5548    1.9534 C   0  0  1  0  0  0  0  0  0  0  0  0
    5.0071    0.5662    2.8370 O   0  0  0  0  0  0  0  0  0  0  0  0
    3.5813   -0.4772    1.1815 C   0  0  0  0  0  0  0  0  0  0  0  0
    3.9317   -0.8182   -0.2595 C   0  0  2  0  0  0  0  0  0  0  0  0
    3.3098   -5.8165    1.2315 N   0  0  0  0  0  0  0  0  0  0  0  0
    3.9160   -4.7844    1.8776 C   0  0  1  0  0  0  0  0  0  0  0  0
    4.4675   -5.0028    3.0951 N   0  0  0  0  0  0  0  0  0  0  0  0
    3.9847   -3.5412    1.3282 N   0  0  0  0  0  0  0  0  0  0  0  0
    3.4491   -3.2689    0.1074 C   0  0  2  0  0  0  0  0  0  0  0  0
    2.8206   -4.2802   -0.5965 C   0  0  1  0  0  0  0  0  0  0  0  0
    2.7507   -5.6317    0.0152 C   0  0  0  0  0  0  0  0  0  0  0  0
    2.1876   -6.5777   -0.5799 O   0  0  0  0  0  0  0  0  0  0  0  0
    2.3773   -3.7601   -1.7542 N   0  0  0  0  0  0  0  0  0  0  0  0
    2.7287   -2.4531   -1.7732 C   0  0  0  0  0  0  0  0  0  0  0  0
    3.3837   -2.1546   -0.6364 N   0  0  1  0  0  0  0  0  0  0  0  0
  1  2  1  0  0  0  0
  3  1  1  1  0  0  0
  3  4  1  0  0  0  0
  3  5  1  0  0  0  0
  5  6  1  1  0  0  0
  5  7  1  0  0  0  0
  7  8  1  0  0  0  0
  8  4  1  1  0  0  0
  8 19  1  0  0  0  0
  9 15  1  0  0  0  0
  9 10  1  0  0  0  0
 10 11  1  6  0  0  0
 10 12  1  0  0  0  0
 13 12  1  6  0  0  0
 13 14  1  0  0  0  0
 13 19  1  0  0  0  0
 14 15  1  1  0  0  0
 14 17  1  0  0  0  0
 15 16  2  0  0  0  0
 17 18  1  0  0  0  0
 19 18  1  1  0  0  0
M  END
>  <CHROM.1>
173.22856886,73.43891877,4.21344111,-2.72908680,0.68186634,-0.62906477,0.86282678
2.69448013

>  <Name>
ligand

>  <RI>
0

>  <Rbt.Current_Directory>
/home/itssahil/PROJECTS/Mol_Feturizer/New_Systems/rnas/3SKI

>  <Rbt.Executable>
rbdock ($Id: //depot/dev/client3/rdock/2013.1/src/exe/rbdock.cxx#4 $)

>  <Rbt.Library>
libRbt.so (2013.1, Build901 2013/11/27)

>  <Rbt.Parameter_File>
/export/apps/rDock/src/rDock_2013.1_src/data/scripts/dock_solv.prm

>  <Rbt.Receptor>
prm/blind_docking_60.prm

>  <SCORE>
-17.5664

>  <SCORE.INTER>
-14.2119

>  <SCORE.INTER.CONST>
1

>  <SCORE.INTER.POLAR>
0

>  <SCORE.INTER.ROT>
2

>  <SCORE.INTER.SOLV>
5.57466

>  <SCORE.INTER.VDW>
-16.2662

>  <SCORE.INTER.norm>
-0.747995

>  <SCORE.INTRA>
-3.35449

>  <SCORE.INTRA.DIHEDRAL>
-4.89212

>  <SCORE.INTRA.DIHEDRAL.0>
6.26853

>  <SCORE.INTRA.POLAR>
0

>  <SCORE.INTRA.POLAR.0>
0

>  <SCORE.INTRA.REPUL>
0

>  <SCORE.INTRA.REPUL.0>
0

>  <SCORE.INTRA.SOLV>
0.0593031

>  <SCORE.INTRA.SOLV.lig_0>
-38.4926

>  <SCORE.INTRA.VDW>
-0.938078

>  <SCORE.INTRA.VDW.0>
-0.59057

>  <SCORE.INTRA.norm>
-0.176552

>  <SCORE.RESTR>
0

>  <SCORE.RESTR.CAVITY>
0

>  <SCORE.RESTR.norm>
0

>  <SCORE.SYSTEM>
0

>  <SCORE.SYSTEM.CONST>
0

>  <SCORE.SYSTEM.DIHEDRAL>
0

>  <SCORE.SYSTEM.SOLV>
0

>  <SCORE.SYSTEM.norm>
0

>  <SCORE.heavy>
19

>  <SCORE.norm>
-0.924547

>  <RMSD>
15.152

$$$$
ligand
 OpenBabel11021811483D
libRbt.so/2013.1/901 2013/11/27
 19 21  0  0  0  0  0  0  0  0999 V2000
    7.0792   -1.4896    1.2651 C   0  0  0  0  0  0  0  0  0  0  0  0
    7.7975   -1.1263    2.4535 O   0  0  0  0  0  0  0  0  0  0  0  0
    5.9918   -0.4562    0.9624 C   0  0  1  0  0  0  0  0  0  0  0  0
    5.3734   -0.7254   -0.3104 O   0  0  0  0  0  0  0  0  0  0  0  0
    4.8940   -0.4956    2.0108 C   0  0  1  0  0  0  0  0  0  0  0  0
    5.0028    0.6105    2.9153 O   0  0  0  0  0  0  0  0  0  0  0  0
    3.5908   -0.4275    1.2447 C   0  0  0  0  0  0  0  0  0  0  0  0
    3.9422   -0.7343   -0.2037 C   0  0  2  0  0  0  0  0  0  0  0  0
    3.3635   -5.7573    1.2202 N   0  0  0  0  0  0  0  0  0  0  0  0
    3.9458   -4.7250    1.8875 C   0  0  1  0  0  0  0  0  0  0  0  0
    4.4812   -4.9504    3.1108 N   0  0  0  0  0  0  0  0  0  0  0  0
    4.0067   -3.4747    1.3534 N   0  0  0  0  0  0  0  0  0  0  0  0
    3.4864   -3.1952    0.1276 C   0  0  2  0  0  0  0  0  0  0  0  0
    2.8824   -4.2064   -0.5976 C   0  0  1  0  0  0  0  0  0  0  0  0
    2.8210   -5.5657   -0.0025 C   0  0  0  0  0  0  0  0  0  0  0  0
    2.2797   -6.5119   -0.6171 O   0  0  0  0  0  0  0  0  0  0  0  0
    2.4503   -3.6787   -1.7561 N   0  0  0  0  0  0  0  0  0  0  0  0
    2.7846   -2.3670   -1.7546 C   0  0  0  0  0  0  0  0  0  0  0  0
    3.4178   -2.0733   -0.6044 N   0  0  1  0  0  0  0  0  0  0  0  0
  1  2  1  0  0  0  0
  3  1  1  1  0  0  0
  3  4  1  0  0  0  0
  3  5  1  0  0  0  0
  5  6  1  1  0  0  0
  5  7  1  0  0  0  0
  7  8  1  0  0  0  0
  8  4  1  1  0  0  0
  8 19  1  0  0  0  0
  9 15  1  0  0  0  0
  9 10  1  0  0  0  0
 10 11  1  6  0  0  0
 10 12  1  0  0  0  0
 13 12  1  6  0  0  0
 13 14  1  0  0  0  0
 13 19  1  0  0  0  0
 14 15  1  1  0  0  0
 14 17  1  0  0  0  0
 15 16  2  0  0  0  0
 17 18  1  0  0  0  0
 19 18  1  1  0  0  0
M  END
>  <CHROM.1>
173.15208665,74.65552923,4.24724247,-2.65330712,0.70750047,-0.63214027,0.87579499
2.70199059

>  <Name>
ligand

>  <RI>
0

>  <Rbt.Current_Directory>
/home/itssahil/PROJECTS/Mol_Feturizer/New_Systems/rnas/3SKI

>  <Rbt.Executable>
rbdock ($Id: //depot/dev/client3/rdock/2013.1/src/exe/rbdock.cxx#4 $)

>  <Rbt.Library>
libRbt.so (2013.1, Build901 2013/11/27)

>  <Rbt.Parameter_File>
/export/apps/rDock/src/rDock_2013.1_src/data/scripts/dock_solv.prm

>  <Rbt.Receptor>
prm/blind_docking_60.prm

>  <SCORE>
-17.4164

>  <SCORE.INTER>
-14.079

>  <SCORE.INTER.CONST>
1

>  <SCORE.INTER.POLAR>
0

>  <SCORE.INTER.ROT>
2

>  <SCORE.INTER.SOLV>
5.5676

>  <SCORE.INTER.VDW>
-16.1752

>  <SCORE.INTER.norm>
-0.741003

>  <SCORE.INTRA>
-3.33738

>  <SCORE.INTRA.DIHEDRAL>
-4.88757

>  <SCORE.INTRA.DIHEDRAL.0>
6.26853

>  <SCORE.INTRA.POLAR>
0

>  <SCORE.INTRA.POLAR.0>
0

>  <SCORE.INTRA.REPUL>
0

>  <SCORE.INTRA.REPUL.0>
0

>  <SCORE.INTRA.SOLV>
0.00665038

>  <SCORE.INTRA.SOLV.lig_0>
-38.4926

>  <SCORE.INTRA.VDW>
-0.896926

>  <SCORE.INTRA.VDW.0>
-0.59057

>  <SCORE.INTRA.norm>
-0.175652

>  <SCORE.RESTR>
0

>  <SCORE.RESTR.CAVITY>
0

>  <SCORE.RESTR.norm>
0

>  <SCORE.SYSTEM>
0

>  <SCORE.SYSTEM.CONST>
0

>  <SCORE.SYSTEM.DIHEDRAL>
0

>  <SCORE.SYSTEM.SOLV>
0

>  <SCORE.SYSTEM.norm>
0

>  <SCORE.heavy>
19

>  <SCORE.norm>
-0.916654

>  <RMSD>
15.164

$$$$
ligand
 OpenBabel11021811483D
libRbt.so/2013.1/901 2013/11/27
 19 21  0  0  0  0  0  0  0  0999 V2000
    7.4010   -1.2331    1.4303 C   0  0  0  0  0  0  0  0  0  0  0  0
    6.9643   -2.5770    1.1783 O   0  0  0  0  0  0  0  0  0  0  0  0
    6.2092   -0.2734    1.4148 C   0  0  1  0  0  0  0  0  0  0  0  0
    5.5123   -0.3468    0.1562 O   0  0  0  0  0  0  0  0  0  0  0  0
    5.2092   -0.6271    2.5015 C   0  0  1  0  0  0  0  0  0  0  0  0
    5.2989    0.2847    3.6034 O   0  0  0  0  0  0  0  0  0  0  0  0
    3.8459   -0.5391    1.8506 C   0  0  0  0  0  0  0  0  0  0  0  0
    4.1008   -0.5184    0.3506 C   0  0  2  0  0  0  0  0  0  0  0  0
    3.4453   -5.6838    1.0453 N   0  0  0  0  0  0  0  0  0  0  0  0
    3.9157   -4.7424    1.9070 C   0  0  1  0  0  0  0  0  0  0  0  0
    4.2934   -5.1193    3.1517 N   0  0  0  0  0  0  0  0  0  0  0  0
    4.0195   -3.4342    1.5466 N   0  0  0  0  0  0  0  0  0  0  0  0
    3.6561   -3.0031    0.3082 C   0  0  2  0  0  0  0  0  0  0  0  0
    3.1712   -3.9163   -0.6107 C   0  0  1  0  0  0  0  0  0  0  0  0
    3.0611   -5.3404   -0.2040 C   0  0  0  0  0  0  0  0  0  0  0  0
    2.6230   -6.2030   -0.9978 O   0  0  0  0  0  0  0  0  0  0  0  0
    2.8814   -3.2473   -1.7402 N   0  0  0  0  0  0  0  0  0  0  0  0
    3.1860   -1.9452   -1.5306 C   0  0  0  0  0  0  0  0  0  0  0  0
    3.6596   -1.7976   -0.2799 N   0  0  1  0  0  0  0  0  0  0  0  0
  1  2  1  0  0  0  0
  3  1  1  6  0  0  0
  3  4  1  0  0  0  0
  3  5  1  0  0  0  0
  5  6  1  1  0  0  0
  5  7  1  0  0  0  0
  7  8  1  0  0  0  0
  8  4  1  1  0  0  0
  8 19  1  0  0  0  0
  9 15  1  0  0  0  0
  9 10  1  0  0  0  0
 10 11  1  6  0  0  0
 10 12  1  0  0  0  0
 13 12  1  6  0  0  0
 13 14  1  0  0  0  0
 13 19  1  0  0  0  0
 14 15  1  1  0  0  0
 14 17  1  0  0  0  0
 15 16  2  0  0  0  0
 17 18  1  0  0  0  0
 19 18  1  1  0  0  0
M  END
>  <CHROM.1>
-57.47025271,87.95055960,4.38958693,-2.61281107,0.82390626,-0.54796976,0.99921421
2.60477728

>  <Name>
ligand

>  <RI>
0

>  <Rbt.Current_Directory>
/home/itssahil/PROJECTS/Mol_Feturizer/New_Systems/rnas/3SKI

>  <Rbt.Executable>
rbdock ($Id: //depot/dev/client3/rdock/2013.1/src/exe/rbdock.cxx#4 $)

>  <Rbt.Library>
libRbt.so (2013.1, Build901 2013/11/27)

>  <Rbt.Parameter_File>
/export/apps/rDock/src/rDock_2013.1_src/data/scripts/dock_solv.prm

>  <Rbt.Receptor>
prm/blind_docking_20.prm

>  <SCORE>
-17.4626

>  <SCORE.INTER>
-14.4983

>  <SCORE.INTER.CONST>
1

>  <SCORE.INTER.POLAR>
0

>  <SCORE.INTER.ROT>
2

>  <SCORE.INTER.SOLV>
5.74344

>  <SCORE.INTER.VDW>
-16.5133

>  <SCORE.INTER.norm>
-0.763067

>  <SCORE.INTRA>
-2.96437

>  <SCORE.INTRA.DIHEDRAL>
-5.02311

>  <SCORE.INTRA.DIHEDRAL.0>
6.26853

>  <SCORE.INTRA.POLAR>
0

>  <SCORE.INTRA.POLAR.0>
0

>  <SCORE.INTRA.REPUL>
0

>  <SCORE.INTRA.REPUL.0>
0

>  <SCORE.INTRA.SOLV>
0.541167

>  <SCORE.INTRA.SOLV.lig_0>
-38.4926

>  <SCORE.INTRA.VDW>
-0.723396

>  <SCORE.INTRA.VDW.0>
-0.59057

>  <SCORE.INTRA.norm>
-0.156019

>  <SCORE.RESTR>
0

>  <SCORE.RESTR.CAVITY>
0

>  <SCORE.RESTR.norm>
0

>  <SCORE.SYSTEM>
0

>  <SCORE.SYSTEM.CONST>
0

>  <SCORE.SYSTEM.DIHEDRAL>
0

>  <SCORE.SYSTEM.SOLV>
0

>  <SCORE.SYSTEM.norm>
0

>  <SCORE.heavy>
19

>  <SCORE.norm>
-0.919087

>  <RMSD>
15.166

$$$$
ligand
 OpenBabel11021811483D
libRbt.so/2013.1/901 2013/11/27
 19 21  0  0  0  0  0  0  0  0999 V2000
    7.3803   -1.1632    1.4586 C   0  0  0  0  0  0  0  0  0  0  0  0
    6.9242   -2.4876    1.1454 O   0  0  0  0  0  0  0  0  0  0  0  0
    6.2052   -0.1828    1.4676 C   0  0  1  0  0  0  0  0  0  0  0  0
    5.5138   -0.2047    0.2041 O   0  0  0  0  0  0  0  0  0  0  0  0
    5.1936   -0.5528    2.5379 C   0  0  1  0  0  0  0  0  0  0  0  0
    5.2933    0.3224    3.6683 O   0  0  0  0  0  0  0  0  0  0  0  0
    3.8354   -0.4208    1.8837 C   0  0  0  0  0  0  0  0  0  0  0  0
    4.0985   -0.3577    0.3863 C   0  0  2  0  0  0  0  0  0  0  0  0
    3.3664   -5.5329    0.9101 N   0  0  0  0  0  0  0  0  0  0  0  0
    3.8506   -4.6276    1.8024 C   0  0  1  0  0  0  0  0  0  0  0  0
    4.2223   -5.0510    3.0338 N   0  0  0  0  0  0  0  0  0  0  0  0
    3.9738   -3.3098    1.4853 N   0  0  0  0  0  0  0  0  0  0  0  0
    3.6171   -2.8328    0.2619 C   0  0  2  0  0  0  0  0  0  0  0  0
    3.1190   -3.7078   -0.6865 C   0  0  1  0  0  0  0  0  0  0  0  0
    2.9878   -5.1428   -0.3271 C   0  0  0  0  0  0  0  0  0  0  0  0
    2.5371   -5.9721   -1.1488 O   0  0  0  0  0  0  0  0  0  0  0  0
    2.8395   -2.9977   -1.7933 N   0  0  0  0  0  0  0  0  0  0  0  0
    3.1633   -1.7079   -1.5408 C   0  0  0  0  0  0  0  0  0  0  0  0
    3.6387   -1.6087   -0.2860 N   0  0  1  0  0  0  0  0  0  0  0  0
  1  2  1  0  0  0  0
  3  1  1  6  0  0  0
  3  4  1  0  0  0  0
  3  5  1  0  0  0  0
  5  6  1  1  0  0  0
  5  7  1  0  0  0  0
  7  8  1  0  0  0  0
  8  4  1  1  0  0  0
  8 19  1  0  0  0  0
  9 15  1  0  0  0  0
  9 10  1  0  0  0  0
 10 11  1  6  0  0  0
 10 12  1  0  0  0  0
 13 12  1  6  0  0  0
 13 14  1  0  0  0  0
 13 19  1  0  0  0  0
 14 15  1  1  0  0  0
 14 17  1  0  0  0  0
 15 16  2  0  0  0  0
 17 18  1  0  0  0  0
 19 18  1  1  0  0  0
M  END
>  <CHROM.1>
-56.71694125,87.61618743,4.35338417,-2.47119590,0.79248281,-0.52608625,0.99316534
2.62114268

>  <Name>
ligand

>  <RI>
0

>  <Rbt.Current_Directory>
/home/itssahil/PROJECTS/Mol_Feturizer/New_Systems/rnas/3SKI

>  <Rbt.Executable>
rbdock ($Id: //depot/dev/client3/rdock/2013.1/src/exe/rbdock.cxx#4 $)

>  <Rbt.Library>
libRbt.so (2013.1, Build901 2013/11/27)

>  <Rbt.Parameter_File>
/export/apps/rDock/src/rDock_2013.1_src/data/scripts/dock_solv.prm

>  <Rbt.Receptor>
prm/blind_docking_60.prm

>  <SCORE>
-17.4044

>  <SCORE.INTER>
-14.4304

>  <SCORE.INTER.CONST>
1

>  <SCORE.INTER.POLAR>
0

>  <SCORE.INTER.ROT>
2

>  <SCORE.INTER.SOLV>
6.12104

>  <SCORE.INTER.VDW>
-16.594

>  <SCORE.INTER.norm>
-0.759496

>  <SCORE.INTRA>
-2.974

>  <SCORE.INTRA.DIHEDRAL>
-5.00712

>  <SCORE.INTRA.DIHEDRAL.0>
6.26853

>  <SCORE.INTRA.POLAR>
0

>  <SCORE.INTRA.POLAR.0>
0

>  <SCORE.INTRA.REPUL>
0

>  <SCORE.INTRA.REPUL.0>
0

>  <SCORE.INTRA.SOLV>
0.550041

>  <SCORE.INTRA.SOLV.lig_0>
-38.4926

>  <SCORE.INTRA.VDW>
-0.745461

>  <SCORE.INTRA.VDW.0>
-0.59057

>  <SCORE.INTRA.norm>
-0.156526

>  <SCORE.RESTR>
0

>  <SCORE.RESTR.CAVITY>
0

>  <SCORE.RESTR.norm>
0

>  <SCORE.SYSTEM>
0

>  <SCORE.SYSTEM.CONST>
0

>  <SCORE.SYSTEM.DIHEDRAL>
0

>  <SCORE.SYSTEM.SOLV>
0

>  <SCORE.SYSTEM.norm>
0

>  <SCORE.heavy>
19

>  <SCORE.norm>
-0.916022

>  <RMSD>
15.169

$$$$
ligand
 OpenBabel11021811483D
libRbt.so/2013.1/901 2013/11/27
 19 21  0  0  0  0  0  0  0  0999 V2000
    7.0736   -1.5824    1.2063 C   0  0  0  0  0  0  0  0  0  0  0  0
    7.8026   -1.1901    2.3789 O   0  0  0  0  0  0  0  0  0  0  0  0
    6.0053   -0.5400    0.8690 C   0  0  1  0  0  0  0  0  0  0  0  0
    5.3842   -0.8379   -0.3961 O   0  0  0  0  0  0  0  0  0  0  0  0
    4.9052   -0.5270    1.9157 C   0  0  1  0  0  0  0  0  0  0  0  0
    5.0321    0.6048    2.7854 O   0  0  0  0  0  0  0  0  0  0  0  0
    3.6046   -0.4599    1.1449 C   0  0  0  0  0  0  0  0  0  0  0  0
    3.9530   -0.8181   -0.2924 C   0  0  2  0  0  0  0  0  0  0  0  0
    3.3325   -5.7969    1.2631 N   0  0  0  0  0  0  0  0  0  0  0  0
    3.9381   -4.7563    1.8960 C   0  0  1  0  0  0  0  0  0  0  0  0
    4.4893   -4.9588    3.1163 N   0  0  0  0  0  0  0  0  0  0  0  0
    4.0065   -3.5204    1.3305 N   0  0  0  0  0  0  0  0  0  0  0  0
    3.4712   -3.2640    0.1061 C   0  0  2  0  0  0  0  0  0  0  0  0
    2.8433   -4.2846   -0.5848 C   0  0  1  0  0  0  0  0  0  0  0  0
    2.7738   -5.6281    0.0443 C   0  0  0  0  0  0  0  0  0  0  0  0
    2.2112   -6.5819   -0.5387 O   0  0  0  0  0  0  0  0  0  0  0  0
    2.4002   -3.7797   -1.7494 N   0  0  0  0  0  0  0  0  0  0  0  0
    2.7511   -2.4729   -1.7851 C   0  0  0  0  0  0  0  0  0  0  0  0
    3.4056   -2.1595   -0.6521 N   0  0  1  0  0  0  0  0  0  0  0  0
  1  2  1  0  0  0  0
  3  1  1  1  0  0  0
  3  4  1  0  0  0  0
  3  5  1  0  0  0  0
  5  6  1  1  0  0  0
  5  7  1  0  0  0  0
  7  8  1  0  0  0  0
  8  4  1  1  0  0  0
  8 19  1  0  0  0  0
  9 15  1  0  0  0  0
  9 10  1  0  0  0  0
 10 11  1  6  0  0  0
 10 12  1  0  0  0  0
 13 12  1  6  0  0  0
 13 14  1  0  0  0  0
 13 19  1  0  0  0  0
 14 15  1  1  0  0  0
 14 17  1  0  0  0  0
 15 16  2  0  0  0  0
 17 18  1  0  0  0  0
 19 18  1  1  0  0  0
M  END
>  <CHROM.1>
172.74469269,73.56262859,4.23687580,-2.71638731,0.67209553,-0.62899976,0.86206647
2.68080082

>  <Name>
ligand

>  <RI>
0

>  <Rbt.Current_Directory>
/home/itssahil/PROJECTS/Mol_Feturizer/New_Systems/rnas/3SKI

>  <Rbt.Executable>
rbdock ($Id: //depot/dev/client3/rdock/2013.1/src/exe/rbdock.cxx#4 $)

>  <Rbt.Library>
libRbt.so (2013.1, Build901 2013/11/27)

>  <Rbt.Parameter_File>
/export/apps/rDock/src/rDock_2013.1_src/data/scripts/dock_solv.prm

>  <Rbt.Receptor>
prm/blind_docking_60.prm

>  <SCORE>
-17.5756

>  <SCORE.INTER>
-14.2373

>  <SCORE.INTER.CONST>
1

>  <SCORE.INTER.POLAR>
0

>  <SCORE.INTER.ROT>
2

>  <SCORE.INTER.SOLV>
5.63902

>  <SCORE.INTER.VDW>
-16.3046

>  <SCORE.INTER.norm>
-0.749333

>  <SCORE.INTRA>
-3.34499

>  <SCORE.INTRA.DIHEDRAL>
-4.8682

>  <SCORE.INTRA.DIHEDRAL.0>
6.26853

>  <SCORE.INTRA.POLAR>
0

>  <SCORE.INTRA.POLAR.0>
0

>  <SCORE.INTRA.REPUL>
0

>  <SCORE.INTRA.REPUL.0>
0

>  <SCORE.INTRA.SOLV>
0.0510094

>  <SCORE.INTRA.SOLV.lig_0>
-38.4926

>  <SCORE.INTRA.VDW>
-0.936389

>  <SCORE.INTRA.VDW.0>
-0.59057

>  <SCORE.INTRA.norm>
-0.176052

>  <SCORE.RESTR>
0.00668738

>  <SCORE.RESTR.CAVITY>
0.00668738

>  <SCORE.RESTR.norm>
0.000351968

>  <SCORE.SYSTEM>
0

>  <SCORE.SYSTEM.CONST>
0

>  <SCORE.SYSTEM.DIHEDRAL>
0

>  <SCORE.SYSTEM.SOLV>
0

>  <SCORE.SYSTEM.norm>
0

>  <SCORE.heavy>
19

>  <SCORE.norm>
-0.925033

>  <RMSD>
15.176

$$$$
ligand
 OpenBabel11021811483D
libRbt.so/2013.1/901 2013/11/27
 19 21  0  0  0  0  0  0  0  0999 V2000
    7.1731   -1.7068    1.3073 C   0  0  0  0  0  0  0  0  0  0  0  0
    7.8700   -1.2042    2.4570 O   0  0  0  0  0  0  0  0  0  0  0  0
    6.0879   -0.7210    0.8685 C   0  0  1  0  0  0  0  0  0  0  0  0
    5.5084   -1.1267   -0.3863 O   0  0  0  0  0  0  0  0  0  0  0  0
    4.9606   -0.6622    1.8841 C   0  0  1  0  0  0  0  0  0  0  0  0
    5.0357    0.5327    2.6715 O   0  0  0  0  0  0  0  0  0  0  0  0
    3.6796   -0.6866    1.0788 C   0  0  0  0  0  0  0  0  0  0  0  0
    4.0748   -1.1384   -0.3194 C   0  0  2  0  0  0  0  0  0  0  0  0
    3.5300   -6.0037    1.5847 N   0  0  0  0  0  0  0  0  0  0  0  0
    4.0908   -4.9035    2.1550 C   0  0  1  0  0  0  0  0  0  0  0  0
    4.6101   -5.0007    3.4019 N   0  0  0  0  0  0  0  0  0  0  0  0
    4.1459   -3.7112    1.5011 N   0  0  0  0  0  0  0  0  0  0  0  0
    3.6412   -3.5602    0.2465 C   0  0  2  0  0  0  0  0  0  0  0  0
    3.0594   -4.6453   -0.3837 C   0  0  1  0  0  0  0  0  0  0  0  0
    3.0039   -5.9401    0.3415 C   0  0  0  0  0  0  0  0  0  0  0  0
    2.4825   -6.9489   -0.1842 O   0  0  0  0  0  0  0  0  0  0  0  0
    2.6390   -4.2397   -1.5946 N   0  0  0  0  0  0  0  0  0  0  0  0
    2.9588   -2.9302   -1.7178 C   0  0  0  0  0  0  0  0  0  0  0  0
    3.5713   -2.5168   -0.5934 N   0  0  1  0  0  0  0  0  0  0  0  0
  1  2  1  0  0  0  0
  3  1  1  1  0  0  0
  3  4  1  0  0  0  0
  3  5  1  0  0  0  0
  5  6  1  6  0  0  0
  5  7  1  0  0  0  0
  7  8  1  0  0  0  0
  8  4  1  1  0  0  0
  8 19  1  0  0  0  0
  9 15  1  0  0  0  0
  9 10  1  0  0  0  0
 10 11  1  6  0  0  0
 10 12  1  0  0  0  0
 13 12  1  6  0  0  0
 13 14  1  0  0  0  0
 13 19  1  0  0  0  0
 14 15  1  1  0  0  0
 14 17  1  0  0  0  0
 15 16  2  0  0  0  0
 17 18  1  0  0  0  0
 19 18  1  1  0  0  0
M  END
>  <CHROM.1>
172.13424149,73.77639293,4.37890819,-2.95215819,0.78869541,-0.64199155,0.89780476
2.61540005

>  <Name>
ligand

>  <RI>
0

>  <Rbt.Current_Directory>
/home/itssahil/PROJECTS/Mol_Feturizer/New_Systems/rnas/3SKI

>  <Rbt.Executable>
rbdock ($Id: //depot/dev/client3/rdock/2013.1/src/exe/rbdock.cxx#4 $)

>  <Rbt.Library>
libRbt.so (2013.1, Build901 2013/11/27)

>  <Rbt.Parameter_File>
/export/apps/rDock/src/rDock_2013.1_src/data/scripts/dock_solv.prm

>  <Rbt.Receptor>
prm/blind_docking_40.prm

>  <SCORE>
-17.7746

>  <SCORE.INTER>
-14.4435

>  <SCORE.INTER.CONST>
1

>  <SCORE.INTER.POLAR>
0

>  <SCORE.INTER.ROT>
2

>  <SCORE.INTER.SOLV>
4.91834

>  <SCORE.INTER.VDW>
-16.2018

>  <SCORE.INTER.norm>
-0.760184

>  <SCORE.INTRA>
-3.33111

>  <SCORE.INTRA.DIHEDRAL>
-4.83574

>  <SCORE.INTRA.DIHEDRAL.0>
6.26853

>  <SCORE.INTRA.POLAR>
0

>  <SCORE.INTRA.POLAR.0>
0

>  <SCORE.INTRA.REPUL>
0

>  <SCORE.INTRA.REPUL.0>
0

>  <SCORE.INTRA.SOLV>
0.037807

>  <SCORE.INTRA.SOLV.lig_0>
-38.4926

>  <SCORE.INTRA.VDW>
-0.932143

>  <SCORE.INTRA.VDW.0>
-0.59057

>  <SCORE.INTRA.norm>
-0.175322

>  <SCORE.RESTR>
0

>  <SCORE.RESTR.CAVITY>
0

>  <SCORE.RESTR.norm>
0

>  <SCORE.SYSTEM>
0

>  <SCORE.SYSTEM.CONST>
0

>  <SCORE.SYSTEM.DIHEDRAL>
0

>  <SCORE.SYSTEM.SOLV>
0

>  <SCORE.SYSTEM.norm>
0

>  <SCORE.heavy>
19

>  <SCORE.norm>
-0.935506

>  <RMSD>
15.186

$$$$
ligand
 OpenBabel11021811483D
libRbt.so/2013.1/901 2013/11/27
 19 21  0  0  0  0  0  0  0  0999 V2000
    5.2524   -0.3634   -0.1413 C   0  0  0  0  0  0  0  0  0  0  0  0
    4.1774    0.5829   -0.0464 O   0  0  0  0  0  0  0  0  0  0  0  0
    5.7180   -0.7832    1.2548 C   0  0  1  0  0  0  0  0  0  0  0  0
    4.6560   -1.4449    1.9684 O   0  0  0  0  0  0  0  0  0  0  0  0
    6.8784   -1.7592    1.1730 C   0  0  1  0  0  0  0  0  0  0  0  0
    8.1188   -1.1157    1.4907 O   0  0  0  0  0  0  0  0  0  0  0  0
    6.5727   -2.8472    2.1794 C   0  0  0  0  0  0  0  0  0  0  0  0
    5.1009   -2.6879    2.5313 C   0  0  2  0  0  0  0  0  0  0  0  0
    2.3533   -4.3852   -1.6115 N   0  0  0  0  0  0  0  0  0  0  0  0
    3.0024   -3.2050   -1.4219 C   0  0  1  0  0  0  0  0  0  0  0  0
    2.9801   -2.2757   -2.4067 N   0  0  0  0  0  0  0  0  0  0  0  0
    3.6685   -2.9354   -0.2661 N   0  0  0  0  0  0  0  0  0  0  0  0
    3.7199   -3.8331    0.7551 C   0  0  2  0  0  0  0  0  0  0  0  0
    3.0773   -5.0503    0.6189 C   0  0  1  0  0  0  0  0  0  0  0  0
    2.3557   -5.3327   -0.6481 C   0  0  0  0  0  0  0  0  0  0  0  0
    1.7640   -6.4218   -0.8211 O   0  0  0  0  0  0  0  0  0  0  0  0
    3.2806   -5.7503    1.7484 N   0  0  0  0  0  0  0  0  0  0  0  0
    4.0292   -4.9815    2.5735 C   0  0  0  0  0  0  0  0  0  0  0  0
    4.2960   -3.8109    1.9662 N   0  0  1  0  0  0  0  0  0  0  0  0
  1  2  1  0  0  0  0
  3  1  1  6  0  0  0
  3  4  1  0  0  0  0
  3  5  1  0  0  0  0
  5  6  1  1  0  0  0
  5  7  1  0  0  0  0
  7  8  1  0  0  0  0
  8  4  1  6  0  0  0
  8 19  1  0  0  0  0
  9 15  1  0  0  0  0
  9 10  1  0  0  0  0
 10 11  1  1  0  0  0
 10 12  1  0  0  0  0
 13 12  1  1  0  0  0
 13 14  1  0  0  0  0
 13 19  1  0  0  0  0
 14 15  1  6  0  0  0
 14 17  1  0  0  0  0
 15 16  2  0  0  0  0
 17 18  1  0  0  0  0
 19 18  1  6  0  0  0
M  END
>  <CHROM.1>
62.46815655,28.66885374,4.29684732,-3.00510848,0.57114989,0.42007243,-0.79415116
-0.62302243

>  <Name>
ligand

>  <RI>
0

>  <Rbt.Current_Directory>
/home/itssahil/PROJECTS/Mol_Feturizer/New_Systems/rnas/3SKI

>  <Rbt.Executable>
rbdock ($Id: //depot/dev/client3/rdock/2013.1/src/exe/rbdock.cxx#4 $)

>  <Rbt.Library>
libRbt.so (2013.1, Build901 2013/11/27)

>  <Rbt.Parameter_File>
/export/apps/rDock/src/rDock_2013.1_src/data/scripts/dock_solv.prm

>  <Rbt.Receptor>
prm/blind_docking_40.prm

>  <SCORE>
-16.7916

>  <SCORE.INTER>
-13.729

>  <SCORE.INTER.CONST>
1

>  <SCORE.INTER.POLAR>
0

>  <SCORE.INTER.ROT>
2

>  <SCORE.INTER.SOLV>
11.4552

>  <SCORE.INTER.VDW>
-17.9044

>  <SCORE.INTER.norm>
-0.72258

>  <SCORE.INTRA>
-3.06254

>  <SCORE.INTRA.DIHEDRAL>
-5.06133

>  <SCORE.INTRA.DIHEDRAL.0>
6.26853

>  <SCORE.INTRA.POLAR>
0

>  <SCORE.INTRA.POLAR.0>
0

>  <SCORE.INTRA.REPUL>
0

>  <SCORE.INTRA.REPUL.0>
0

>  <SCORE.INTRA.SOLV>
1.50994

>  <SCORE.INTRA.SOLV.lig_0>
-38.4926

>  <SCORE.INTRA.VDW>
-1.28685

>  <SCORE.INTRA.VDW.0>
-0.59057

>  <SCORE.INTRA.norm>
-0.161186

>  <SCORE.RESTR>
0

>  <SCORE.RESTR.CAVITY>
0

>  <SCORE.RESTR.norm>
0

>  <SCORE.SYSTEM>
0

>  <SCORE.SYSTEM.CONST>
0

>  <SCORE.SYSTEM.DIHEDRAL>
0

>  <SCORE.SYSTEM.SOLV>
0

>  <SCORE.SYSTEM.norm>
0

>  <SCORE.heavy>
19

>  <SCORE.norm>
-0.883766

>  <RMSD>
15.237

$$$$
ligand
 OpenBabel11021811483D
libRbt.so/2013.1/901 2013/11/27
 19 21  0  0  0  0  0  0  0  0999 V2000
    5.3021   -0.4063   -0.1698 C   0  0  0  0  0  0  0  0  0  0  0  0
    4.2568    0.5751   -0.1033 O   0  0  0  0  0  0  0  0  0  0  0  0
    5.7460   -0.8087    1.2383 C   0  0  1  0  0  0  0  0  0  0  0  0
    4.6693   -1.4509    1.9479 O   0  0  0  0  0  0  0  0  0  0  0  0
    6.8991   -1.7953    1.1864 C   0  0  1  0  0  0  0  0  0  0  0  0
    8.1406   -1.1573    1.5106 O   0  0  0  0  0  0  0  0  0  0  0  0
    6.5714   -2.8654    2.2049 C   0  0  0  0  0  0  0  0  0  0  0  0
    5.0965   -2.6888    2.5351 C   0  0  2  0  0  0  0  0  0  0  0  0
    2.3615   -4.4126   -1.6051 N   0  0  0  0  0  0  0  0  0  0  0  0
    3.0147   -3.2334   -1.4231 C   0  0  1  0  0  0  0  0  0  0  0  0
    3.0009   -2.3131   -2.4165 N   0  0  0  0  0  0  0  0  0  0  0  0
    3.6763   -2.9559   -0.2667 N   0  0  0  0  0  0  0  0  0  0  0  0
    3.7192   -3.8445    0.7629 C   0  0  2  0  0  0  0  0  0  0  0  0
    3.0721   -5.0602    0.6348 C   0  0  1  0  0  0  0  0  0  0  0  0
    2.3554   -5.3513   -0.6330 C   0  0  0  0  0  0  0  0  0  0  0  0
    1.7599   -6.4394   -0.7989 O   0  0  0  0  0  0  0  0  0  0  0  0
    3.2671   -5.7507    1.7716 N   0  0  0  0  0  0  0  0  0  0  0  0
    4.0150   -4.9775    2.5932 C   0  0  0  0  0  0  0  0  0  0  0  0
    4.2896   -3.8136    1.9765 N   0  0  1  0  0  0  0  0  0  0  0  0
  1  2  1  0  0  0  0
  3  1  1  6  0  0  0
  3  4  1  0  0  0  0
  3  5  1  0  0  0  0
  5  6  1  1  0  0  0
  5  7  1  0  0  0  0
  7  8  1  0  0  0  0
  8  4  1  6  0  0  0
  8 19  1  0  0  0  0
  9 15  1  0  0  0  0
  9 10  1  0  0  0  0
 10 11  1  1  0  0  0
 10 12  1  0  0  0  0
 13 12  1  1  0  0  0
 13 14  1  0  0  0  0
 13 19  1  0  0  0  0
 14 15  1  6  0  0  0
 14 17  1  0  0  0  0
 15 16  2  0  0  0  0
 17 18  1  0  0  0  0
 19 18  1  6  0  0  0
M  END
>  <CHROM.1>
63.91397926,28.04160678,4.30894423,-3.02367100,0.57307871,0.40585833,-0.79388157
-0.64421866

>  <Name>
ligand

>  <RI>
0

>  <Rbt.Current_Directory>
/home/itssahil/PROJECTS/Mol_Feturizer/New_Systems/rnas/3SKI

>  <Rbt.Executable>
rbdock ($Id: //depot/dev/client3/rdock/2013.1/src/exe/rbdock.cxx#4 $)

>  <Rbt.Library>
libRbt.so (2013.1, Build901 2013/11/27)

>  <Rbt.Parameter_File>
/export/apps/rDock/src/rDock_2013.1_src/data/scripts/dock_solv.prm

>  <Rbt.Receptor>
prm/blind_docking_20.prm

>  <SCORE>
-16.7743

>  <SCORE.INTER>
-13.7241

>  <SCORE.INTER.CONST>
1

>  <SCORE.INTER.POLAR>
0

>  <SCORE.INTER.ROT>
2

>  <SCORE.INTER.SOLV>
11.6319

>  <SCORE.INTER.VDW>
-17.9601

>  <SCORE.INTER.norm>
-0.722322

>  <SCORE.INTRA>
-3.05019

>  <SCORE.INTRA.DIHEDRAL>
-5.02756

>  <SCORE.INTRA.DIHEDRAL.0>
6.26853

>  <SCORE.INTRA.POLAR>
0

>  <SCORE.INTRA.POLAR.0>
0

>  <SCORE.INTRA.REPUL>
0

>  <SCORE.INTRA.REPUL.0>
0

>  <SCORE.INTRA.SOLV>
1.48425

>  <SCORE.INTRA.SOLV.lig_0>
-38.4926

>  <SCORE.INTRA.VDW>
-1.27853

>  <SCORE.INTRA.VDW.0>
-0.59057

>  <SCORE.INTRA.norm>
-0.160536

>  <SCORE.RESTR>
0

>  <SCORE.RESTR.CAVITY>
0

>  <SCORE.RESTR.norm>
0

>  <SCORE.SYSTEM>
0

>  <SCORE.SYSTEM.CONST>
0

>  <SCORE.SYSTEM.DIHEDRAL>
0

>  <SCORE.SYSTEM.SOLV>
0

>  <SCORE.SYSTEM.norm>
0

>  <SCORE.heavy>
19

>  <SCORE.norm>
-0.882858

>  <RMSD>
15.244

$$$$
ligand
 OpenBabel11021811483D
libRbt.so/2013.1/901 2013/11/27
 19 21  0  0  0  0  0  0  0  0999 V2000
    4.7151    0.6086   -0.0899 C   0  0  0  0  0  0  0  0  0  0  0  0
    6.0914    0.7161    0.3030 O   0  0  0  0  0  0  0  0  0  0  0  0
    4.6022   -0.0691   -1.4573 C   0  0  1  0  0  0  0  0  0  0  0  0
    5.0846   -1.4250   -1.3952 O   0  0  0  0  0  0  0  0  0  0  0  0
    3.1571   -0.1288   -1.9196 C   0  0  1  0  0  0  0  0  0  0  0  0
    2.8974    0.8508   -2.9328 O   0  0  0  0  0  0  0  0  0  0  0  0
    2.9579   -1.5248   -2.4687 C   0  0  0  0  0  0  0  0  0  0  0  0
    4.1418   -2.3411   -1.9711 C   0  0  2  0  0  0  0  0  0  0  0  0
    4.1024   -3.5147    3.1489 N   0  0  0  0  0  0  0  0  0  0  0  0
    4.6388   -2.4430    2.5056 C   0  0  1  0  0  0  0  0  0  0  0  0
    5.2768   -1.4926    3.2292 N   0  0  0  0  0  0  0  0  0  0  0  0
    4.5532   -2.3064    1.1543 N   0  0  0  0  0  0  0  0  0  0  0  0
    3.9254   -3.2331    0.3807 C   0  0  2  0  0  0  0  0  0  0  0  0
    3.3615   -4.3448    0.9802 C   0  0  1  0  0  0  0  0  0  0  0  0
    3.4603   -4.4809    2.4557 C   0  0  0  0  0  0  0  0  0  0  0  0
    2.9610   -5.4657    3.0447 O   0  0  0  0  0  0  0  0  0  0  0  0
    2.8046   -5.0943    0.0130 N   0  0  0  0  0  0  0  0  0  0  0  0
    3.0232   -4.4649   -1.1652 C   0  0  0  0  0  0  0  0  0  0  0  0
    3.7084   -3.3292   -0.9394 N   0  0  1  0  0  0  0  0  0  0  0  0
  1  2  1  0  0  0  0
  3  1  1  1  0  0  0
  3  4  1  0  0  0  0
  3  5  1  0  0  0  0
  5  6  1  6  0  0  0
  5  7  1  0  0  0  0
  7  8  1  0  0  0  0
  8  4  1  1  0  0  0
  8 19  1  0  0  0  0
  9 15  1  0  0  0  0
  9 10  1  0  0  0  0
 10 11  1  6  0  0  0
 10 12  1  0  0  0  0
 13 12  1  6  0  0  0
 13 14  1  0  0  0  0
 13 19  1  0  0  0  0
 14 15  1  1  0  0  0
 14 17  1  0  0  0  0
 15 16  2  0  0  0  0
 17 18  1  0  0  0  0
 19 18  1  1  0  0  0
M  END
>  <CHROM.1>
63.91054255,13.02222845,3.99160614,-2.21792922,0.12738503,-1.41394633,1.05446641
2.25686168

>  <Name>
ligand

>  <RI>
0

>  <Rbt.Current_Directory>
/home/itssahil/PROJECTS/Mol_Feturizer/New_Systems/rnas/3SKI

>  <Rbt.Executable>
rbdock ($Id: //depot/dev/client3/rdock/2013.1/src/exe/rbdock.cxx#4 $)

>  <Rbt.Library>
libRbt.so (2013.1, Build901 2013/11/27)

>  <Rbt.Parameter_File>
/export/apps/rDock/src/rDock_2013.1_src/data/scripts/dock_solv.prm

>  <Rbt.Receptor>
prm/blind_docking_100.prm

>  <SCORE>
-17.2661

>  <SCORE.INTER>
-14.3359

>  <SCORE.INTER.CONST>
1

>  <SCORE.INTER.POLAR>
0

>  <SCORE.INTER.ROT>
2

>  <SCORE.INTER.SOLV>
5.90155

>  <SCORE.INTER.VDW>
-16.4578

>  <SCORE.INTER.norm>
-0.754521

>  <SCORE.INTRA>
-2.93023

>  <SCORE.INTRA.DIHEDRAL>
-5.02067

>  <SCORE.INTRA.DIHEDRAL.0>
6.26853

>  <SCORE.INTRA.POLAR>
0

>  <SCORE.INTRA.POLAR.0>
0

>  <SCORE.INTRA.REPUL>
0

>  <SCORE.INTRA.REPUL.0>
0

>  <SCORE.INTRA.SOLV>
1.39836

>  <SCORE.INTRA.SOLV.lig_0>
-38.4926

>  <SCORE.INTRA.VDW>
-1.11907

>  <SCORE.INTRA.VDW.0>
-0.59057

>  <SCORE.INTRA.norm>
-0.154223

>  <SCORE.RESTR>
0

>  <SCORE.RESTR.CAVITY>
0

>  <SCORE.RESTR.norm>
0

>  <SCORE.SYSTEM>
0

>  <SCORE.SYSTEM.CONST>
0

>  <SCORE.SYSTEM.DIHEDRAL>
0

>  <SCORE.SYSTEM.SOLV>
0

>  <SCORE.SYSTEM.norm>
0

>  <SCORE.heavy>
19

>  <SCORE.norm>
-0.908743

>  <RMSD>
15.261

$$$$
ligand
 OpenBabel11021811483D
libRbt.so/2013.1/901 2013/11/27
 19 21  0  0  0  0  0  0  0  0999 V2000
    5.3408   -0.4051   -0.1970 C   0  0  0  0  0  0  0  0  0  0  0  0
    4.3035    0.5855   -0.1423 O   0  0  0  0  0  0  0  0  0  0  0  0
    5.7708   -0.8053    1.2161 C   0  0  1  0  0  0  0  0  0  0  0  0
    4.6872   -1.4461    1.9162 O   0  0  0  0  0  0  0  0  0  0  0  0
    6.9242   -1.7923    1.1769 C   0  0  1  0  0  0  0  0  0  0  0  0
    8.1627   -1.1540    1.5122 O   0  0  0  0  0  0  0  0  0  0  0  0
    6.5863   -2.8607    2.1940 C   0  0  0  0  0  0  0  0  0  0  0  0
    5.1083   -2.6831    2.5095 C   0  0  2  0  0  0  0  0  0  0  0  0
    2.3532   -4.3840   -1.6268 N   0  0  0  0  0  0  0  0  0  0  0  0
    2.9974   -3.2011   -1.4369 C   0  0  1  0  0  0  0  0  0  0  0  0
    2.9670   -2.2697   -2.4195 N   0  0  0  0  0  0  0  0  0  0  0  0
    3.6665   -2.9310   -0.2830 N   0  0  0  0  0  0  0  0  0  0  0  0
    3.7261   -3.8308    0.7360 C   0  0  2  0  0  0  0  0  0  0  0  0
    3.0886   -5.0507    0.5994 C   0  0  1  0  0  0  0  0  0  0  0  0
    2.3637   -5.3337   -0.6655 C   0  0  0  0  0  0  0  0  0  0  0  0
    1.7764   -6.4251   -0.8388 O   0  0  0  0  0  0  0  0  0  0  0  0
    3.2995   -5.7523    1.7265 N   0  0  0  0  0  0  0  0  0  0  0  0
    4.0476   -4.9819    2.5505 C   0  0  0  0  0  0  0  0  0  0  0  0
    4.3066   -3.8087    1.9449 N   0  0  1  0  0  0  0  0  0  0  0  0
  1  2  1  0  0  0  0
  3  1  1  6  0  0  0
  3  4  1  0  0  0  0
  3  5  1  0  0  0  0
  5  6  1  1  0  0  0
  5  7  1  0  0  0  0
  7  8  1  0  0  0  0
  8  4  1  6  0  0  0
  8 19  1  0  0  0  0
  9 15  1  0  0  0  0
  9 10  1  0  0  0  0
 10 11  1  1  0  0  0
 10 12  1  0  0  0  0
 13 12  1  1  0  0  0
 13 14  1  0  0  0  0
 13 19  1  0  0  0  0
 14 15  1  6  0  0  0
 14 17  1  0  0  0  0
 15 16  2  0  0  0  0
 17 18  1  0  0  0  0
 19 18  1  6  0  0  0
M  END
>  <CHROM.1>
64.43351386,26.65211456,4.32324004,-3.01220851,0.54823950,0.40767771,-0.78809666
-0.63315407

>  <Name>
ligand

>  <RI>
0

>  <Rbt.Current_Directory>
/home/itssahil/PROJECTS/Mol_Feturizer/New_Systems/rnas/3SKI

>  <Rbt.Executable>
rbdock ($Id: //depot/dev/client3/rdock/2013.1/src/exe/rbdock.cxx#4 $)

>  <Rbt.Library>
libRbt.so (2013.1, Build901 2013/11/27)

>  <Rbt.Parameter_File>
/export/apps/rDock/src/rDock_2013.1_src/data/scripts/dock_solv.prm

>  <Rbt.Receptor>
prm/blind_docking_60.prm

>  <SCORE>
-16.7592

>  <SCORE.INTER>
-13.7492

>  <SCORE.INTER.CONST>
1

>  <SCORE.INTER.POLAR>
0

>  <SCORE.INTER.ROT>
2

>  <SCORE.INTER.SOLV>
11.6261

>  <SCORE.INTER.VDW>
-17.9749

>  <SCORE.INTER.norm>
-0.723643

>  <SCORE.INTRA>
-3.01002

>  <SCORE.INTRA.DIHEDRAL>
-5.01162

>  <SCORE.INTRA.DIHEDRAL.0>
6.26853

>  <SCORE.INTRA.POLAR>
0

>  <SCORE.INTRA.POLAR.0>
0

>  <SCORE.INTRA.REPUL>
0

>  <SCORE.INTRA.REPUL.0>
0

>  <SCORE.INTRA.SOLV>
1.49313

>  <SCORE.INTRA.SOLV.lig_0>
-38.4926

>  <SCORE.INTRA.VDW>
-1.25078

>  <SCORE.INTRA.VDW.0>
-0.59057

>  <SCORE.INTRA.norm>
-0.158422

>  <SCORE.RESTR>
0

>  <SCORE.RESTR.CAVITY>
0

>  <SCORE.RESTR.norm>
0

>  <SCORE.SYSTEM>
0

>  <SCORE.SYSTEM.CONST>
0

>  <SCORE.SYSTEM.DIHEDRAL>
0

>  <SCORE.SYSTEM.SOLV>
0

>  <SCORE.SYSTEM.norm>
0

>  <SCORE.heavy>
19

>  <SCORE.norm>
-0.882066

>  <RMSD>
15.269

$$$$
ligand
 OpenBabel11021811483D
libRbt.so/2013.1/901 2013/11/27
 19 21  0  0  0  0  0  0  0  0999 V2000
    5.2215    0.1091   -0.4725 C   0  0  0  0  0  0  0  0  0  0  0  0
    4.9892    1.5253   -0.4483 O   0  0  0  0  0  0  0  0  0  0  0  0
    4.7061   -0.4934   -1.7814 C   0  0  1  0  0  0  0  0  0  0  0  0
    4.9766   -1.9073   -1.8327 O   0  0  0  0  0  0  0  0  0  0  0  0
    3.2027   -0.3204   -1.9076 C   0  0  1  0  0  0  0  0  0  0  0  0
    2.8783    0.7236   -2.8341 O   0  0  0  0  0  0  0  0  0  0  0  0
    2.6755   -1.6500   -2.4015 C   0  0  0  0  0  0  0  0  0  0  0  0
    3.8007   -2.6512   -2.1845 C   0  0  2  0  0  0  0  0  0  0  0  0
    4.0177   -3.5372    2.9886 N   0  0  0  0  0  0  0  0  0  0  0  0
    4.4709   -2.4767    2.2673 C   0  0  1  0  0  0  0  0  0  0  0  0
    5.0835   -1.4555    2.9122 N   0  0  0  0  0  0  0  0  0  0  0  0
    4.3272   -2.4205    0.9152 N   0  0  0  0  0  0  0  0  0  0  0  0
    3.7216   -3.4203    0.2187 C   0  0  2  0  0  0  0  0  0  0  0  0
    3.2416   -4.5245    0.8995 C   0  0  1  0  0  0  0  0  0  0  0  0
    3.4030   -4.5725    2.3751 C   0  0  0  0  0  0  0  0  0  0  0  0
    2.9802   -5.5474    3.0360 O   0  0  0  0  0  0  0  0  0  0  0  0
    2.6898   -5.3547   -0.0024 N   0  0  0  0  0  0  0  0  0  0  0  0
    2.8296   -4.7817   -1.2207 C   0  0  0  0  0  0  0  0  0  0  0  0
    3.4604   -3.6011   -1.0844 N   0  0  1  0  0  0  0  0  0  0  0  0
  1  2  1  0  0  0  0
  3  1  1  1  0  0  0
  3  4  1  0  0  0  0
  3  5  1  0  0  0  0
  5  6  1  6  0  0  0
  5  7  1  0  0  0  0
  7  8  1  0  0  0  0
  8  4  1  1  0  0  0
  8 19  1  0  0  0  0
  9 15  1  0  0  0  0
  9 10  1  0  0  0  0
 10 11  1  6  0  0  0
 10 12  1  0  0  0  0
 13 12  1  6  0  0  0
 13 14  1  0  0  0  0
 13 19  1  0  0  0  0
 14 15  1  1  0  0  0
 14 17  1  0  0  0  0
 15 16  2  0  0  0  0
 17 18  1  0  0  0  0
 19 18  1  1  0  0  0
M  END
>  <CHROM.1>
178.04555645,29.50606777,3.83932991,-2.36149388,-0.05845931,-1.33626419,1.12991507
2.22813755

>  <Name>
ligand

>  <RI>
0

>  <Rbt.Current_Directory>
/home/itssahil/PROJECTS/Mol_Feturizer/New_Systems/rnas/3SKI

>  <Rbt.Executable>
rbdock ($Id: //depot/dev/client3/rdock/2013.1/src/exe/rbdock.cxx#4 $)

>  <Rbt.Library>
libRbt.so (2013.1, Build901 2013/11/27)

>  <Rbt.Parameter_File>
/export/apps/rDock/src/rDock_2013.1_src/data/scripts/dock_solv.prm

>  <Rbt.Receptor>
prm/blind_docking_100.prm

>  <SCORE>
-18.6024

>  <SCORE.INTER>
-15.5557

>  <SCORE.INTER.CONST>
1

>  <SCORE.INTER.POLAR>
0

>  <SCORE.INTER.ROT>
2

>  <SCORE.INTER.SOLV>
6.13768

>  <SCORE.INTER.VDW>
-17.3497

>  <SCORE.INTER.norm>
-0.81872

>  <SCORE.INTRA>
-3.04673

>  <SCORE.INTRA.DIHEDRAL>
-5.07115

>  <SCORE.INTRA.DIHEDRAL.0>
6.26853

>  <SCORE.INTRA.POLAR>
0

>  <SCORE.INTRA.POLAR.0>
0

>  <SCORE.INTRA.REPUL>
0

>  <SCORE.INTRA.REPUL.0>
0

>  <SCORE.INTRA.SOLV>
1.20932

>  <SCORE.INTRA.SOLV.lig_0>
-38.4926

>  <SCORE.INTRA.VDW>
-1.11582

>  <SCORE.INTRA.VDW.0>
-0.59057

>  <SCORE.INTRA.norm>
-0.160354

>  <SCORE.RESTR>
0

>  <SCORE.RESTR.CAVITY>
0

>  <SCORE.RESTR.norm>
0

>  <SCORE.SYSTEM>
0

>  <SCORE.SYSTEM.CONST>
0

>  <SCORE.SYSTEM.DIHEDRAL>
0

>  <SCORE.SYSTEM.SOLV>
0

>  <SCORE.SYSTEM.norm>
0

>  <SCORE.heavy>
19

>  <SCORE.norm>
-0.979075

>  <RMSD>
15.278

$$$$
ligand
 OpenBabel11021811483D
libRbt.so/2013.1/901 2013/11/27
 19 21  0  0  0  0  0  0  0  0999 V2000
   -8.4692   -2.9000   -6.9021 C   0  0  0  0  0  0  0  0  0  0  0  0
   -8.3640   -1.6920   -7.6702 O   0  0  0  0  0  0  0  0  0  0  0  0
   -7.7145   -2.7576   -5.5785 C   0  0  1  0  0  0  0  0  0  0  0  0
   -8.3031   -1.7248   -4.7649 O   0  0  0  0  0  0  0  0  0  0  0  0
   -7.7708   -4.0458   -4.7764 C   0  0  1  0  0  0  0  0  0  0  0  0
   -6.5253   -4.7515   -4.8433 O   0  0  0  0  0  0  0  0  0  0  0  0
   -8.0691   -3.6311   -3.3520 C   0  0  0  0  0  0  0  0  0  0  0  0
   -8.5502   -2.1895   -3.4298 C   0  0  2  0  0  0  0  0  0  0  0  0
  -12.5791    1.0377   -2.4573 N   0  0  0  0  0  0  0  0  0  0  0  0
  -11.2722    1.3258   -2.7006 C   0  0  1  0  0  0  0  0  0  0  0  0
  -10.8737    2.6200   -2.7080 N   0  0  0  0  0  0  0  0  0  0  0  0
  -10.3571    0.3453   -2.9317 N   0  0  0  0  0  0  0  0  0  0  0  0
  -10.7043   -0.9703   -2.9331 C   0  0  2  0  0  0  0  0  0  0  0  0
  -12.0196   -1.3232   -2.6908 C   0  0  1  0  0  0  0  0  0  0  0  0
  -13.0085   -0.2435   -2.4420 C   0  0  0  0  0  0  0  0  0  0  0  0
  -14.2112   -0.5120   -2.2237 O   0  0  0  0  0  0  0  0  0  0  0  0
  -12.1028   -2.6635   -2.7520 N   0  0  0  0  0  0  0  0  0  0  0  0
  -10.8629   -3.1356   -3.0205 C   0  0  0  0  0  0  0  0  0  0  0  0
  -10.0099   -2.1009   -3.1300 N   0  0  1  0  0  0  0  0  0  0  0  0
  1  2  1  0  0  0  0
  3  1  1  6  0  0  0
  3  4  1  0  0  0  0
  3  5  1  0  0  0  0
  5  6  1  1  0  0  0
  5  7  1  0  0  0  0
  7  8  1  0  0  0  0
  8  4  1  6  0  0  0
  8 19  1  0  0  0  0
  9 15  1  0  0  0  0
  9 10  1  0  0  0  0
 10 11  1  1  0  0  0
 10 12  1  0  0  0  0
 13 12  1  1  0  0  0
 13 14  1  0  0  0  0
 13 19  1  0  0  0  0
 14 15  1  6  0  0  0
 14 17  1  0  0  0  0
 15 16  2  0  0  0  0
 17 18  1  0  0  0  0
 19 18  1  6  0  0  0
M  END
>  <CHROM.1>
63.26123744,-71.35811431,-10.03713612,-1.57139755,-3.81596242,-0.41105846
0.69152398,-0.29156320

>  <Name>
ligand

>  <RI>
0

>  <Rbt.Current_Directory>
/home/itssahil/PROJECTS/Mol_Feturizer/New_Systems/rnas/3SKI

>  <Rbt.Executable>
rbdock ($Id: //depot/dev/client3/rdock/2013.1/src/exe/rbdock.cxx#4 $)

>  <Rbt.Library>
libRbt.so (2013.1, Build901 2013/11/27)

>  <Rbt.Parameter_File>
/export/apps/rDock/src/rDock_2013.1_src/data/scripts/dock_solv.prm

>  <Rbt.Receptor>
prm/blind_docking_40.prm

>  <SCORE>
-15.1281

>  <SCORE.INTER>
-12.7063

>  <SCORE.INTER.CONST>
1

>  <SCORE.INTER.POLAR>
0

>  <SCORE.INTER.ROT>
2

>  <SCORE.INTER.SOLV>
13.8334

>  <SCORE.INTER.VDW>
-18.0153

>  <SCORE.INTER.norm>
-0.668752

>  <SCORE.INTRA>
-2.42181

>  <SCORE.INTRA.DIHEDRAL>
-5.03679

>  <SCORE.INTRA.DIHEDRAL.0>
6.26853

>  <SCORE.INTRA.POLAR>
0

>  <SCORE.INTRA.POLAR.0>
0

>  <SCORE.INTRA.REPUL>
0

>  <SCORE.INTRA.REPUL.0>
0

>  <SCORE.INTRA.SOLV>
-0.226497

>  <SCORE.INTRA.SOLV.lig_0>
-38.4926

>  <SCORE.INTRA.VDW>
0.209836

>  <SCORE.INTRA.VDW.0>
-0.59057

>  <SCORE.INTRA.norm>
-0.127464

>  <SCORE.RESTR>
0

>  <SCORE.RESTR.CAVITY>
0

>  <SCORE.RESTR.norm>
0

>  <SCORE.SYSTEM>
0

>  <SCORE.SYSTEM.CONST>
0

>  <SCORE.SYSTEM.DIHEDRAL>
0

>  <SCORE.SYSTEM.SOLV>
0

>  <SCORE.SYSTEM.norm>
0

>  <SCORE.heavy>
19

>  <SCORE.norm>
-0.796215

>  <RMSD>
15.340

$$$$
ligand
 OpenBabel11021811483D
libRbt.so/2013.1/901 2013/11/27
 19 21  0  0  0  0  0  0  0  0999 V2000
  -12.5073   -0.5948   -2.7782 C   0  0  0  0  0  0  0  0  0  0  0  0
  -13.1479   -1.5638   -1.9351 O   0  0  0  0  0  0  0  0  0  0  0  0
  -11.4764   -1.2735   -3.6828 C   0  0  1  0  0  0  0  0  0  0  0  0
  -10.8946   -0.3226   -4.5951 O   0  0  0  0  0  0  0  0  0  0  0  0
  -10.3399   -1.8650   -2.8676 C   0  0  1  0  0  0  0  0  0  0  0  0
  -10.4617   -3.2893   -2.7679 O   0  0  0  0  0  0  0  0  0  0  0  0
   -9.0699   -1.4918   -3.6010 C   0  0  0  0  0  0  0  0  0  0  0  0
   -9.4614   -0.3958   -4.5812 C   0  0  2  0  0  0  0  0  0  0  0  0
   -5.3250    2.8292   -4.8697 N   0  0  0  0  0  0  0  0  0  0  0  0
   -5.5101    1.5994   -5.4207 C   0  0  1  0  0  0  0  0  0  0  0  0
   -4.5204    1.0581   -6.1701 N   0  0  0  0  0  0  0  0  0  0  0  0
   -6.6624    0.9002   -5.2331 N   0  0  0  0  0  0  0  0  0  0  0  0
   -7.6865    1.3971   -4.4876 C   0  0  2  0  0  0  0  0  0  0  0  0
   -7.5544    2.6432   -3.9019 C   0  0  1  0  0  0  0  0  0  0  0  0
   -6.2926    3.3966   -4.1161 C   0  0  0  0  0  0  0  0  0  0  0  0
   -6.1279    4.5301   -3.6119 O   0  0  0  0  0  0  0  0  0  0  0  0
   -8.6907    2.9047   -3.2328 N   0  0  0  0  0  0  0  0  0  0  0  0
   -9.5108    1.8399   -3.3935 C   0  0  0  0  0  0  0  0  0  0  0  0
   -8.8962    0.9198   -4.1591 N   0  0  1  0  0  0  0  0  0  0  0  0
  1  2  1  0  0  0  0
  3  1  1  1  0  0  0
  3  4  1  0  0  0  0
  3  5  1  0  0  0  0
  5  6  1  6  0  0  0
  5  7  1  0  0  0  0
  7  8  1  0  0  0  0
  8  4  1  1  0  0  0
  8 19  1  0  0  0  0
  9 15  1  0  0  0  0
  9 10  1  0  0  0  0
 10 11  1  1  0  0  0
 10 12  1  0  0  0  0
 13 12  1  1  0  0  0
 13 14  1  0  0  0  0
 13 19  1  0  0  0  0
 14 15  1  6  0  0  0
 14 17  1  0  0  0  0
 15 16  2  0  0  0  0
 17 18  1  0  0  0  0
 19 18  1  6  0  0  0
M  END
>  <CHROM.1>
176.08322706,-153.53931675,-8.71588539,0.63418153,-3.93760590,2.59728289
-0.44266411,-2.91513587

>  <Name>
ligand

>  <RI>
0

>  <Rbt.Current_Directory>
/home/itssahil/PROJECTS/Mol_Feturizer/New_Systems/rnas/3SKI

>  <Rbt.Executable>
rbdock ($Id: //depot/dev/client3/rdock/2013.1/src/exe/rbdock.cxx#4 $)

>  <Rbt.Library>
libRbt.so (2013.1, Build901 2013/11/27)

>  <Rbt.Parameter_File>
/export/apps/rDock/src/rDock_2013.1_src/data/scripts/dock_solv.prm

>  <Rbt.Receptor>
prm/blind_docking_40.prm

>  <SCORE>
-18.5265

>  <SCORE.INTER>
-15.5335

>  <SCORE.INTER.CONST>
1

>  <SCORE.INTER.POLAR>
0

>  <SCORE.INTER.ROT>
2

>  <SCORE.INTER.SOLV>
9.98453

>  <SCORE.INTER.VDW>
-18.6172

>  <SCORE.INTER.norm>
-0.817555

>  <SCORE.INTRA>
-2.993

>  <SCORE.INTRA.DIHEDRAL>
-4.99347

>  <SCORE.INTRA.DIHEDRAL.0>
6.26853

>  <SCORE.INTRA.POLAR>
0

>  <SCORE.INTRA.POLAR.0>
0

>  <SCORE.INTRA.REPUL>
0

>  <SCORE.INTRA.REPUL.0>
0

>  <SCORE.INTRA.SOLV>
-0.0281924

>  <SCORE.INTRA.SOLV.lig_0>
-38.4926

>  <SCORE.INTRA.VDW>
-0.48217

>  <SCORE.INTRA.VDW.0>
-0.59057

>  <SCORE.INTRA.norm>
-0.157526

>  <SCORE.RESTR>
0

>  <SCORE.RESTR.CAVITY>
0

>  <SCORE.RESTR.norm>
0

>  <SCORE.SYSTEM>
0

>  <SCORE.SYSTEM.CONST>
0

>  <SCORE.SYSTEM.DIHEDRAL>
0

>  <SCORE.SYSTEM.SOLV>
0

>  <SCORE.SYSTEM.norm>
0

>  <SCORE.heavy>
19

>  <SCORE.norm>
-0.975081

>  <RMSD>
15.348

$$$$
ligand
 OpenBabel11021811483D
libRbt.so/2013.1/901 2013/11/27
 19 21  0  0  0  0  0  0  0  0999 V2000
  -12.4787   -0.6441   -2.7958 C   0  0  0  0  0  0  0  0  0  0  0  0
  -13.0979   -1.6222   -1.9472 O   0  0  0  0  0  0  0  0  0  0  0  0
  -11.4450   -1.3077   -3.7084 C   0  0  1  0  0  0  0  0  0  0  0  0
  -10.8755   -0.3459   -4.6171 O   0  0  0  0  0  0  0  0  0  0  0  0
  -10.2999   -1.8934   -2.9011 C   0  0  1  0  0  0  0  0  0  0  0  0
  -10.4080   -3.3194   -2.8096 O   0  0  0  0  0  0  0  0  0  0  0  0
   -9.0362   -1.5039   -3.6369 C   0  0  0  0  0  0  0  0  0  0  0  0
   -9.4417   -0.4056   -4.6091 C   0  0  2  0  0  0  0  0  0  0  0  0
   -5.3476    2.8712   -4.9154 N   0  0  0  0  0  0  0  0  0  0  0  0
   -5.5246    1.6445   -5.4759 C   0  0  1  0  0  0  0  0  0  0  0  0
   -4.5375    1.1222   -6.2419 N   0  0  0  0  0  0  0  0  0  0  0  0
   -6.6662    0.9298   -5.2814 N   0  0  0  0  0  0  0  0  0  0  0  0
   -7.6872    1.4074   -4.5192 C   0  0  2  0  0  0  0  0  0  0  0  0
   -7.5630    2.6494   -3.9233 C   0  0  1  0  0  0  0  0  0  0  0  0
   -6.3128    3.4199   -4.1450 C   0  0  0  0  0  0  0  0  0  0  0  0
   -6.1556    4.5505   -3.6320 O   0  0  0  0  0  0  0  0  0  0  0  0
   -8.6943    2.8910   -3.2384 N   0  0  0  0  0  0  0  0  0  0  0  0
   -9.5035    1.8180   -3.3996 C   0  0  0  0  0  0  0  0  0  0  0  0
   -8.8872    0.9126   -4.1810 N   0  0  1  0  0  0  0  0  0  0  0  0
  1  2  1  0  0  0  0
  3  1  1  1  0  0  0
  3  4  1  0  0  0  0
  3  5  1  0  0  0  0
  5  6  1  6  0  0  0
  5  7  1  0  0  0  0
  7  8  1  0  0  0  0
  8  4  1  1  0  0  0
  8 19  1  0  0  0  0
  9 15  1  0  0  0  0
  9 10  1  0  0  0  0
 10 11  1  1  0  0  0
 10 12  1  0  0  0  0
 13 12  1  1  0  0  0
 13 14  1  0  0  0  0
 13 19  1  0  0  0  0
 14 15  1  6  0  0  0
 14 17  1  0  0  0  0
 15 16  2  0  0  0  0
 17 18  1  0  0  0  0
 19 18  1  6  0  0  0
M  END
>  <CHROM.1>
176.63182848,-153.01905345,-8.70591748,0.63074419,-3.96763855,2.58941906
-0.45484659,-2.90883005

>  <Name>
ligand

>  <RI>
0

>  <Rbt.Current_Directory>
/home/itssahil/PROJECTS/Mol_Feturizer/New_Systems/rnas/3SKI

>  <Rbt.Executable>
rbdock ($Id: //depot/dev/client3/rdock/2013.1/src/exe/rbdock.cxx#4 $)

>  <Rbt.Library>
libRbt.so (2013.1, Build901 2013/11/27)

>  <Rbt.Parameter_File>
/export/apps/rDock/src/rDock_2013.1_src/data/scripts/dock_solv.prm

>  <Rbt.Receptor>
prm/blind_docking_100.prm

>  <SCORE>
-18.5645

>  <SCORE.INTER>
-15.5673

>  <SCORE.INTER.CONST>
1

>  <SCORE.INTER.POLAR>
0

>  <SCORE.INTER.ROT>
2

>  <SCORE.INTER.SOLV>
9.76032

>  <SCORE.INTER.VDW>
-18.565

>  <SCORE.INTER.norm>
-0.819333

>  <SCORE.INTRA>
-2.99714

>  <SCORE.INTRA.DIHEDRAL>
-5.00754

>  <SCORE.INTRA.DIHEDRAL.0>
6.26853

>  <SCORE.INTRA.POLAR>
0

>  <SCORE.INTRA.POLAR.0>
0

>  <SCORE.INTRA.REPUL>
0

>  <SCORE.INTRA.REPUL.0>
0

>  <SCORE.INTRA.SOLV>
-0.0253364

>  <SCORE.INTRA.SOLV.lig_0>
-38.4926

>  <SCORE.INTRA.VDW>
-0.480701

>  <SCORE.INTRA.VDW.0>
-0.59057

>  <SCORE.INTRA.norm>
-0.157744

>  <SCORE.RESTR>
0

>  <SCORE.RESTR.CAVITY>
0

>  <SCORE.RESTR.norm>
0

>  <SCORE.SYSTEM>
0

>  <SCORE.SYSTEM.CONST>
0

>  <SCORE.SYSTEM.DIHEDRAL>
0

>  <SCORE.SYSTEM.SOLV>
0

>  <SCORE.SYSTEM.norm>
0

>  <SCORE.heavy>
19

>  <SCORE.norm>
-0.977077

>  <RMSD>
15.370

$$$$
ligand
 OpenBabel11021811483D
libRbt.so/2013.1/901 2013/11/27
 19 21  0  0  0  0  0  0  0  0999 V2000
  -12.4912   -0.6315   -2.7974 C   0  0  0  0  0  0  0  0  0  0  0  0
  -13.1160   -1.6077   -1.9507 O   0  0  0  0  0  0  0  0  0  0  0  0
  -11.4628   -1.2997   -3.7126 C   0  0  1  0  0  0  0  0  0  0  0  0
  -10.8884   -0.3395   -4.6199 O   0  0  0  0  0  0  0  0  0  0  0  0
  -10.3205   -1.8944   -2.9081 C   0  0  1  0  0  0  0  0  0  0  0  0
  -10.4375   -3.3199   -2.8195 O   0  0  0  0  0  0  0  0  0  0  0  0
   -9.0552   -1.5113   -3.6446 C   0  0  0  0  0  0  0  0  0  0  0  0
   -9.4549   -0.4084   -4.6138 C   0  0  2  0  0  0  0  0  0  0  0  0
   -5.3581    2.8618   -4.9523 N   0  0  0  0  0  0  0  0  0  0  0  0
   -5.5456    1.6398   -5.5195 C   0  0  1  0  0  0  0  0  0  0  0  0
   -4.5704    1.1212   -6.3032 N   0  0  0  0  0  0  0  0  0  0  0  0
   -6.6861    0.9261   -5.3146 N   0  0  0  0  0  0  0  0  0  0  0  0
   -7.6953    1.4001   -4.5347 C   0  0  2  0  0  0  0  0  0  0  0  0
   -7.5599    2.6373   -3.9312 C   0  0  1  0  0  0  0  0  0  0  0  0
   -6.3113    3.4067   -4.1645 C   0  0  0  0  0  0  0  0  0  0  0  0
   -6.1444    4.5330   -3.6452 O   0  0  0  0  0  0  0  0  0  0  0  0
   -8.6811    2.8761   -3.2288 N   0  0  0  0  0  0  0  0  0  0  0  0
   -9.4949    1.8061   -3.3868 C   0  0  0  0  0  0  0  0  0  0  0  0
   -8.8915    0.9053   -4.1836 N   0  0  1  0  0  0  0  0  0  0  0  0
  1  2  1  0  0  0  0
  3  1  1  1  0  0  0
  3  4  1  0  0  0  0
  3  5  1  0  0  0  0
  5  6  1  6  0  0  0
  5  7  1  0  0  0  0
  7  8  1  0  0  0  0
  8  4  1  1  0  0  0
  8 19  1  0  0  0  0
  9 15  1  0  0  0  0
  9 10  1  0  0  0  0
 10 11  1  1  0  0  0
 10 12  1  0  0  0  0
 13 12  1  1  0  0  0
 13 14  1  0  0  0  0
 13 19  1  0  0  0  0
 14 15  1  6  0  0  0
 14 17  1  0  0  0  0
 15 16  2  0  0  0  0
 17 18  1  0  0  0  0
 19 18  1  6  0  0  0
M  END
>  <CHROM.1>
176.60149877,-152.19435863,-8.71685261,0.62720194,-3.98080196,2.59848709
-0.46356383,-2.89731443

>  <Name>
ligand

>  <RI>
0

>  <Rbt.Current_Directory>
/home/itssahil/PROJECTS/Mol_Feturizer/New_Systems/rnas/3SKI

>  <Rbt.Executable>
rbdock ($Id: //depot/dev/client3/rdock/2013.1/src/exe/rbdock.cxx#4 $)

>  <Rbt.Library>
libRbt.so (2013.1, Build901 2013/11/27)

>  <Rbt.Parameter_File>
/export/apps/rDock/src/rDock_2013.1_src/data/scripts/dock_solv.prm

>  <Rbt.Receptor>
prm/blind_docking_40.prm

>  <SCORE>
-18.472

>  <SCORE.INTER>
-15.4714

>  <SCORE.INTER.CONST>
1

>  <SCORE.INTER.POLAR>
0

>  <SCORE.INTER.ROT>
2

>  <SCORE.INTER.SOLV>
9.62772

>  <SCORE.INTER.VDW>
-18.4568

>  <SCORE.INTER.norm>
-0.814285

>  <SCORE.INTRA>
-3.00058

>  <SCORE.INTRA.DIHEDRAL>
-5.00669

>  <SCORE.INTRA.DIHEDRAL.0>
6.26853

>  <SCORE.INTRA.POLAR>
0

>  <SCORE.INTRA.POLAR.0>
0

>  <SCORE.INTRA.REPUL>
0

>  <SCORE.INTRA.REPUL.0>
0

>  <SCORE.INTRA.SOLV>
-0.0253384

>  <SCORE.INTRA.SOLV.lig_0>
-38.4926

>  <SCORE.INTRA.VDW>
-0.484566

>  <SCORE.INTRA.VDW.0>
-0.59057

>  <SCORE.INTRA.norm>
-0.157925

>  <SCORE.RESTR>
0

>  <SCORE.RESTR.CAVITY>
0

>  <SCORE.RESTR.norm>
0

>  <SCORE.SYSTEM>
0

>  <SCORE.SYSTEM.CONST>
0

>  <SCORE.SYSTEM.DIHEDRAL>
0

>  <SCORE.SYSTEM.SOLV>
0

>  <SCORE.SYSTEM.norm>
0

>  <SCORE.heavy>
19

>  <SCORE.norm>
-0.97221

>  <RMSD>
15.383

$$$$
ligand
 OpenBabel11021811483D
libRbt.so/2013.1/901 2013/11/27
 19 21  0  0  0  0  0  0  0  0999 V2000
   -8.2395   -2.7884   -6.9581 C   0  0  0  0  0  0  0  0  0  0  0  0
   -9.6134   -3.1700   -6.7935 O   0  0  0  0  0  0  0  0  0  0  0  0
   -7.5250   -2.7715   -5.6050 C   0  0  1  0  0  0  0  0  0  0  0  0
   -8.1170   -1.7936   -4.7284 O   0  0  0  0  0  0  0  0  0  0  0  0
   -7.6352   -4.1184   -4.9124 C   0  0  1  0  0  0  0  0  0  0  0  0
   -6.4039   -4.8465   -4.9985 O   0  0  0  0  0  0  0  0  0  0  0  0
   -7.9702   -3.8126   -3.4687 C   0  0  0  0  0  0  0  0  0  0  0  0
   -8.4171   -2.3582   -3.4436 C   0  0  2  0  0  0  0  0  0  0  0  0
  -12.5150    0.8927   -2.9631 N   0  0  0  0  0  0  0  0  0  0  0  0
  -11.2085    1.1711   -3.2197 C   0  0  1  0  0  0  0  0  0  0  0  0
  -10.8309    2.4607   -3.3876 N   0  0  0  0  0  0  0  0  0  0  0  0
  -10.2736    0.1860   -3.3071 N   0  0  0  0  0  0  0  0  0  0  0  0
  -10.5995   -1.1250   -3.1444 C   0  0  2  0  0  0  0  0  0  0  0  0
  -11.9133   -1.4678   -2.8805 C   0  0  1  0  0  0  0  0  0  0  0  0
  -12.9240   -0.3835   -2.7896 C   0  0  0  0  0  0  0  0  0  0  0  0
  -14.1261   -0.6437   -2.5585 O   0  0  0  0  0  0  0  0  0  0  0  0
  -11.9738   -2.8062   -2.7695 N   0  0  0  0  0  0  0  0  0  0  0  0
  -10.7216   -3.2860   -2.9542 C   0  0  0  0  0  0  0  0  0  0  0  0
   -9.8834   -2.2585   -3.1821 N   0  0  1  0  0  0  0  0  0  0  0  0
  1  2  1  0  0  0  0
  3  1  1  6  0  0  0
  3  4  1  0  0  0  0
  3  5  1  0  0  0  0
  5  6  1  1  0  0  0
  5  7  1  0  0  0  0
  7  8  1  0  0  0  0
  8  4  1  6  0  0  0
  8 19  1  0  0  0  0
  9 15  1  0  0  0  0
  9 10  1  0  0  0  0
 10 11  1  1  0  0  0
 10 12  1  0  0  0  0
 13 12  1  1  0  0  0
 13 14  1  0  0  0  0
 13 19  1  0  0  0  0
 14 15  1  6  0  0  0
 14 17  1  0  0  0  0
 15 16  2  0  0  0  0
 17 18  1  0  0  0  0
 19 18  1  6  0  0  0
M  END
>  <CHROM.1>
-62.42173728,-59.06174415,-10.00222042,-1.77170211,-3.95076676,-0.57021393
0.54996634,-0.13129190

>  <Name>
ligand

>  <RI>
0

>  <Rbt.Current_Directory>
/home/itssahil/PROJECTS/Mol_Feturizer/New_Systems/rnas/3SKI

>  <Rbt.Executable>
rbdock ($Id: //depot/dev/client3/rdock/2013.1/src/exe/rbdock.cxx#4 $)

>  <Rbt.Library>
libRbt.so (2013.1, Build901 2013/11/27)

>  <Rbt.Parameter_File>
/export/apps/rDock/src/rDock_2013.1_src/data/scripts/dock_solv.prm

>  <Rbt.Receptor>
prm/blind_docking_100.prm

>  <SCORE>
-13.1854

>  <SCORE.INTER>
-10.9119

>  <SCORE.INTER.CONST>
1

>  <SCORE.INTER.POLAR>
0

>  <SCORE.INTER.ROT>
2

>  <SCORE.INTER.SOLV>
13.5309

>  <SCORE.INTER.VDW>
-16.7182

>  <SCORE.INTER.norm>
-0.574309

>  <SCORE.INTRA>
-2.27353

>  <SCORE.INTRA.DIHEDRAL>
-5.04468

>  <SCORE.INTRA.DIHEDRAL.0>
6.26853

>  <SCORE.INTRA.POLAR>
0

>  <SCORE.INTRA.POLAR.0>
0

>  <SCORE.INTRA.REPUL>
0

>  <SCORE.INTRA.REPUL.0>
0

>  <SCORE.INTRA.SOLV>
0.234171

>  <SCORE.INTRA.SOLV.lig_0>
-38.4926

>  <SCORE.INTRA.VDW>
0.131728

>  <SCORE.INTRA.VDW.0>
-0.59057

>  <SCORE.INTRA.norm>
-0.119659

>  <SCORE.RESTR>
0

>  <SCORE.RESTR.CAVITY>
0

>  <SCORE.RESTR.norm>
0

>  <SCORE.SYSTEM>
0

>  <SCORE.SYSTEM.CONST>
0

>  <SCORE.SYSTEM.DIHEDRAL>
0

>  <SCORE.SYSTEM.SOLV>
0

>  <SCORE.SYSTEM.norm>
0

>  <SCORE.heavy>
19

>  <SCORE.norm>
-0.693969

>  <RMSD>
15.400

$$$$
ligand
 OpenBabel11021811483D
libRbt.so/2013.1/901 2013/11/27
 19 21  0  0  0  0  0  0  0  0999 V2000
    4.9664    0.6875   -1.6322 C   0  0  0  0  0  0  0  0  0  0  0  0
    3.8918    1.4465   -2.2061 O   0  0  0  0  0  0  0  0  0  0  0  0
    4.7018    0.4272   -0.1476 C   0  0  1  0  0  0  0  0  0  0  0  0
    3.4854   -0.3237    0.0292 O   0  0  0  0  0  0  0  0  0  0  0  0
    5.8241   -0.3861    0.4727 C   0  0  1  0  0  0  0  0  0  0  0  0
    6.6781    0.4387    1.2753 O   0  0  0  0  0  0  0  0  0  0  0  0
    5.1477   -1.4369    1.3261 C   0  0  0  0  0  0  0  0  0  0  0  0
    3.6907   -1.4553    0.8876 C   0  0  2  0  0  0  0  0  0  0  0  0
    3.0739   -6.6589    1.2547 N   0  0  0  0  0  0  0  0  0  0  0  0
    3.3931   -5.7503    2.2153 C   0  0  1  0  0  0  0  0  0  0  0  0
    3.5993   -6.1780    3.4836 N   0  0  0  0  0  0  0  0  0  0  0  0
    3.5139   -4.4249    1.9310 N   0  0  0  0  0  0  0  0  0  0  0  0
    3.3195   -3.9432    0.6734 C   0  0  2  0  0  0  0  0  0  0  0  0
    2.9935   -4.8212   -0.3445 C   0  0  1  0  0  0  0  0  0  0  0  0
    2.8628   -6.2646   -0.0205 C   0  0  0  0  0  0  0  0  0  0  0  0
    2.5640   -7.0971   -0.9057 O   0  0  0  0  0  0  0  0  0  0  0  0
    2.8506   -4.1056   -1.4735 N   0  0  0  0  0  0  0  0  0  0  0  0
    3.0892   -2.8093   -1.1657 C   0  0  0  0  0  0  0  0  0  0  0  0
    3.3763   -2.7116    0.1452 N   0  0  1  0  0  0  0  0  0  0  0  0
  1  2  1  0  0  0  0
  3  1  1  6  0  0  0
  3  4  1  0  0  0  0
  3  5  1  0  0  0  0
  5  6  1  1  0  0  0
  5  7  1  0  0  0  0
  7  8  1  0  0  0  0
  8  4  1  6  0  0  0
  8 19  1  0  0  0  0
  9 15  1  0  0  0  0
  9 10  1  0  0  0  0
 10 11  1  6  0  0  0
 10 12  1  0  0  0  0
 13 12  1  6  0  0  0
 13 14  1  0  0  0  0
 13 19  1  0  0  0  0
 14 15  1  1  0  0  0
 14 17  1  0  0  0  0
 15 16  2  0  0  0  0
 17 18  1  0  0  0  0
 19 18  1  1  0  0  0
M  END
>  <CHROM.1>
60.57626715,-172.44622886,3.86999561,-2.82575892,0.28215122,1.01887309,-1.03649396
-0.69150106

>  <Name>
ligand

>  <RI>
0

>  <Rbt.Current_Directory>
/home/itssahil/PROJECTS/Mol_Feturizer/New_Systems/rnas/3SKI

>  <Rbt.Executable>
rbdock ($Id: //depot/dev/client3/rdock/2013.1/src/exe/rbdock.cxx#4 $)

>  <Rbt.Library>
libRbt.so (2013.1, Build901 2013/11/27)

>  <Rbt.Parameter_File>
/export/apps/rDock/src/rDock_2013.1_src/data/scripts/dock_solv.prm

>  <Rbt.Receptor>
prm/blind_docking_80.prm

>  <SCORE>
-16.4069

>  <SCORE.INTER>
-13.3498

>  <SCORE.INTER.CONST>
1

>  <SCORE.INTER.POLAR>
0

>  <SCORE.INTER.ROT>
2

>  <SCORE.INTER.SOLV>
6.52916

>  <SCORE.INTER.VDW>
-16.0096

>  <SCORE.INTER.norm>
-0.702622

>  <SCORE.INTRA>
-3.05703

>  <SCORE.INTRA.DIHEDRAL>
-5.05729

>  <SCORE.INTRA.DIHEDRAL.0>
6.26853

>  <SCORE.INTRA.POLAR>
0

>  <SCORE.INTRA.POLAR.0>
0

>  <SCORE.INTRA.REPUL>
0

>  <SCORE.INTRA.REPUL.0>
0

>  <SCORE.INTRA.SOLV>
-0.24144

>  <SCORE.INTRA.SOLV.lig_0>
-38.4926

>  <SCORE.INTRA.VDW>
-0.407665

>  <SCORE.INTRA.VDW.0>
-0.59057

>  <SCORE.INTRA.norm>
-0.160896

>  <SCORE.RESTR>
0

>  <SCORE.RESTR.CAVITY>
0

>  <SCORE.RESTR.norm>
0

>  <SCORE.SYSTEM>
0

>  <SCORE.SYSTEM.CONST>
0

>  <SCORE.SYSTEM.DIHEDRAL>
0

>  <SCORE.SYSTEM.SOLV>
0

>  <SCORE.SYSTEM.norm>
0

>  <SCORE.heavy>
19

>  <SCORE.norm>
-0.863519

>  <RMSD>
15.403

$$$$
ligand
 OpenBabel11021811483D
libRbt.so/2013.1/901 2013/11/27
 19 21  0  0  0  0  0  0  0  0999 V2000
  -12.5534   -0.5983   -2.9554 C   0  0  0  0  0  0  0  0  0  0  0  0
  -12.0488    0.6244   -2.3982 O   0  0  0  0  0  0  0  0  0  0  0  0
  -11.4677   -1.2985   -3.7757 C   0  0  1  0  0  0  0  0  0  0  0  0
  -10.8487   -0.3768   -4.6935 O   0  0  0  0  0  0  0  0  0  0  0  0
  -10.3699   -1.8415   -2.8780 C   0  0  1  0  0  0  0  0  0  0  0  0
  -10.4806   -3.2623   -2.7272 O   0  0  0  0  0  0  0  0  0  0  0  0
   -9.0667   -1.4806   -3.5573 C   0  0  0  0  0  0  0  0  0  0  0  0
   -9.4176   -0.4299   -4.6006 C   0  0  2  0  0  0  0  0  0  0  0  0
   -5.3105    2.8388   -4.8033 N   0  0  0  0  0  0  0  0  0  0  0  0
   -5.4519    1.5858   -5.3136 C   0  0  1  0  0  0  0  0  0  0  0  0
   -4.4180    1.0294   -5.9885 N   0  0  0  0  0  0  0  0  0  0  0  0
   -6.6041    0.8785   -5.1581 N   0  0  0  0  0  0  0  0  0  0  0  0
   -7.6715    1.3899   -4.4869 C   0  0  2  0  0  0  0  0  0  0  0  0
   -7.5850    2.6597   -3.9454 C   0  0  1  0  0  0  0  0  0  0  0  0
   -6.3228    3.4218   -4.1239 C   0  0  0  0  0  0  0  0  0  0  0  0
   -6.1982    4.5763   -3.6575 O   0  0  0  0  0  0  0  0  0  0  0  0
   -8.7578    2.9314   -3.3469 N   0  0  0  0  0  0  0  0  0  0  0  0
   -9.5556    1.8497   -3.5072 C   0  0  0  0  0  0  0  0  0  0  0  0
   -8.8909    0.9090   -4.2026 N   0  0  1  0  0  0  0  0  0  0  0  0
  1  2  1  0  0  0  0
  3  1  1  1  0  0  0
  3  4  1  0  0  0  0
  3  5  1  0  0  0  0
  5  6  1  6  0  0  0
  5  7  1  0  0  0  0
  7  8  1  0  0  0  0
  8  4  1  1  0  0  0
  8 19  1  0  0  0  0
  9 15  1  0  0  0  0
  9 10  1  0  0  0  0
 10 11  1  1  0  0  0
 10 12  1  0  0  0  0
 13 12  1  1  0  0  0
 13 14  1  0  0  0  0
 13 19  1  0  0  0  0
 14 15  1  6  0  0  0
 14 17  1  0  0  0  0
 15 16  2  0  0  0  0
 17 18  1  0  0  0  0
 19 18  1  6  0  0  0
M  END
>  <CHROM.1>
-49.27714710,-153.44711506,-8.64782321,0.76811311,-3.97934966,2.57920303
-0.38560437,-2.96041436

>  <Name>
ligand

>  <RI>
0

>  <Rbt.Current_Directory>
/home/itssahil/PROJECTS/Mol_Feturizer/New_Systems/rnas/3SKI

>  <Rbt.Executable>
rbdock ($Id: //depot/dev/client3/rdock/2013.1/src/exe/rbdock.cxx#4 $)

>  <Rbt.Library>
libRbt.so (2013.1, Build901 2013/11/27)

>  <Rbt.Parameter_File>
/export/apps/rDock/src/rDock_2013.1_src/data/scripts/dock_solv.prm

>  <Rbt.Receptor>
prm/blind_docking_20.prm

>  <SCORE>
-17.9111

>  <SCORE.INTER>
-15.007

>  <SCORE.INTER.CONST>
1

>  <SCORE.INTER.POLAR>
0

>  <SCORE.INTER.ROT>
2

>  <SCORE.INTER.SOLV>
10.4464

>  <SCORE.INTER.VDW>
-18.4201

>  <SCORE.INTER.norm>
-0.789842

>  <SCORE.INTRA>
-2.90409

>  <SCORE.INTRA.DIHEDRAL>
-4.63886

>  <SCORE.INTRA.DIHEDRAL.0>
6.26853

>  <SCORE.INTRA.POLAR>
0

>  <SCORE.INTRA.POLAR.0>
0

>  <SCORE.INTRA.REPUL>
0

>  <SCORE.INTRA.REPUL.0>
0

>  <SCORE.INTRA.SOLV>
0.279291

>  <SCORE.INTRA.SOLV.lig_0>
-38.4926

>  <SCORE.INTRA.VDW>
-0.724309

>  <SCORE.INTRA.VDW.0>
-0.59057

>  <SCORE.INTRA.norm>
-0.152847

>  <SCORE.RESTR>
0

>  <SCORE.RESTR.CAVITY>
0

>  <SCORE.RESTR.norm>
0

>  <SCORE.SYSTEM>
0

>  <SCORE.SYSTEM.CONST>
0

>  <SCORE.SYSTEM.DIHEDRAL>
0

>  <SCORE.SYSTEM.SOLV>
0

>  <SCORE.SYSTEM.norm>
0

>  <SCORE.heavy>
19

>  <SCORE.norm>
-0.942689

>  <RMSD>
15.407

$$$$
ligand
 OpenBabel11021811483D
libRbt.so/2013.1/901 2013/11/27
 19 21  0  0  0  0  0  0  0  0999 V2000
   -8.7787   -2.9955   -7.1290 C   0  0  0  0  0  0  0  0  0  0  0  0
   -8.1733   -3.9600   -8.0028 O   0  0  0  0  0  0  0  0  0  0  0  0
   -7.9157   -2.7900   -5.8821 C   0  0  1  0  0  0  0  0  0  0  0  0
   -8.4398   -1.7216   -5.0702 O   0  0  0  0  0  0  0  0  0  0  0  0
   -7.8962   -4.0395   -5.0194 C   0  0  1  0  0  0  0  0  0  0  0  0
   -6.6566   -4.7448   -5.1588 O   0  0  0  0  0  0  0  0  0  0  0  0
   -8.0755   -3.5594   -3.5956 C   0  0  0  0  0  0  0  0  0  0  0  0
   -8.5703   -2.1242   -3.6989 C   0  0  2  0  0  0  0  0  0  0  0  0
  -12.4636    1.1284   -2.3366 N   0  0  0  0  0  0  0  0  0  0  0  0
  -11.1765    1.4062   -2.6778 C   0  0  1  0  0  0  0  0  0  0  0  0
  -10.7621    2.6954   -2.6894 N   0  0  0  0  0  0  0  0  0  0  0  0
  -10.2964    0.4203   -3.0028 N   0  0  0  0  0  0  0  0  0  0  0  0
  -10.6607   -0.8907   -3.0046 C   0  0  2  0  0  0  0  0  0  0  0  0
  -11.9571   -1.2331   -2.6651 C   0  0  1  0  0  0  0  0  0  0  0  0
  -12.9080   -0.1475   -2.3144 C   0  0  0  0  0  0  0  0  0  0  0  0
  -14.0929   -0.4064   -2.0060 O   0  0  0  0  0  0  0  0  0  0  0  0
  -12.0634   -2.5707   -2.7482 N   0  0  0  0  0  0  0  0  0  0  0  0
  -10.8556   -3.0514   -3.1256 C   0  0  0  0  0  0  0  0  0  0  0  0
   -9.9999   -2.0247   -3.2809 N   0  0  1  0  0  0  0  0  0  0  0  0
  1  2  1  0  0  0  0
  3  1  1  6  0  0  0
  3  4  1  0  0  0  0
  3  5  1  0  0  0  0
  5  6  1  1  0  0  0
  5  7  1  0  0  0  0
  7  8  1  0  0  0  0
  8  4  1  6  0  0  0
  8 19  1  0  0  0  0
  9 15  1  0  0  0  0
  9 10  1  0  0  0  0
 10 11  1  1  0  0  0
 10 12  1  0  0  0  0
 13 12  1  1  0  0  0
 13 14  1  0  0  0  0
 13 19  1  0  0  0  0
 14 15  1  6  0  0  0
 14 17  1  0  0  0  0
 15 16  2  0  0  0  0
 17 18  1  0  0  0  0
 19 18  1  6  0  0  0
M  END
>  <CHROM.1>
173.81012430,-75.41297347,-10.03657408,-1.66078413,-3.93118757,-0.67673143
0.63228527,0.07028110

>  <Name>
ligand

>  <RI>
0

>  <Rbt.Current_Directory>
/home/itssahil/PROJECTS/Mol_Feturizer/New_Systems/rnas/3SKI

>  <Rbt.Executable>
rbdock ($Id: //depot/dev/client3/rdock/2013.1/src/exe/rbdock.cxx#4 $)

>  <Rbt.Library>
libRbt.so (2013.1, Build901 2013/11/27)

>  <Rbt.Parameter_File>
/export/apps/rDock/src/rDock_2013.1_src/data/scripts/dock_solv.prm

>  <Rbt.Receptor>
prm/blind_docking_60.prm

>  <SCORE>
-15.0953

>  <SCORE.INTER>
-12.7978

>  <SCORE.INTER.CONST>
1

>  <SCORE.INTER.POLAR>
0

>  <SCORE.INTER.ROT>
2

>  <SCORE.INTER.SOLV>
13.2181

>  <SCORE.INTER.VDW>
-17.8713

>  <SCORE.INTER.norm>
-0.67357

>  <SCORE.INTRA>
-2.29743

>  <SCORE.INTRA.DIHEDRAL>
-4.94416

>  <SCORE.INTRA.DIHEDRAL.0>
6.26853

>  <SCORE.INTRA.POLAR>
0

>  <SCORE.INTRA.POLAR.0>
0

>  <SCORE.INTRA.REPUL>
0

>  <SCORE.INTRA.REPUL.0>
0

>  <SCORE.INTRA.SOLV>
-0.0218107

>  <SCORE.INTRA.SOLV.lig_0>
-38.4926

>  <SCORE.INTRA.VDW>
0.185561

>  <SCORE.INTRA.VDW.0>
-0.59057

>  <SCORE.INTRA.norm>
-0.120917

>  <SCORE.RESTR>
0

>  <SCORE.RESTR.CAVITY>
0

>  <SCORE.RESTR.norm>
0

>  <SCORE.SYSTEM>
0

>  <SCORE.SYSTEM.CONST>
0

>  <SCORE.SYSTEM.DIHEDRAL>
0

>  <SCORE.SYSTEM.SOLV>
0

>  <SCORE.SYSTEM.norm>
0

>  <SCORE.heavy>
19

>  <SCORE.norm>
-0.794487

>  <RMSD>
15.417

$$$$
ligand
 OpenBabel11021811483D
libRbt.so/2013.1/901 2013/11/27
 19 21  0  0  0  0  0  0  0  0999 V2000
   -8.7644   -2.9646   -7.1283 C   0  0  0  0  0  0  0  0  0  0  0  0
   -8.1791   -3.9310   -8.0137 O   0  0  0  0  0  0  0  0  0  0  0  0
   -7.8996   -2.7952   -5.8772 C   0  0  1  0  0  0  0  0  0  0  0  0
   -8.4178   -1.7452   -5.0381 O   0  0  0  0  0  0  0  0  0  0  0  0
   -7.8859   -4.0663   -5.0466 C   0  0  1  0  0  0  0  0  0  0  0  0
   -6.6499   -4.7741   -5.2048 O   0  0  0  0  0  0  0  0  0  0  0  0
   -8.0620   -3.6217   -3.6109 C   0  0  0  0  0  0  0  0  0  0  0  0
   -8.5496   -2.1818   -3.6773 C   0  0  2  0  0  0  0  0  0  0  0  0
  -12.4708    1.0661   -2.3858 N   0  0  0  0  0  0  0  0  0  0  0  0
  -11.1880    1.3478   -2.7400 C   0  0  1  0  0  0  0  0  0  0  0  0
  -10.7871    2.6405   -2.7880 N   0  0  0  0  0  0  0  0  0  0  0  0
  -10.2991    0.3626   -3.0422 N   0  0  0  0  0  0  0  0  0  0  0  0
  -10.6498   -0.9516   -3.0073 C   0  0  2  0  0  0  0  0  0  0  0  0
  -11.9412   -1.2981   -2.6531 C   0  0  1  0  0  0  0  0  0  0  0  0
  -12.9019   -0.2133   -2.3275 C   0  0  0  0  0  0  0  0  0  0  0  0
  -14.0827   -0.4759   -2.0071 O   0  0  0  0  0  0  0  0  0  0  0  0
  -12.0340   -2.6384   -2.6998 N   0  0  0  0  0  0  0  0  0  0  0  0
  -10.8228   -3.1167   -3.0694 C   0  0  0  0  0  0  0  0  0  0  0  0
   -9.9784   -2.0859   -3.2560 N   0  0  1  0  0  0  0  0  0  0  0  0
  1  2  1  0  0  0  0
  3  1  1  6  0  0  0
  3  4  1  0  0  0  0
  3  5  1  0  0  0  0
  5  6  1  1  0  0  0
  5  7  1  0  0  0  0
  7  8  1  0  0  0  0
  8  4  1  6  0  0  0
  8 19  1  0  0  0  0
  9 15  1  0  0  0  0
  9 10  1  0  0  0  0
 10 11  1  1  0  0  0
 10 12  1  0  0  0  0
 13 12  1  1  0  0  0
 13 14  1  0  0  0  0
 13 19  1  0  0  0  0
 14 15  1  6  0  0  0
 14 17  1  0  0  0  0
 15 16  2  0  0  0  0
 17 18  1  0  0  0  0
 19 18  1  6  0  0  0
M  END
>  <CHROM.1>
175.04804969,-72.28625067,-10.02734189,-1.70346105,-3.94015816,-0.62690795
0.66917688,0.00011690

>  <Name>
ligand

>  <RI>
0

>  <Rbt.Current_Directory>
/home/itssahil/PROJECTS/Mol_Feturizer/New_Systems/rnas/3SKI

>  <Rbt.Executable>
rbdock ($Id: //depot/dev/client3/rdock/2013.1/src/exe/rbdock.cxx#4 $)

>  <Rbt.Library>
libRbt.so (2013.1, Build901 2013/11/27)

>  <Rbt.Parameter_File>
/export/apps/rDock/src/rDock_2013.1_src/data/scripts/dock_solv.prm

>  <Rbt.Receptor>
prm/blind_docking_60.prm

>  <SCORE>
-15.0377

>  <SCORE.INTER>
-12.7633

>  <SCORE.INTER.CONST>
1

>  <SCORE.INTER.POLAR>
0

>  <SCORE.INTER.ROT>
2

>  <SCORE.INTER.SOLV>
13.154

>  <SCORE.INTER.VDW>
-17.8269

>  <SCORE.INTER.norm>
-0.671754

>  <SCORE.INTRA>
-2.27435

>  <SCORE.INTRA.DIHEDRAL>
-4.99064

>  <SCORE.INTRA.DIHEDRAL.0>
6.26853

>  <SCORE.INTRA.POLAR>
0

>  <SCORE.INTRA.POLAR.0>
0

>  <SCORE.INTRA.REPUL>
0

>  <SCORE.INTRA.REPUL.0>
0

>  <SCORE.INTRA.SOLV>
-0.0133154

>  <SCORE.INTRA.SOLV.lig_0>
-38.4926

>  <SCORE.INTRA.VDW>
0.227626

>  <SCORE.INTRA.VDW.0>
-0.59057

>  <SCORE.INTRA.norm>
-0.119703

>  <SCORE.RESTR>
0

>  <SCORE.RESTR.CAVITY>
0

>  <SCORE.RESTR.norm>
0

>  <SCORE.SYSTEM>
0

>  <SCORE.SYSTEM.CONST>
0

>  <SCORE.SYSTEM.DIHEDRAL>
0

>  <SCORE.SYSTEM.SOLV>
0

>  <SCORE.SYSTEM.norm>
0

>  <SCORE.heavy>
19

>  <SCORE.norm>
-0.791457

>  <RMSD>
15.418

$$$$
ligand
 OpenBabel11021811483D
libRbt.so/2013.1/901 2013/11/27
 19 21  0  0  0  0  0  0  0  0999 V2000
  -12.4877   -0.6409   -2.5758 C   0  0  0  0  0  0  0  0  0  0  0  0
  -13.6232   -0.0845   -3.2549 O   0  0  0  0  0  0  0  0  0  0  0  0
  -11.5326   -1.2917   -3.5789 C   0  0  1  0  0  0  0  0  0  0  0  0
  -11.0147   -0.3117   -4.4988 O   0  0  0  0  0  0  0  0  0  0  0  0
  -10.3420   -1.9165   -2.8732 C   0  0  1  0  0  0  0  0  0  0  0  0
  -10.4658   -3.3429   -2.8143 O   0  0  0  0  0  0  0  0  0  0  0  0
   -9.1284   -1.5230   -3.6870 C   0  0  0  0  0  0  0  0  0  0  0  0
   -9.5851   -0.3914   -4.5960 C   0  0  2  0  0  0  0  0  0  0  0  0
   -5.3807    2.7391   -4.9371 N   0  0  0  0  0  0  0  0  0  0  0  0
   -5.6060    1.5200   -5.4968 C   0  0  1  0  0  0  0  0  0  0  0  0
   -4.6449    0.9639   -6.2721 N   0  0  0  0  0  0  0  0  0  0  0  0
   -6.7704    0.8459   -5.2925 N   0  0  0  0  0  0  0  0  0  0  0  0
   -7.7669    1.3585   -4.5207 C   0  0  2  0  0  0  0  0  0  0  0  0
   -7.5935    2.5948   -3.9251 C   0  0  1  0  0  0  0  0  0  0  0  0
   -6.3190    3.3208   -4.1577 C   0  0  0  0  0  0  0  0  0  0  0  0
   -6.1173    4.4446   -3.6453 O   0  0  0  0  0  0  0  0  0  0  0  0
   -8.7094    2.8754   -3.2299 N   0  0  0  0  0  0  0  0  0  0  0  0
   -9.5575    1.8318   -3.3845 C   0  0  0  0  0  0  0  0  0  0  0  0
   -8.9805    0.9060   -4.1721 N   0  0  1  0  0  0  0  0  0  0  0  0
  1  2  1  0  0  0  0
  3  1  1  1  0  0  0
  3  4  1  0  0  0  0
  3  5  1  0  0  0  0
  5  6  1  6  0  0  0
  5  7  1  0  0  0  0
  7  8  1  0  0  0  0
  8  4  1  1  0  0  0
  8 19  1  0  0  0  0
  9 15  1  0  0  0  0
  9 10  1  0  0  0  0
 10 11  1  1  0  0  0
 10 12  1  0  0  0  0
 13 12  1  1  0  0  0
 13 14  1  0  0  0  0
 13 19  1  0  0  0  0
 14 15  1  6  0  0  0
 14 17  1  0  0  0  0
 15 16  2  0  0  0  0
 17 18  1  0  0  0  0
 19 18  1  6  0  0  0
M  END
>  <CHROM.1>
62.50976167,-157.13734522,-8.79737495,0.68293599,-4.02741572,2.60736241,-0.35851140
-2.98054703

>  <Name>
ligand

>  <RI>
0

>  <Rbt.Current_Directory>
/home/itssahil/PROJECTS/Mol_Feturizer/New_Systems/rnas/3SKI

>  <Rbt.Executable>
rbdock ($Id: //depot/dev/client3/rdock/2013.1/src/exe/rbdock.cxx#4 $)

>  <Rbt.Library>
libRbt.so (2013.1, Build901 2013/11/27)

>  <Rbt.Parameter_File>
/export/apps/rDock/src/rDock_2013.1_src/data/scripts/dock_solv.prm

>  <Rbt.Receptor>
prm/blind_docking_100.prm

>  <SCORE>
-18.66

>  <SCORE.INTER>
-15.5013

>  <SCORE.INTER.CONST>
1

>  <SCORE.INTER.POLAR>
0

>  <SCORE.INTER.ROT>
2

>  <SCORE.INTER.SOLV>
10.0956

>  <SCORE.INTER.VDW>
-18.6327

>  <SCORE.INTER.norm>
-0.815859

>  <SCORE.INTRA>
-3.15862

>  <SCORE.INTRA.DIHEDRAL>
-5.02473

>  <SCORE.INTRA.DIHEDRAL.0>
6.26853

>  <SCORE.INTRA.POLAR>
0

>  <SCORE.INTRA.POLAR.0>
0

>  <SCORE.INTRA.REPUL>
0

>  <SCORE.INTRA.REPUL.0>
0

>  <SCORE.INTRA.SOLV>
-0.244461

>  <SCORE.INTRA.SOLV.lig_0>
-38.4926

>  <SCORE.INTRA.VDW>
-0.524028

>  <SCORE.INTRA.VDW.0>
-0.59057

>  <SCORE.INTRA.norm>
-0.166243

>  <SCORE.RESTR>
0

>  <SCORE.RESTR.CAVITY>
0

>  <SCORE.RESTR.norm>
0

>  <SCORE.SYSTEM>
0

>  <SCORE.SYSTEM.CONST>
0

>  <SCORE.SYSTEM.DIHEDRAL>
0

>  <SCORE.SYSTEM.SOLV>
0

>  <SCORE.SYSTEM.norm>
0

>  <SCORE.heavy>
19

>  <SCORE.norm>
-0.982103

>  <RMSD>
15.461

$$$$
ligand
 OpenBabel11021811483D
libRbt.so/2013.1/901 2013/11/27
 19 21  0  0  0  0  0  0  0  0999 V2000
  -12.4948   -0.6175   -2.5703 C   0  0  0  0  0  0  0  0  0  0  0  0
  -13.6479   -0.0837   -3.2379 O   0  0  0  0  0  0  0  0  0  0  0  0
  -11.5486   -1.2705   -3.5803 C   0  0  1  0  0  0  0  0  0  0  0  0
  -11.0294   -0.2904   -4.4994 O   0  0  0  0  0  0  0  0  0  0  0  0
  -10.3582   -1.9046   -2.8825 C   0  0  1  0  0  0  0  0  0  0  0  0
  -10.4902   -3.3305   -2.8278 O   0  0  0  0  0  0  0  0  0  0  0  0
   -9.1463   -1.5157   -3.7010 C   0  0  0  0  0  0  0  0  0  0  0  0
   -9.6008   -0.3783   -4.6039 C   0  0  2  0  0  0  0  0  0  0  0  0
   -5.3634    2.7099   -4.9223 N   0  0  0  0  0  0  0  0  0  0  0  0
   -5.5967    1.4917   -5.4808 C   0  0  1  0  0  0  0  0  0  0  0  0
   -4.6357    0.9244   -6.2480 N   0  0  0  0  0  0  0  0  0  0  0  0
   -6.7691    0.8296   -5.2833 N   0  0  0  0  0  0  0  0  0  0  0  0
   -7.7660    1.3538   -4.5198 C   0  0  2  0  0  0  0  0  0  0  0  0
   -7.5846    2.5897   -3.9258 C   0  0  1  0  0  0  0  0  0  0  0  0
   -6.3014    3.3026   -4.1509 C   0  0  0  0  0  0  0  0  0  0  0  0
   -6.0923    4.4255   -3.6397 O   0  0  0  0  0  0  0  0  0  0  0  0
   -8.7025    2.8829   -3.2391 N   0  0  0  0  0  0  0  0  0  0  0  0
   -9.5598    1.8474   -3.3973 C   0  0  0  0  0  0  0  0  0  0  0  0
   -8.9864    0.9141   -4.1787 N   0  0  1  0  0  0  0  0  0  0  0  0
  1  2  1  0  0  0  0
  3  1  1  1  0  0  0
  3  4  1  0  0  0  0
  3  5  1  0  0  0  0
  5  6  1  6  0  0  0
  5  7  1  0  0  0  0
  7  8  1  0  0  0  0
  8  4  1  1  0  0  0
  8 19  1  0  0  0  0
  9 15  1  0  0  0  0
  9 10  1  0  0  0  0
 10 11  1  1  0  0  0
 10 12  1  0  0  0  0
 13 12  1  1  0  0  0
 13 14  1  0  0  0  0
 13 19  1  0  0  0  0
 14 15  1  6  0  0  0
 14 17  1  0  0  0  0
 15 16  2  0  0  0  0
 17 18  1  0  0  0  0
 19 18  1  6  0  0  0
M  END
>  <CHROM.1>
64.06405360,-157.93019920,-8.80035510,0.68222458,-4.02609300,2.61488419,-0.35488972
-2.97797517

>  <Name>
ligand

>  <RI>
0

>  <Rbt.Current_Directory>
/home/itssahil/PROJECTS/Mol_Feturizer/New_Systems/rnas/3SKI

>  <Rbt.Executable>
rbdock ($Id: //depot/dev/client3/rdock/2013.1/src/exe/rbdock.cxx#4 $)

>  <Rbt.Library>
libRbt.so (2013.1, Build901 2013/11/27)

>  <Rbt.Parameter_File>
/export/apps/rDock/src/rDock_2013.1_src/data/scripts/dock_solv.prm

>  <Rbt.Receptor>
prm/blind_docking_60.prm

>  <SCORE>
-18.6488

>  <SCORE.INTER>
-15.509

>  <SCORE.INTER.CONST>
1

>  <SCORE.INTER.POLAR>
0

>  <SCORE.INTER.ROT>
2

>  <SCORE.INTER.SOLV>
10.1549

>  <SCORE.INTER.VDW>
-18.6577

>  <SCORE.INTER.norm>
-0.816265

>  <SCORE.INTRA>
-3.13977

>  <SCORE.INTRA.DIHEDRAL>
-4.98775

>  <SCORE.INTRA.DIHEDRAL.0>
6.26853

>  <SCORE.INTRA.POLAR>
0

>  <SCORE.INTRA.POLAR.0>
0

>  <SCORE.INTRA.REPUL>
0

>  <SCORE.INTRA.REPUL.0>
0

>  <SCORE.INTRA.SOLV>
-0.250415

>  <SCORE.INTRA.SOLV.lig_0>
-38.4926

>  <SCORE.INTRA.VDW>
-0.520684

>  <SCORE.INTRA.VDW.0>
-0.59057

>  <SCORE.INTRA.norm>
-0.165251

>  <SCORE.RESTR>
0

>  <SCORE.RESTR.CAVITY>
0

>  <SCORE.RESTR.norm>
0

>  <SCORE.SYSTEM>
0

>  <SCORE.SYSTEM.CONST>
0

>  <SCORE.SYSTEM.DIHEDRAL>
0

>  <SCORE.SYSTEM.SOLV>
0

>  <SCORE.SYSTEM.norm>
0

>  <SCORE.heavy>
19

>  <SCORE.norm>
-0.981516

>  <RMSD>
15.462

$$$$
ligand
 OpenBabel11021811483D
libRbt.so/2013.1/901 2013/11/27
 19 21  0  0  0  0  0  0  0  0999 V2000
  -12.4921   -0.6308   -2.5792 C   0  0  0  0  0  0  0  0  0  0  0  0
  -13.6411   -0.0946   -3.2519 O   0  0  0  0  0  0  0  0  0  0  0  0
  -11.5404   -1.2813   -3.5856 C   0  0  1  0  0  0  0  0  0  0  0  0
  -11.0196   -0.2996   -4.5022 O   0  0  0  0  0  0  0  0  0  0  0  0
  -10.3515   -1.9132   -2.8833 C   0  0  1  0  0  0  0  0  0  0  0  0
  -10.4807   -3.3394   -2.8297 O   0  0  0  0  0  0  0  0  0  0  0  0
   -9.1371   -1.5212   -3.6966 C   0  0  0  0  0  0  0  0  0  0  0  0
   -9.5903   -0.3843   -4.6008 C   0  0  2  0  0  0  0  0  0  0  0  0
   -5.3740    2.7311   -4.9324 N   0  0  0  0  0  0  0  0  0  0  0  0
   -5.6042    1.5149   -5.4964 C   0  0  1  0  0  0  0  0  0  0  0  0
   -4.6456    0.9579   -6.2741 N   0  0  0  0  0  0  0  0  0  0  0  0
   -6.7711    0.8446   -5.2940 N   0  0  0  0  0  0  0  0  0  0  0  0
   -7.7654    1.3582   -4.5200 C   0  0  2  0  0  0  0  0  0  0  0  0
   -7.5869    2.5916   -3.9200 C   0  0  1  0  0  0  0  0  0  0  0  0
   -6.3097    3.3136   -4.1505 C   0  0  0  0  0  0  0  0  0  0  0  0
   -6.1035    4.4347   -3.6341 O   0  0  0  0  0  0  0  0  0  0  0  0
   -8.7014    2.8741   -3.2233 N   0  0  0  0  0  0  0  0  0  0  0  0
   -9.5536    1.8344   -3.3813 C   0  0  0  0  0  0  0  0  0  0  0  0
   -8.9806    0.9092   -4.1725 N   0  0  1  0  0  0  0  0  0  0  0  0
  1  2  1  0  0  0  0
  3  1  1  1  0  0  0
  3  4  1  0  0  0  0
  3  5  1  0  0  0  0
  5  6  1  6  0  0  0
  5  7  1  0  0  0  0
  7  8  1  0  0  0  0
  8  4  1  1  0  0  0
  8 19  1  0  0  0  0
  9 15  1  0  0  0  0
  9 10  1  0  0  0  0
 10 11  1  1  0  0  0
 10 12  1  0  0  0  0
 13 12  1  1  0  0  0
 13 14  1  0  0  0  0
 13 19  1  0  0  0  0
 14 15  1  6  0  0  0
 14 17  1  0  0  0  0
 15 16  2  0  0  0  0
 17 18  1  0  0  0  0
 19 18  1  6  0  0  0
M  END
>  <CHROM.1>
63.83578843,-157.16453794,-8.79890193,0.68301015,-4.02832144,2.61159367,-0.35868638
-2.97477522

>  <Name>
ligand

>  <RI>
0

>  <Rbt.Current_Directory>
/home/itssahil/PROJECTS/Mol_Feturizer/New_Systems/rnas/3SKI

>  <Rbt.Executable>
rbdock ($Id: //depot/dev/client3/rdock/2013.1/src/exe/rbdock.cxx#4 $)

>  <Rbt.Library>
libRbt.so (2013.1, Build901 2013/11/27)

>  <Rbt.Parameter_File>
/export/apps/rDock/src/rDock_2013.1_src/data/scripts/dock_solv.prm

>  <Rbt.Receptor>
prm/blind_docking_60.prm

>  <SCORE>
-18.6543

>  <SCORE.INTER>
-15.5077

>  <SCORE.INTER.CONST>
1

>  <SCORE.INTER.POLAR>
0

>  <SCORE.INTER.ROT>
2

>  <SCORE.INTER.SOLV>
10.0572

>  <SCORE.INTER.VDW>
-18.6242

>  <SCORE.INTER.norm>
-0.816194

>  <SCORE.INTRA>
-3.14659

>  <SCORE.INTRA.DIHEDRAL>
-4.994

>  <SCORE.INTRA.DIHEDRAL.0>
6.26853

>  <SCORE.INTRA.POLAR>
0

>  <SCORE.INTRA.POLAR.0>
0

>  <SCORE.INTRA.REPUL>
0

>  <SCORE.INTRA.REPUL.0>
0

>  <SCORE.INTRA.SOLV>
-0.249398

>  <SCORE.INTRA.SOLV.lig_0>
-38.4926

>  <SCORE.INTRA.VDW>
-0.52489

>  <SCORE.INTRA.VDW.0>
-0.59057

>  <SCORE.INTRA.norm>
-0.16561

>  <SCORE.RESTR>
0

>  <SCORE.RESTR.CAVITY>
0

>  <SCORE.RESTR.norm>
0

>  <SCORE.SYSTEM>
0

>  <SCORE.SYSTEM.CONST>
0

>  <SCORE.SYSTEM.DIHEDRAL>
0

>  <SCORE.SYSTEM.SOLV>
0

>  <SCORE.SYSTEM.norm>
0

>  <SCORE.heavy>
19

>  <SCORE.norm>
-0.981804

>  <RMSD>
15.463

$$$$
ligand
 OpenBabel11021811483D
libRbt.so/2013.1/901 2013/11/27
 19 21  0  0  0  0  0  0  0  0999 V2000
  -12.4976   -0.6353   -2.5666 C   0  0  0  0  0  0  0  0  0  0  0  0
  -13.6487   -0.0989   -3.2354 O   0  0  0  0  0  0  0  0  0  0  0  0
  -11.5482   -1.2837   -3.5766 C   0  0  1  0  0  0  0  0  0  0  0  0
  -11.0321   -0.3008   -4.4945 O   0  0  0  0  0  0  0  0  0  0  0  0
  -10.3559   -1.9140   -2.8787 C   0  0  1  0  0  0  0  0  0  0  0  0
  -10.4825   -3.3404   -2.8254 O   0  0  0  0  0  0  0  0  0  0  0  0
   -9.1449   -1.5196   -3.6959 C   0  0  0  0  0  0  0  0  0  0  0  0
   -9.6030   -0.3830   -4.5981 C   0  0  2  0  0  0  0  0  0  0  0  0
   -5.4140    2.7629   -4.9833 N   0  0  0  0  0  0  0  0  0  0  0  0
   -5.6466    1.5494   -5.5522 C   0  0  1  0  0  0  0  0  0  0  0  0
   -4.6989    1.0047   -6.3517 N   0  0  0  0  0  0  0  0  0  0  0  0
   -6.8052    0.8698   -5.3336 N   0  0  0  0  0  0  0  0  0  0  0  0
   -7.7884    1.3710   -4.5375 C   0  0  2  0  0  0  0  0  0  0  0  0
   -7.6069    2.6010   -3.9315 C   0  0  1  0  0  0  0  0  0  0  0  0
   -6.3389    3.3332   -4.1799 C   0  0  0  0  0  0  0  0  0  0  0  0
   -6.1306    4.4518   -3.6589 O   0  0  0  0  0  0  0  0  0  0  0  0
   -8.7102    2.8708   -3.2123 N   0  0  0  0  0  0  0  0  0  0  0  0
   -9.5584    1.8266   -3.3625 C   0  0  0  0  0  0  0  0  0  0  0  0
   -8.9940    0.9112   -4.1712 N   0  0  1  0  0  0  0  0  0  0  0  0
  1  2  1  0  0  0  0
  3  1  1  1  0  0  0
  3  4  1  0  0  0  0
  3  5  1  0  0  0  0
  5  6  1  6  0  0  0
  5  7  1  0  0  0  0
  7  8  1  0  0  0  0
  8  4  1  1  0  0  0
  8 19  1  0  0  0  0
  9 15  1  0  0  0  0
  9 10  1  0  0  0  0
 10 11  1  1  0  0  0
 10 12  1  0  0  0  0
 13 12  1  1  0  0  0
 13 14  1  0  0  0  0
 13 19  1  0  0  0  0
 14 15  1  6  0  0  0
 14 17  1  0  0  0  0
 15 16  2  0  0  0  0
 17 18  1  0  0  0  0
 19 18  1  6  0  0  0
M  END
>  <CHROM.1>
63.74885721,-156.17258034,-8.81735949,0.69205738,-4.03931563,2.61013234,-0.37207935
-2.96966680

>  <Name>
ligand

>  <RI>
0

>  <Rbt.Current_Directory>
/home/itssahil/PROJECTS/Mol_Feturizer/New_Systems/rnas/3SKI

>  <Rbt.Executable>
rbdock ($Id: //depot/dev/client3/rdock/2013.1/src/exe/rbdock.cxx#4 $)

>  <Rbt.Library>
libRbt.so (2013.1, Build901 2013/11/27)

>  <Rbt.Parameter_File>
/export/apps/rDock/src/rDock_2013.1_src/data/scripts/dock_solv.prm

>  <Rbt.Receptor>
prm/blind_docking_60.prm

>  <SCORE>
-18.6542

>  <SCORE.INTER>
-15.5015

>  <SCORE.INTER.CONST>
1

>  <SCORE.INTER.POLAR>
0

>  <SCORE.INTER.ROT>
2

>  <SCORE.INTER.SOLV>
9.82615

>  <SCORE.INTER.VDW>
-18.543

>  <SCORE.INTER.norm>
-0.815868

>  <SCORE.INTRA>
-3.15269

>  <SCORE.INTRA.DIHEDRAL>
-4.99606

>  <SCORE.INTRA.DIHEDRAL.0>
6.26853

>  <SCORE.INTRA.POLAR>
0

>  <SCORE.INTRA.POLAR.0>
0

>  <SCORE.INTRA.REPUL>
0

>  <SCORE.INTRA.REPUL.0>
0

>  <SCORE.INTRA.SOLV>
-0.248859

>  <SCORE.INTRA.SOLV.lig_0>
-38.4926

>  <SCORE.INTRA.VDW>
-0.530238

>  <SCORE.INTRA.VDW.0>
-0.59057

>  <SCORE.INTRA.norm>
-0.165931

>  <SCORE.RESTR>
0

>  <SCORE.RESTR.CAVITY>
0

>  <SCORE.RESTR.norm>
0

>  <SCORE.SYSTEM>
0

>  <SCORE.SYSTEM.CONST>
0

>  <SCORE.SYSTEM.DIHEDRAL>
0

>  <SCORE.SYSTEM.SOLV>
0

>  <SCORE.SYSTEM.norm>
0

>  <SCORE.heavy>
19

>  <SCORE.norm>
-0.981799

>  <RMSD>
15.477

$$$$
ligand
 OpenBabel11021811483D
libRbt.so/2013.1/901 2013/11/27
 19 21  0  0  0  0  0  0  0  0999 V2000
  -12.4534   -0.4918   -2.9481 C   0  0  0  0  0  0  0  0  0  0  0  0
  -11.9091    0.7141   -2.3916 O   0  0  0  0  0  0  0  0  0  0  0  0
  -11.3974   -1.2164   -3.7857 C   0  0  1  0  0  0  0  0  0  0  0  0
  -10.7666   -0.3072   -4.7079 O   0  0  0  0  0  0  0  0  0  0  0  0
  -10.3024   -1.7921   -2.9051 C   0  0  1  0  0  0  0  0  0  0  0  0
  -10.4484   -3.2102   -2.7588 O   0  0  0  0  0  0  0  0  0  0  0  0
   -8.9993   -1.4624   -3.6002 C   0  0  0  0  0  0  0  0  0  0  0  0
   -9.3362   -0.3982   -4.6343 C   0  0  2  0  0  0  0  0  0  0  0  0
   -5.2311    2.8519   -5.0567 N   0  0  0  0  0  0  0  0  0  0  0  0
   -5.4219    1.6163   -5.5926 C   0  0  1  0  0  0  0  0  0  0  0  0
   -4.4483    1.0754   -6.3630 N   0  0  0  0  0  0  0  0  0  0  0  0
   -6.5642    0.9110   -5.3693 N   0  0  0  0  0  0  0  0  0  0  0  0
   -7.5720    1.4073   -4.6015 C   0  0  2  0  0  0  0  0  0  0  0  0
   -7.4333    2.6591   -4.0297 C   0  0  1  0  0  0  0  0  0  0  0  0
   -6.1827    3.4191   -4.2828 C   0  0  0  0  0  0  0  0  0  0  0  0
   -6.0128    4.5578   -3.7924 O   0  0  0  0  0  0  0  0  0  0  0  0
   -8.5536    2.9185   -3.3335 N   0  0  0  0  0  0  0  0  0  0  0  0
   -9.3703    1.8470   -3.4640 C   0  0  0  0  0  0  0  0  0  0  0  0
   -8.7694    0.9247   -4.2377 N   0  0  1  0  0  0  0  0  0  0  0  0
  1  2  1  0  0  0  0
  3  1  1  1  0  0  0
  3  4  1  0  0  0  0
  3  5  1  0  0  0  0
  5  6  1  6  0  0  0
  5  7  1  0  0  0  0
  7  8  1  0  0  0  0
  8  4  1  1  0  0  0
  8 19  1  0  0  0  0
  9 15  1  0  0  0  0
  9 10  1  0  0  0  0
 10 11  1  1  0  0  0
 10 12  1  0  0  0  0
 13 12  1  1  0  0  0
 13 14  1  0  0  0  0
 13 19  1  0  0  0  0
 14 15  1  6  0  0  0
 14 17  1  0  0  0  0
 15 16  2  0  0  0  0
 17 18  1  0  0  0  0
 19 18  1  6  0  0  0
M  END
>  <CHROM.1>
-49.32826455,-149.28395739,-8.55085105,0.80173890,-4.06892695,2.61479221
-0.43883153,-2.91882175

>  <Name>
ligand

>  <RI>
0

>  <Rbt.Current_Directory>
/home/itssahil/PROJECTS/Mol_Feturizer/New_Systems/rnas/3SKI

>  <Rbt.Executable>
rbdock ($Id: //depot/dev/client3/rdock/2013.1/src/exe/rbdock.cxx#4 $)

>  <Rbt.Library>
libRbt.so (2013.1, Build901 2013/11/27)

>  <Rbt.Parameter_File>
/export/apps/rDock/src/rDock_2013.1_src/data/scripts/dock_solv.prm

>  <Rbt.Receptor>
prm/blind_docking_100.prm

>  <SCORE>
-17.9705

>  <SCORE.INTER>
-15.0532

>  <SCORE.INTER.CONST>
1

>  <SCORE.INTER.POLAR>
0

>  <SCORE.INTER.ROT>
2

>  <SCORE.INTER.SOLV>
9.34651

>  <SCORE.INTER.VDW>
-18.0843

>  <SCORE.INTER.norm>
-0.792276

>  <SCORE.INTRA>
-2.91724

>  <SCORE.INTRA.DIHEDRAL>
-4.64227

>  <SCORE.INTRA.DIHEDRAL.0>
6.26853

>  <SCORE.INTRA.POLAR>
0

>  <SCORE.INTRA.POLAR.0>
0

>  <SCORE.INTRA.REPUL>
0

>  <SCORE.INTRA.REPUL.0>
0

>  <SCORE.INTRA.SOLV>
0.281359

>  <SCORE.INTRA.SOLV.lig_0>
-38.4926

>  <SCORE.INTRA.VDW>
-0.73678

>  <SCORE.INTRA.VDW.0>
-0.59057

>  <SCORE.INTRA.norm>
-0.153539

>  <SCORE.RESTR>
0

>  <SCORE.RESTR.CAVITY>
0

>  <SCORE.RESTR.norm>
0

>  <SCORE.SYSTEM>
0

>  <SCORE.SYSTEM.CONST>
0

>  <SCORE.SYSTEM.DIHEDRAL>
0

>  <SCORE.SYSTEM.SOLV>
0

>  <SCORE.SYSTEM.norm>
0

>  <SCORE.heavy>
19

>  <SCORE.norm>
-0.945815

>  <RMSD>
15.485

$$$$
ligand
 OpenBabel11021811483D
libRbt.so/2013.1/901 2013/11/27
 19 21  0  0  0  0  0  0  0  0999 V2000
   -8.2202   -2.8754   -7.0284 C   0  0  0  0  0  0  0  0  0  0  0  0
   -9.6065   -3.1944   -6.8368 O   0  0  0  0  0  0  0  0  0  0  0  0
   -7.4944   -2.8221   -5.6822 C   0  0  1  0  0  0  0  0  0  0  0  0
   -8.0876   -1.8303   -4.8224 O   0  0  0  0  0  0  0  0  0  0  0  0
   -7.5865   -4.1542   -4.9590 C   0  0  1  0  0  0  0  0  0  0  0  0
   -6.3495   -4.8732   -5.0398 O   0  0  0  0  0  0  0  0  0  0  0  0
   -7.9118   -3.8194   -3.5196 C   0  0  0  0  0  0  0  0  0  0  0  0
   -8.3715   -2.3688   -3.5228 C   0  0  2  0  0  0  0  0  0  0  0  0
  -12.5200    0.8384   -3.2110 N   0  0  0  0  0  0  0  0  0  0  0  0
  -11.2215    1.1206   -3.5015 C   0  0  1  0  0  0  0  0  0  0  0  0
  -10.8682    2.4022   -3.7598 N   0  0  0  0  0  0  0  0  0  0  0  0
  -10.2705    0.1476   -3.5342 N   0  0  0  0  0  0  0  0  0  0  0  0
  -10.5717   -1.1548   -3.2802 C   0  0  2  0  0  0  0  0  0  0  0  0
  -11.8763   -1.5010   -2.9781 C   0  0  1  0  0  0  0  0  0  0  0  0
  -12.9047   -0.4300   -2.9476 C   0  0  0  0  0  0  0  0  0  0  0  0
  -14.0995   -0.6940   -2.6851 O   0  0  0  0  0  0  0  0  0  0  0  0
  -11.9122   -2.8297   -2.7771 N   0  0  0  0  0  0  0  0  0  0  0  0
  -10.6540   -3.2999   -2.9445 C   0  0  0  0  0  0  0  0  0  0  0  0
   -9.8364   -2.2762   -3.2508 N   0  0  1  0  0  0  0  0  0  0  0  0
  1  2  1  0  0  0  0
  3  1  1  6  0  0  0
  3  4  1  0  0  0  0
  3  5  1  0  0  0  0
  5  6  1  1  0  0  0
  5  7  1  0  0  0  0
  7  8  1  0  0  0  0
  8  4  1  6  0  0  0
  8 19  1  0  0  0  0
  9 15  1  0  0  0  0
  9 10  1  0  0  0  0
 10 11  1  1  0  0  0
 10 12  1  0  0  0  0
 13 12  1  1  0  0  0
 13 14  1  0  0  0  0
 13 19  1  0  0  0  0
 14 15  1  6  0  0  0
 14 17  1  0  0  0  0
 15 16  2  0  0  0  0
 17 18  1  0  0  0  0
 19 18  1  6  0  0  0
M  END
>  <CHROM.1>
-59.30255515,-56.44548547,-9.97453021,-1.80834247,-4.06612198,-0.51537277
0.57707116,-0.24331035

>  <Name>
ligand

>  <RI>
0

>  <Rbt.Current_Directory>
/home/itssahil/PROJECTS/Mol_Feturizer/New_Systems/rnas/3SKI

>  <Rbt.Executable>
rbdock ($Id: //depot/dev/client3/rdock/2013.1/src/exe/rbdock.cxx#4 $)

>  <Rbt.Library>
libRbt.so (2013.1, Build901 2013/11/27)

>  <Rbt.Parameter_File>
/export/apps/rDock/src/rDock_2013.1_src/data/scripts/dock_solv.prm

>  <Rbt.Receptor>
prm/blind_docking_40.prm

>  <SCORE>
-12.9112

>  <SCORE.INTER>
-10.5685

>  <SCORE.INTER.CONST>
1

>  <SCORE.INTER.POLAR>
0

>  <SCORE.INTER.ROT>
2

>  <SCORE.INTER.SOLV>
13.5711

>  <SCORE.INTER.VDW>
-16.5027

>  <SCORE.INTER.norm>
-0.556236

>  <SCORE.INTRA>
-2.34273

>  <SCORE.INTRA.DIHEDRAL>
-5.06044

>  <SCORE.INTRA.DIHEDRAL.0>
6.26853

>  <SCORE.INTRA.POLAR>
0

>  <SCORE.INTRA.POLAR.0>
0

>  <SCORE.INTRA.REPUL>
0

>  <SCORE.INTRA.REPUL.0>
0

>  <SCORE.INTRA.SOLV>
0.230309

>  <SCORE.INTRA.SOLV.lig_0>
-38.4926

>  <SCORE.INTRA.VDW>
0.0723389

>  <SCORE.INTRA.VDW.0>
-0.59057

>  <SCORE.INTRA.norm>
-0.123301

>  <SCORE.RESTR>
0

>  <SCORE.RESTR.CAVITY>
0

>  <SCORE.RESTR.norm>
0

>  <SCORE.SYSTEM>
0

>  <SCORE.SYSTEM.CONST>
0

>  <SCORE.SYSTEM.DIHEDRAL>
0

>  <SCORE.SYSTEM.SOLV>
0

>  <SCORE.SYSTEM.norm>
0

>  <SCORE.heavy>
19

>  <SCORE.norm>
-0.679537

>  <RMSD>
15.494

$$$$
ligand
 OpenBabel11021811483D
libRbt.so/2013.1/901 2013/11/27
 19 21  0  0  0  0  0  0  0  0999 V2000
    6.0386    1.2467    1.0086 C   0  0  0  0  0  0  0  0  0  0  0  0
    5.1537    2.1904    1.6304 O   0  0  0  0  0  0  0  0  0  0  0  0
    6.3061    0.0681    1.9473 C   0  0  1  0  0  0  0  0  0  0  0  0
    5.0878   -0.6484    2.2255 O   0  0  0  0  0  0  0  0  0  0  0  0
    7.2737   -0.9204    1.3208 C   0  0  1  0  0  0  0  0  0  0  0  0
    8.5801   -0.8017    1.8976 O   0  0  0  0  0  0  0  0  0  0  0  0
    6.6960   -2.2919    1.5950 C   0  0  0  0  0  0  0  0  0  0  0  0
    5.2536   -2.0591    2.0205 C   0  0  2  0  0  0  0  0  0  0  0  0
    2.6070   -6.1683    0.0963 N   0  0  0  0  0  0  0  0  0  0  0  0
    3.4545   -6.0986    1.1579 C   0  0  1  0  0  0  0  0  0  0  0  0
    3.7039   -7.2194    1.8759 N   0  0  0  0  0  0  0  0  0  0  0  0
    4.0597   -4.9321    1.5117 N   0  0  0  0  0  0  0  0  0  0  0  0
    3.8453   -3.7783    0.8229 C   0  0  2  0  0  0  0  0  0  0  0  0
    2.9934   -3.7892   -0.2667 C   0  0  1  0  0  0  0  0  0  0  0  0
    2.3379   -5.0682   -0.6410 C   0  0  0  0  0  0  0  0  0  0  0  0
    1.5547   -5.1275   -1.6151 O   0  0  0  0  0  0  0  0  0  0  0  0
    2.9470   -2.5410   -0.7638 N   0  0  0  0  0  0  0  0  0  0  0  0
    3.7589   -1.7703   -0.0027 C   0  0  0  0  0  0  0  0  0  0  0  0
    4.3073   -2.5272    0.9651 N   0  0  1  0  0  0  0  0  0  0  0  0
  1  2  1  0  0  0  0
  3  1  1  6  0  0  0
  3  4  1  0  0  0  0
  3  5  1  0  0  0  0
  5  6  1  1  0  0  0
  5  7  1  0  0  0  0
  7  8  1  0  0  0  0
  8  4  1  6  0  0  0
  8 19  1  0  0  0  0
  9 15  1  0  0  0  0
  9 10  1  0  0  0  0
 10 11  1  6  0  0  0
 10 12  1  0  0  0  0
 13 12  1  6  0  0  0
 13 14  1  0  0  0  0
 13 19  1  0  0  0  0
 14 15  1  1  0  0  0
 14 17  1  0  0  0  0
 15 16  2  0  0  0  0
 17 18  1  0  0  0  0
 19 18  1  1  0  0  0
M  END
>  <CHROM.1>
62.75942771,-155.65271367,4.56956429,-2.66703966,0.90376068,0.89618017,-0.58563761
-0.15730117

>  <Name>
ligand

>  <RI>
0

>  <Rbt.Current_Directory>
/home/itssahil/PROJECTS/Mol_Feturizer/New_Systems/rnas/3SKI

>  <Rbt.Executable>
rbdock ($Id: //depot/dev/client3/rdock/2013.1/src/exe/rbdock.cxx#4 $)

>  <Rbt.Library>
libRbt.so (2013.1, Build901 2013/11/27)

>  <Rbt.Parameter_File>
/export/apps/rDock/src/rDock_2013.1_src/data/scripts/dock_solv.prm

>  <Rbt.Receptor>
prm/blind_docking_20.prm

>  <SCORE>
-18.0164

>  <SCORE.INTER>
-14.8519

>  <SCORE.INTER.CONST>
1

>  <SCORE.INTER.POLAR>
0

>  <SCORE.INTER.ROT>
2

>  <SCORE.INTER.SOLV>
8.07685

>  <SCORE.INTER.VDW>
-17.5269

>  <SCORE.INTER.norm>
-0.78168

>  <SCORE.INTRA>
-3.16445

>  <SCORE.INTRA.DIHEDRAL>
-5.0194

>  <SCORE.INTRA.DIHEDRAL.0>
6.26853

>  <SCORE.INTRA.POLAR>
0

>  <SCORE.INTRA.POLAR.0>
0

>  <SCORE.INTRA.REPUL>
0

>  <SCORE.INTRA.REPUL.0>
0

>  <SCORE.INTRA.SOLV>
-0.24507

>  <SCORE.INTRA.SOLV.lig_0>
-38.4926

>  <SCORE.INTRA.VDW>
-0.532214

>  <SCORE.INTRA.VDW.0>
-0.59057

>  <SCORE.INTRA.norm>
-0.16655

>  <SCORE.RESTR>
0

>  <SCORE.RESTR.CAVITY>
0

>  <SCORE.RESTR.norm>
0

>  <SCORE.SYSTEM>
0

>  <SCORE.SYSTEM.CONST>
0

>  <SCORE.SYSTEM.DIHEDRAL>
0

>  <SCORE.SYSTEM.SOLV>
0

>  <SCORE.SYSTEM.norm>
0

>  <SCORE.heavy>
19

>  <SCORE.norm>
-0.94823

>  <RMSD>
15.495

$$$$
ligand
 OpenBabel11021811483D
libRbt.so/2013.1/901 2013/11/27
 19 21  0  0  0  0  0  0  0  0999 V2000
  -13.6498    0.8408   -1.9139 C   0  0  0  0  0  0  0  0  0  0  0  0
  -12.7332    1.8392   -1.4416 O   0  0  0  0  0  0  0  0  0  0  0  0
  -13.0139    0.0234   -3.0405 C   0  0  1  0  0  0  0  0  0  0  0  0
  -12.3375    0.8851   -3.9759 O   0  0  0  0  0  0  0  0  0  0  0  0
  -11.9793   -0.9454   -2.4954 C   0  0  1  0  0  0  0  0  0  0  0  0
  -12.4859   -2.2857   -2.4754 O   0  0  0  0  0  0  0  0  0  0  0  0
  -10.7893   -0.8424   -3.4246 C   0  0  0  0  0  0  0  0  0  0  0  0
  -11.0019    0.4280   -4.2348 C   0  0  2  0  0  0  0  0  0  0  0  0
   -6.2228    2.4410   -5.0720 N   0  0  0  0  0  0  0  0  0  0  0  0
   -6.8378    1.3828   -5.6655 C   0  0  1  0  0  0  0  0  0  0  0  0
   -6.1793    0.6933   -6.6272 N   0  0  0  0  0  0  0  0  0  0  0  0
   -8.0950    0.9992   -5.3128 N   0  0  0  0  0  0  0  0  0  0  0  0
   -8.7993    1.6560   -4.3514 C   0  0  2  0  0  0  0  0  0  0  0  0
   -8.2239    2.7396   -3.7127 C   0  0  1  0  0  0  0  0  0  0  0  0
   -6.8523    3.1490   -4.1083 C   0  0  0  0  0  0  0  0  0  0  0  0
   -6.2916    4.1263   -3.5638 O   0  0  0  0  0  0  0  0  0  0  0  0
   -9.1138    3.2107   -2.8219 N   0  0  0  0  0  0  0  0  0  0  0  0
  -10.2180    2.4318   -2.9001 C   0  0  0  0  0  0  0  0  0  0  0  0
  -10.0244    1.4825   -3.8337 N   0  0  1  0  0  0  0  0  0  0  0  0
  1  2  1  0  0  0  0
  3  1  1  1  0  0  0
  3  4  1  0  0  0  0
  3  5  1  0  0  0  0
  5  6  1  6  0  0  0
  5  7  1  0  0  0  0
  7  8  1  0  0  0  0
  8  4  1  1  0  0  0
  8 19  1  0  0  0  0
  9 15  1  0  0  0  0
  9 10  1  0  0  0  0
 10 11  1  1  0  0  0
 10 12  1  0  0  0  0
 13 12  1  1  0  0  0
 13 14  1  0  0  0  0
 13 19  1  0  0  0  0
 14 15  1  6  0  0  0
 14 17  1  0  0  0  0
 15 16  2  0  0  0  0
 17 18  1  0  0  0  0
 19 18  1  6  0  0  0
M  END
>  <CHROM.1>
-44.48214587,-153.24767536,-9.80010031,1.25059013,-3.69827649,2.96828533
-0.49777830,-2.65196267

>  <Name>
ligand

>  <RI>
0

>  <Rbt.Current_Directory>
/home/itssahil/PROJECTS/Mol_Feturizer/New_Systems/rnas/3SKI

>  <Rbt.Executable>
rbdock ($Id: //depot/dev/client3/rdock/2013.1/src/exe/rbdock.cxx#4 $)

>  <Rbt.Library>
libRbt.so (2013.1, Build901 2013/11/27)

>  <Rbt.Parameter_File>
/export/apps/rDock/src/rDock_2013.1_src/data/scripts/dock_solv.prm

>  <Rbt.Receptor>
prm/blind_docking_60.prm

>  <SCORE>
-15.6496

>  <SCORE.INTER>
-12.9673

>  <SCORE.INTER.CONST>
1

>  <SCORE.INTER.POLAR>
0

>  <SCORE.INTER.ROT>
2

>  <SCORE.INTER.SOLV>
8.42365

>  <SCORE.INTER.VDW>
-16.3861

>  <SCORE.INTER.norm>
-0.682487

>  <SCORE.INTRA>
-2.68239

>  <SCORE.INTRA.DIHEDRAL>
-4.21871

>  <SCORE.INTRA.DIHEDRAL.0>
6.26853

>  <SCORE.INTRA.POLAR>
0

>  <SCORE.INTRA.POLAR.0>
0

>  <SCORE.INTRA.REPUL>
0

>  <SCORE.INTRA.REPUL.0>
0

>  <SCORE.INTRA.SOLV>
0.272379

>  <SCORE.INTRA.SOLV.lig_0>
-38.4926

>  <SCORE.INTRA.VDW>
-0.709225

>  <SCORE.INTRA.VDW.0>
-0.59057

>  <SCORE.INTRA.norm>
-0.141178

>  <SCORE.RESTR>
0

>  <SCORE.RESTR.CAVITY>
0

>  <SCORE.RESTR.norm>
0

>  <SCORE.SYSTEM>
0

>  <SCORE.SYSTEM.CONST>
0

>  <SCORE.SYSTEM.DIHEDRAL>
0

>  <SCORE.SYSTEM.SOLV>
0

>  <SCORE.SYSTEM.norm>
0

>  <SCORE.heavy>
19

>  <SCORE.norm>
-0.823666

>  <RMSD>
15.555

$$$$
ligand
 OpenBabel11021811483D
libRbt.so/2013.1/901 2013/11/27
 19 21  0  0  0  0  0  0  0  0999 V2000
  -10.4818    2.9241   -2.4645 C   0  0  0  0  0  0  0  0  0  0  0  0
  -10.7818    4.2788   -2.8320 O   0  0  0  0  0  0  0  0  0  0  0  0
   -9.7653    2.2069   -3.6108 C   0  0  1  0  0  0  0  0  0  0  0  0
   -9.2514    0.9342   -3.1735 O   0  0  0  0  0  0  0  0  0  0  0  0
  -10.7159    1.9337   -4.7631 C   0  0  1  0  0  0  0  0  0  0  0  0
  -10.4902    2.8440   -5.8466 O   0  0  0  0  0  0  0  0  0  0  0  0
  -10.4366    0.5117   -5.1987 C   0  0  0  0  0  0  0  0  0  0  0  0
   -9.6298   -0.1183   -4.0728 C   0  0  2  0  0  0  0  0  0  0  0  0
  -14.0152   -0.9775   -1.3118 N   0  0  0  0  0  0  0  0  0  0  0  0
  -13.5481    0.1726   -1.8680 C   0  0  1  0  0  0  0  0  0  0  0  0
  -14.2686    1.3108   -1.7295 N   0  0  0  0  0  0  0  0  0  0  0  0
  -12.3738    0.2065   -2.5551 N   0  0  0  0  0  0  0  0  0  0  0  0
  -11.6107   -0.9077   -2.7215 C   0  0  2  0  0  0  0  0  0  0  0  0
  -12.0355   -2.1061   -2.1769 C   0  0  1  0  0  0  0  0  0  0  0  0
  -13.3196   -2.1299   -1.4311 C   0  0  0  0  0  0  0  0  0  0  0  0
  -13.7489   -3.1909   -0.9251 O   0  0  0  0  0  0  0  0  0  0  0  0
  -11.1209   -3.0427   -2.4824 N   0  0  0  0  0  0  0  0  0  0  0  0
  -10.1433   -2.4379   -3.1972 C   0  0  0  0  0  0  0  0  0  0  0  0
  -10.4432   -1.1343   -3.3417 N   0  0  1  0  0  0  0  0  0  0  0  0
  1  2  1  0  0  0  0
  3  1  1  1  0  0  0
  3  4  1  0  0  0  0
  3  5  1  0  0  0  0
  5  6  1  6  0  0  0
  5  7  1  0  0  0  0
  7  8  1  0  0  0  0
  8  4  1  1  0  0  0
  8 19  1  0  0  0  0
  9 15  1  0  0  0  0
  9 10  1  0  0  0  0
 10 11  1  1  0  0  0
 10 12  1  0  0  0  0
 13 12  1  1  0  0  0
 13 14  1  0  0  0  0
 13 19  1  0  0  0  0
 14 15  1  6  0  0  0
 14 17  1  0  0  0  0
 15 16  2  0  0  0  0
 17 18  1  0  0  0  0
 19 18  1  6  0  0  0
M  END
>  <CHROM.1>
169.80227339,60.06499980,-11.46200579,0.14733349,-2.95096685,0.98690126,0.60609026
-0.11902801

>  <Name>
ligand

>  <RI>
0

>  <Rbt.Current_Directory>
/home/itssahil/PROJECTS/Mol_Feturizer/New_Systems/rnas/3SKI

>  <Rbt.Executable>
rbdock ($Id: //depot/dev/client3/rdock/2013.1/src/exe/rbdock.cxx#4 $)

>  <Rbt.Library>
libRbt.so (2013.1, Build901 2013/11/27)

>  <Rbt.Parameter_File>
/export/apps/rDock/src/rDock_2013.1_src/data/scripts/dock_solv.prm

>  <Rbt.Receptor>
prm/blind_docking_100.prm

>  <SCORE>
-17.3825

>  <SCORE.INTER>
-14.1069

>  <SCORE.INTER.CONST>
1

>  <SCORE.INTER.POLAR>
0

>  <SCORE.INTER.ROT>
2

>  <SCORE.INTER.SOLV>
18.408

>  <SCORE.INTER.VDW>
-20.4739

>  <SCORE.INTER.norm>
-0.742469

>  <SCORE.INTRA>
-3.27565

>  <SCORE.INTRA.DIHEDRAL>
-4.70224

>  <SCORE.INTRA.DIHEDRAL.0>
6.26853

>  <SCORE.INTRA.POLAR>
0

>  <SCORE.INTRA.POLAR.0>
0

>  <SCORE.INTRA.REPUL>
0

>  <SCORE.INTRA.REPUL.0>
0

>  <SCORE.INTRA.SOLV>
0.613043

>  <SCORE.INTRA.SOLV.lig_0>
-38.4926

>  <SCORE.INTRA.VDW>
-1.23105

>  <SCORE.INTRA.VDW.0>
-0.59057

>  <SCORE.INTRA.norm>
-0.172402

>  <SCORE.RESTR>
0

>  <SCORE.RESTR.CAVITY>
0

>  <SCORE.RESTR.norm>
0

>  <SCORE.SYSTEM>
0

>  <SCORE.SYSTEM.CONST>
0

>  <SCORE.SYSTEM.DIHEDRAL>
0

>  <SCORE.SYSTEM.SOLV>
0

>  <SCORE.SYSTEM.norm>
0

>  <SCORE.heavy>
19

>  <SCORE.norm>
-0.914871

>  <RMSD>
15.595

$$$$
ligand
 OpenBabel11021811483D
libRbt.so/2013.1/901 2013/11/27
 19 21  0  0  0  0  0  0  0  0999 V2000
  -10.4536    2.9042   -2.4797 C   0  0  0  0  0  0  0  0  0  0  0  0
  -10.7790    4.2489   -2.8620 O   0  0  0  0  0  0  0  0  0  0  0  0
   -9.7470    2.1797   -3.6276 C   0  0  1  0  0  0  0  0  0  0  0  0
   -9.2380    0.9054   -3.1892 O   0  0  0  0  0  0  0  0  0  0  0  0
  -10.7050    1.9086   -4.7742 C   0  0  1  0  0  0  0  0  0  0  0  0
  -10.4798    2.8144   -5.8615 O   0  0  0  0  0  0  0  0  0  0  0  0
  -10.4359    0.4837   -5.2071 C   0  0  0  0  0  0  0  0  0  0  0  0
   -9.6269   -0.1475   -4.0835 C   0  0  2  0  0  0  0  0  0  0  0  0
  -14.0145   -0.9794   -1.3177 N   0  0  0  0  0  0  0  0  0  0  0  0
  -13.5453    0.1658   -1.8820 C   0  0  1  0  0  0  0  0  0  0  0  0
  -14.2639    1.3063   -1.7520 N   0  0  0  0  0  0  0  0  0  0  0  0
  -12.3708    0.1928   -2.5690 N   0  0  0  0  0  0  0  0  0  0  0  0
  -11.6095   -0.9238   -2.7271 C   0  0  2  0  0  0  0  0  0  0  0  0
  -12.0365   -2.1175   -2.1740 C   0  0  1  0  0  0  0  0  0  0  0  0
  -13.3208   -2.1338   -1.4284 C   0  0  0  0  0  0  0  0  0  0  0  0
  -13.7520   -3.1904   -0.9150 O   0  0  0  0  0  0  0  0  0  0  0  0
  -11.1233   -3.0579   -2.4725 N   0  0  0  0  0  0  0  0  0  0  0  0
  -10.1446   -2.4599   -3.1913 C   0  0  0  0  0  0  0  0  0  0  0  0
  -10.4422   -1.1568   -3.3453 N   0  0  1  0  0  0  0  0  0  0  0  0
  1  2  1  0  0  0  0
  3  1  1  1  0  0  0
  3  4  1  0  0  0  0
  3  5  1  0  0  0  0
  5  6  1  6  0  0  0
  5  7  1  0  0  0  0
  7  8  1  0  0  0  0
  8  4  1  1  0  0  0
  8 19  1  0  0  0  0
  9 15  1  0  0  0  0
  9 10  1  0  0  0  0
 10 11  1  1  0  0  0
 10 12  1  0  0  0  0
 13 12  1  1  0  0  0
 13 14  1  0  0  0  0
 13 19  1  0  0  0  0
 14 15  1  6  0  0  0
 14 17  1  0  0  0  0
 15 16  2  0  0  0  0
 17 18  1  0  0  0  0
 19 18  1  6  0  0  0
M  END
>  <CHROM.1>
171.29725596,60.52110416,-11.45701106,0.12944235,-2.95955735,0.98415957,0.60374212
-0.12375946

>  <Name>
ligand

>  <RI>
0

>  <Rbt.Current_Directory>
/home/itssahil/PROJECTS/Mol_Feturizer/New_Systems/rnas/3SKI

>  <Rbt.Executable>
rbdock ($Id: //depot/dev/client3/rdock/2013.1/src/exe/rbdock.cxx#4 $)

>  <Rbt.Library>
libRbt.so (2013.1, Build901 2013/11/27)

>  <Rbt.Parameter_File>
/export/apps/rDock/src/rDock_2013.1_src/data/scripts/dock_solv.prm

>  <Rbt.Receptor>
prm/blind_docking_80.prm

>  <SCORE>
-17.4059

>  <SCORE.INTER>
-14.0903

>  <SCORE.INTER.CONST>
1

>  <SCORE.INTER.POLAR>
0

>  <SCORE.INTER.ROT>
2

>  <SCORE.INTER.SOLV>
18.4409

>  <SCORE.INTER.VDW>
-20.4739

>  <SCORE.INTER.norm>
-0.741596

>  <SCORE.INTRA>
-3.3156

>  <SCORE.INTRA.DIHEDRAL>
-4.79932

>  <SCORE.INTRA.DIHEDRAL.0>
6.26853

>  <SCORE.INTRA.POLAR>
0

>  <SCORE.INTRA.POLAR.0>
0

>  <SCORE.INTRA.REPUL>
0

>  <SCORE.INTRA.REPUL.0>
0

>  <SCORE.INTRA.SOLV>
0.603579

>  <SCORE.INTRA.SOLV.lig_0>
-38.4926

>  <SCORE.INTRA.VDW>
-1.21773

>  <SCORE.INTRA.VDW.0>
-0.59057

>  <SCORE.INTRA.norm>
-0.174505

>  <SCORE.RESTR>
0

>  <SCORE.RESTR.CAVITY>
0

>  <SCORE.RESTR.norm>
0

>  <SCORE.SYSTEM>
0

>  <SCORE.SYSTEM.CONST>
0

>  <SCORE.SYSTEM.DIHEDRAL>
0

>  <SCORE.SYSTEM.SOLV>
0

>  <SCORE.SYSTEM.norm>
0

>  <SCORE.heavy>
19

>  <SCORE.norm>
-0.916101

>  <RMSD>
15.595

$$$$
ligand
 OpenBabel11021811483D
libRbt.so/2013.1/901 2013/11/27
 19 21  0  0  0  0  0  0  0  0999 V2000
  -10.4598    2.9043   -2.4795 C   0  0  0  0  0  0  0  0  0  0  0  0
  -10.7672    4.2551   -2.8549 O   0  0  0  0  0  0  0  0  0  0  0  0
   -9.7504    2.1806   -3.6262 C   0  0  1  0  0  0  0  0  0  0  0  0
   -9.2411    0.9067   -3.1871 O   0  0  0  0  0  0  0  0  0  0  0  0
  -10.7060    1.9088   -4.7747 C   0  0  1  0  0  0  0  0  0  0  0  0
  -10.4795    2.8151   -5.8614 O   0  0  0  0  0  0  0  0  0  0  0  0
  -10.4349    0.4843   -5.2073 C   0  0  0  0  0  0  0  0  0  0  0  0
   -9.6273   -0.1464   -4.0823 C   0  0  2  0  0  0  0  0  0  0  0  0
  -14.0173   -0.9816   -1.3211 N   0  0  0  0  0  0  0  0  0  0  0  0
  -13.5477    0.1642   -1.8840 C   0  0  1  0  0  0  0  0  0  0  0  0
  -14.2666    1.3044   -1.7534 N   0  0  0  0  0  0  0  0  0  0  0  0
  -12.3726    0.1921   -2.5699 N   0  0  0  0  0  0  0  0  0  0  0  0
  -11.6110   -0.9243   -2.7284 C   0  0  2  0  0  0  0  0  0  0  0  0
  -12.0383   -2.1186   -2.1768 C   0  0  1  0  0  0  0  0  0  0  0  0
  -13.3233   -2.1358   -1.4324 C   0  0  0  0  0  0  0  0  0  0  0  0
  -13.7548   -3.1930   -0.9203 O   0  0  0  0  0  0  0  0  0  0  0  0
  -11.1247   -3.0586   -2.4754 N   0  0  0  0  0  0  0  0  0  0  0  0
  -10.1455   -2.4597   -3.1928 C   0  0  0  0  0  0  0  0  0  0  0  0
  -10.4432   -1.1566   -3.3458 N   0  0  1  0  0  0  0  0  0  0  0  0
  1  2  1  0  0  0  0
  3  1  1  1  0  0  0
  3  4  1  0  0  0  0
  3  5  1  0  0  0  0
  5  6  1  6  0  0  0
  5  7  1  0  0  0  0
  7  8  1  0  0  0  0
  8  4  1  1  0  0  0
  8 19  1  0  0  0  0
  9 15  1  0  0  0  0
  9 10  1  0  0  0  0
 10 11  1  1  0  0  0
 10 12  1  0  0  0  0
 13 12  1  1  0  0  0
 13 14  1  0  0  0  0
 13 19  1  0  0  0  0
 14 15  1  6  0  0  0
 14 17  1  0  0  0  0
 15 16  2  0  0  0  0
 17 18  1  0  0  0  0
 19 18  1  6  0  0  0
M  END
>  <CHROM.1>
170.41325937,60.43643472,-11.45809521,0.12942919,-2.96024085,0.98377365,0.60358056
-0.12204134

>  <Name>
ligand

>  <RI>
0

>  <Rbt.Current_Directory>
/home/itssahil/PROJECTS/Mol_Feturizer/New_Systems/rnas/3SKI

>  <Rbt.Executable>
rbdock ($Id: //depot/dev/client3/rdock/2013.1/src/exe/rbdock.cxx#4 $)

>  <Rbt.Library>
libRbt.so (2013.1, Build901 2013/11/27)

>  <Rbt.Parameter_File>
/export/apps/rDock/src/rDock_2013.1_src/data/scripts/dock_solv.prm

>  <Rbt.Receptor>
prm/blind_docking_80.prm

>  <SCORE>
-17.4027

>  <SCORE.INTER>
-14.1094

>  <SCORE.INTER.CONST>
1

>  <SCORE.INTER.POLAR>
0

>  <SCORE.INTER.ROT>
2

>  <SCORE.INTER.SOLV>
18.4427

>  <SCORE.INTER.VDW>
-20.4871

>  <SCORE.INTER.norm>
-0.742597

>  <SCORE.INTRA>
-3.29337

>  <SCORE.INTRA.DIHEDRAL>
-4.74345

>  <SCORE.INTRA.DIHEDRAL.0>
6.26853

>  <SCORE.INTRA.POLAR>
0

>  <SCORE.INTRA.POLAR.0>
0

>  <SCORE.INTRA.REPUL>
0

>  <SCORE.INTRA.REPUL.0>
0

>  <SCORE.INTRA.SOLV>
0.602215

>  <SCORE.INTRA.SOLV.lig_0>
-38.4926

>  <SCORE.INTRA.VDW>
-1.22275

>  <SCORE.INTRA.VDW.0>
-0.59057

>  <SCORE.INTRA.norm>
-0.173335

>  <SCORE.RESTR>
0

>  <SCORE.RESTR.CAVITY>
0

>  <SCORE.RESTR.norm>
0

>  <SCORE.SYSTEM>
0

>  <SCORE.SYSTEM.CONST>
0

>  <SCORE.SYSTEM.DIHEDRAL>
0

>  <SCORE.SYSTEM.SOLV>
0

>  <SCORE.SYSTEM.norm>
0

>  <SCORE.heavy>
19

>  <SCORE.norm>
-0.915933

>  <RMSD>
15.596

$$$$
ligand
 OpenBabel11021811483D
libRbt.so/2013.1/901 2013/11/27
 19 21  0  0  0  0  0  0  0  0999 V2000
  -10.4713    2.9016   -2.4738 C   0  0  0  0  0  0  0  0  0  0  0  0
  -10.7943    4.2483   -2.8510 O   0  0  0  0  0  0  0  0  0  0  0  0
   -9.7581    2.1830   -3.6214 C   0  0  1  0  0  0  0  0  0  0  0  0
   -9.2433    0.9107   -3.1841 O   0  0  0  0  0  0  0  0  0  0  0  0
  -10.7118    1.9089   -4.7708 C   0  0  1  0  0  0  0  0  0  0  0  0
  -10.4889    2.8179   -5.8558 O   0  0  0  0  0  0  0  0  0  0  0  0
  -10.4341    0.4863   -5.2056 C   0  0  0  0  0  0  0  0  0  0  0  0
   -9.6243   -0.1427   -4.0813 C   0  0  2  0  0  0  0  0  0  0  0  0
  -14.0152   -1.0037   -1.3295 N   0  0  0  0  0  0  0  0  0  0  0  0
  -13.5509    0.1450   -1.8909 C   0  0  1  0  0  0  0  0  0  0  0  0
  -14.2765    1.2811   -1.7613 N   0  0  0  0  0  0  0  0  0  0  0  0
  -12.3746    0.1797   -2.5744 N   0  0  0  0  0  0  0  0  0  0  0  0
  -11.6064   -0.9323   -2.7318 C   0  0  2  0  0  0  0  0  0  0  0  0
  -12.0281   -2.1293   -2.1816 C   0  0  1  0  0  0  0  0  0  0  0  0
  -13.3145   -2.1540   -1.4399 C   0  0  0  0  0  0  0  0  0  0  0  0
  -13.7411   -3.2138   -0.9291 O   0  0  0  0  0  0  0  0  0  0  0  0
  -11.1087   -3.0639   -2.4788 N   0  0  0  0  0  0  0  0  0  0  0  0
  -10.1313   -2.4593   -3.1939 C   0  0  0  0  0  0  0  0  0  0  0  0
  -10.4360   -1.1577   -3.3469 N   0  0  1  0  0  0  0  0  0  0  0  0
  1  2  1  0  0  0  0
  3  1  1  1  0  0  0
  3  4  1  0  0  0  0
  3  5  1  0  0  0  0
  5  6  1  6  0  0  0
  5  7  1  0  0  0  0
  7  8  1  0  0  0  0
  8  4  1  1  0  0  0
  8 19  1  0  0  0  0
  9 15  1  0  0  0  0
  9 10  1  0  0  0  0
 10 11  1  1  0  0  0
 10 12  1  0  0  0  0
 13 12  1  1  0  0  0
 13 14  1  0  0  0  0
 13 19  1  0  0  0  0
 14 15  1  6  0  0  0
 14 17  1  0  0  0  0
 15 16  2  0  0  0  0
 17 18  1  0  0  0  0
 19 18  1  6  0  0  0
M  END
>  <CHROM.1>
170.88055902,60.56681002,-11.45840847,0.12240802,-2.96158100,0.99006512,0.60018132
-0.12494657

>  <Name>
ligand

>  <RI>
0

>  <Rbt.Current_Directory>
/home/itssahil/PROJECTS/Mol_Feturizer/New_Systems/rnas/3SKI

>  <Rbt.Executable>
rbdock ($Id: //depot/dev/client3/rdock/2013.1/src/exe/rbdock.cxx#4 $)

>  <Rbt.Library>
libRbt.so (2013.1, Build901 2013/11/27)

>  <Rbt.Parameter_File>
/export/apps/rDock/src/rDock_2013.1_src/data/scripts/dock_solv.prm

>  <Rbt.Receptor>
prm/blind_docking_80.prm

>  <SCORE>
-17.4134

>  <SCORE.INTER>
-14.1078

>  <SCORE.INTER.CONST>
1

>  <SCORE.INTER.POLAR>
0

>  <SCORE.INTER.ROT>
2

>  <SCORE.INTER.SOLV>
18.4791

>  <SCORE.INTER.VDW>
-20.4982

>  <SCORE.INTER.norm>
-0.742514

>  <SCORE.INTRA>
-3.30564

>  <SCORE.INTRA.DIHEDRAL>
-4.77353

>  <SCORE.INTRA.DIHEDRAL.0>
6.26853

>  <SCORE.INTRA.POLAR>
0

>  <SCORE.INTRA.POLAR.0>
0

>  <SCORE.INTRA.REPUL>
0

>  <SCORE.INTRA.REPUL.0>
0

>  <SCORE.INTRA.SOLV>
0.59969

>  <SCORE.INTRA.SOLV.lig_0>
-38.4926

>  <SCORE.INTRA.VDW>
-1.21872

>  <SCORE.INTRA.VDW.0>
-0.59057

>  <SCORE.INTRA.norm>
-0.173981

>  <SCORE.RESTR>
0

>  <SCORE.RESTR.CAVITY>
0

>  <SCORE.RESTR.norm>
0

>  <SCORE.SYSTEM>
0

>  <SCORE.SYSTEM.CONST>
0

>  <SCORE.SYSTEM.DIHEDRAL>
0

>  <SCORE.SYSTEM.SOLV>
0

>  <SCORE.SYSTEM.norm>
0

>  <SCORE.heavy>
19

>  <SCORE.norm>
-0.916495

>  <RMSD>
15.597

$$$$
ligand
 OpenBabel11021811483D
libRbt.so/2013.1/901 2013/11/27
 19 21  0  0  0  0  0  0  0  0999 V2000
  -10.4761    2.9213   -2.4817 C   0  0  0  0  0  0  0  0  0  0  0  0
  -10.7911    4.2676   -2.8669 O   0  0  0  0  0  0  0  0  0  0  0  0
   -9.7651    2.1923   -3.6240 C   0  0  1  0  0  0  0  0  0  0  0  0
   -9.2604    0.9185   -3.1795 O   0  0  0  0  0  0  0  0  0  0  0  0
  -10.7179    1.9196   -4.7746 C   0  0  1  0  0  0  0  0  0  0  0  0
  -10.4857    2.8220   -5.8633 O   0  0  0  0  0  0  0  0  0  0  0  0
  -10.4491    0.4931   -5.2021 C   0  0  0  0  0  0  0  0  0  0  0  0
   -9.6466   -0.1363   -4.0727 C   0  0  2  0  0  0  0  0  0  0  0  0
  -14.0490   -0.9529   -1.3258 N   0  0  0  0  0  0  0  0  0  0  0  0
  -13.5750    0.1899   -1.8911 C   0  0  1  0  0  0  0  0  0  0  0  0
  -14.2923    1.3320   -1.7676 N   0  0  0  0  0  0  0  0  0  0  0  0
  -12.3972    0.2130   -2.5724 N   0  0  0  0  0  0  0  0  0  0  0  0
  -11.6371   -0.9054   -2.7238 C   0  0  2  0  0  0  0  0  0  0  0  0
  -12.0689   -2.0969   -2.1695 C   0  0  1  0  0  0  0  0  0  0  0  0
  -13.3568   -2.1089   -1.4301 C   0  0  0  0  0  0  0  0  0  0  0  0
  -13.7923   -3.1633   -0.9158 O   0  0  0  0  0  0  0  0  0  0  0  0
  -11.1559   -3.0397   -2.4610 N   0  0  0  0  0  0  0  0  0  0  0  0
  -10.1727   -2.4454   -3.1768 C   0  0  0  0  0  0  0  0  0  0  0  0
  -10.4673   -1.1422   -3.3358 N   0  0  1  0  0  0  0  0  0  0  0  0
  1  2  1  0  0  0  0
  3  1  1  1  0  0  0
  3  4  1  0  0  0  0
  3  5  1  0  0  0  0
  5  6  1  6  0  0  0
  5  7  1  0  0  0  0
  7  8  1  0  0  0  0
  8  4  1  1  0  0  0
  8 19  1  0  0  0  0
  9 15  1  0  0  0  0
  9 10  1  0  0  0  0
 10 11  1  1  0  0  0
 10 12  1  0  0  0  0
 13 12  1  1  0  0  0
 13 14  1  0  0  0  0
 13 19  1  0  0  0  0
 14 15  1  6  0  0  0
 14 17  1  0  0  0  0
 15 16  2  0  0  0  0
 17 18  1  0  0  0  0
 19 18  1  6  0  0  0
M  END
>  <CHROM.1>
170.99726052,60.51104737,-11.48135729,0.14702879,-2.95837358,0.98109341,0.59935771
-0.12447242

>  <Name>
ligand

>  <RI>
0

>  <Rbt.Current_Directory>
/home/itssahil/PROJECTS/Mol_Feturizer/New_Systems/rnas/3SKI

>  <Rbt.Executable>
rbdock ($Id: //depot/dev/client3/rdock/2013.1/src/exe/rbdock.cxx#4 $)

>  <Rbt.Library>
libRbt.so (2013.1, Build901 2013/11/27)

>  <Rbt.Parameter_File>
/export/apps/rDock/src/rDock_2013.1_src/data/scripts/dock_solv.prm

>  <Rbt.Receptor>
prm/blind_docking_60.prm

>  <SCORE>
-17.3387

>  <SCORE.INTER>
-14.0303

>  <SCORE.INTER.CONST>
1

>  <SCORE.INTER.POLAR>
0

>  <SCORE.INTER.ROT>
2

>  <SCORE.INTER.SOLV>
18.5479

>  <SCORE.INTER.VDW>
-20.4695

>  <SCORE.INTER.norm>
-0.738438

>  <SCORE.INTRA>
-3.30841

>  <SCORE.INTRA.DIHEDRAL>
-4.78091

>  <SCORE.INTRA.DIHEDRAL.0>
6.26853

>  <SCORE.INTRA.POLAR>
0

>  <SCORE.INTRA.POLAR.0>
0

>  <SCORE.INTRA.REPUL>
0

>  <SCORE.INTRA.REPUL.0>
0

>  <SCORE.INTRA.SOLV>
0.60241

>  <SCORE.INTRA.SOLV.lig_0>
-38.4926

>  <SCORE.INTRA.VDW>
-1.21916

>  <SCORE.INTRA.VDW.0>
-0.59057

>  <SCORE.INTRA.norm>
-0.174127

>  <SCORE.RESTR>
0

>  <SCORE.RESTR.CAVITY>
0

>  <SCORE.RESTR.norm>
0

>  <SCORE.SYSTEM>
0

>  <SCORE.SYSTEM.CONST>
0

>  <SCORE.SYSTEM.DIHEDRAL>
0

>  <SCORE.SYSTEM.SOLV>
0

>  <SCORE.SYSTEM.norm>
0

>  <SCORE.heavy>
19

>  <SCORE.norm>
-0.912565

>  <RMSD>
15.607

$$$$
ligand
 OpenBabel11021811483D
libRbt.so/2013.1/901 2013/11/27
 19 21  0  0  0  0  0  0  0  0999 V2000
  -10.4056    2.8856   -2.4645 C   0  0  0  0  0  0  0  0  0  0  0  0
  -10.6935    4.2459   -2.8208 O   0  0  0  0  0  0  0  0  0  0  0  0
   -9.7185    2.1641   -3.6260 C   0  0  1  0  0  0  0  0  0  0  0  0
   -9.2125    0.8837   -3.2025 O   0  0  0  0  0  0  0  0  0  0  0  0
  -10.6927    1.9070   -4.7621 C   0  0  1  0  0  0  0  0  0  0  0  0
  -10.4751    2.8186   -5.8462 O   0  0  0  0  0  0  0  0  0  0  0  0
  -10.4386    0.4833   -5.2078 C   0  0  0  0  0  0  0  0  0  0  0  0
   -9.6197   -0.1607   -4.0987 C   0  0  2  0  0  0  0  0  0  0  0  0
  -14.0632   -1.0236   -1.4335 N   0  0  0  0  0  0  0  0  0  0  0  0
  -13.6044    0.1174   -2.0147 C   0  0  1  0  0  0  0  0  0  0  0  0
  -14.3520    1.2437   -1.9344 N   0  0  0  0  0  0  0  0  0  0  0  0
  -12.4120    0.1542   -2.6696 N   0  0  0  0  0  0  0  0  0  0  0  0
  -11.6215   -0.9480   -2.7773 C   0  0  2  0  0  0  0  0  0  0  0  0
  -12.0367   -2.1368   -2.2049 C   0  0  1  0  0  0  0  0  0  0  0  0
  -13.3407   -2.1639   -1.4948 C   0  0  0  0  0  0  0  0  0  0  0  0
  -13.7621   -3.2168   -0.9657 O   0  0  0  0  0  0  0  0  0  0  0  0
  -11.0944   -3.0629   -2.4534 N   0  0  0  0  0  0  0  0  0  0  0  0
  -10.1097   -2.4609   -3.1606 C   0  0  0  0  0  0  0  0  0  0  0  0
  -10.4323   -1.1695   -3.3569 N   0  0  1  0  0  0  0  0  0  0  0  0
  1  2  1  0  0  0  0
  3  1  1  1  0  0  0
  3  4  1  0  0  0  0
  3  5  1  0  0  0  0
  5  6  1  6  0  0  0
  5  7  1  0  0  0  0
  7  8  1  0  0  0  0
  8  4  1  1  0  0  0
  8 19  1  0  0  0  0
  9 15  1  0  0  0  0
  9 10  1  0  0  0  0
 10 11  1  1  0  0  0
 10 12  1  0  0  0  0
 13 12  1  1  0  0  0
 13 14  1  0  0  0  0
 13 19  1  0  0  0  0
 14 15  1  6  0  0  0
 14 17  1  0  0  0  0
 15 16  2  0  0  0  0
 17 18  1  0  0  0  0
 19 18  1  6  0  0  0
M  END
>  <CHROM.1>
169.70491092,63.94894406,-11.45577622,0.10964413,-2.99177425,0.99003453,0.56184421
-0.13201330

>  <Name>
ligand

>  <RI>
0

>  <Rbt.Current_Directory>
/home/itssahil/PROJECTS/Mol_Feturizer/New_Systems/rnas/3SKI

>  <Rbt.Executable>
rbdock ($Id: //depot/dev/client3/rdock/2013.1/src/exe/rbdock.cxx#4 $)

>  <Rbt.Library>
libRbt.so (2013.1, Build901 2013/11/27)

>  <Rbt.Parameter_File>
/export/apps/rDock/src/rDock_2013.1_src/data/scripts/dock_solv.prm

>  <Rbt.Receptor>
prm/blind_docking_20.prm

>  <SCORE>
-17.3107

>  <SCORE.INTER>
-13.9831

>  <SCORE.INTER.CONST>
1

>  <SCORE.INTER.POLAR>
0

>  <SCORE.INTER.ROT>
2

>  <SCORE.INTER.SOLV>
19.0705

>  <SCORE.INTER.VDW>
-20.6122

>  <SCORE.INTER.norm>
-0.735951

>  <SCORE.INTRA>
-3.32768

>  <SCORE.INTRA.DIHEDRAL>
-4.69163

>  <SCORE.INTRA.DIHEDRAL.0>
6.26853

>  <SCORE.INTRA.POLAR>
0

>  <SCORE.INTRA.POLAR.0>
0

>  <SCORE.INTRA.REPUL>
0

>  <SCORE.INTRA.REPUL.0>
0

>  <SCORE.INTRA.SOLV>
0.460032

>  <SCORE.INTRA.SOLV.lig_0>
-38.4926

>  <SCORE.INTRA.VDW>
-1.21188

>  <SCORE.INTRA.VDW.0>
-0.59057

>  <SCORE.INTRA.norm>
-0.175141

>  <SCORE.RESTR>
0

>  <SCORE.RESTR.CAVITY>
0

>  <SCORE.RESTR.norm>
0

>  <SCORE.SYSTEM>
0

>  <SCORE.SYSTEM.CONST>
0

>  <SCORE.SYSTEM.DIHEDRAL>
0

>  <SCORE.SYSTEM.SOLV>
0

>  <SCORE.SYSTEM.norm>
0

>  <SCORE.heavy>
19

>  <SCORE.norm>
-0.911092

>  <RMSD>
15.621

$$$$
ligand
 OpenBabel11021811483D
libRbt.so/2013.1/901 2013/11/27
 19 21  0  0  0  0  0  0  0  0999 V2000
   -8.5262   -0.2411   -6.6501 C   0  0  0  0  0  0  0  0  0  0  0  0
   -9.9340   -0.1853   -6.3760 O   0  0  0  0  0  0  0  0  0  0  0  0
   -7.8589   -1.3208   -5.7953 C   0  0  1  0  0  0  0  0  0  0  0  0
   -8.1729   -1.1338   -4.4019 O   0  0  0  0  0  0  0  0  0  0  0  0
   -8.3493   -2.7047   -6.1829 C   0  0  1  0  0  0  0  0  0  0  0  0
   -7.3658   -3.4042   -6.9556 O   0  0  0  0  0  0  0  0  0  0  0  0
   -8.6122   -3.4280   -4.8799 C   0  0  0  0  0  0  0  0  0  0  0  0
   -8.6400   -2.3521   -3.8042 C   0  0  2  0  0  0  0  0  0  0  0  0
  -12.2836    1.1669   -2.4135 N   0  0  0  0  0  0  0  0  0  0  0  0
  -11.0190    1.3596   -2.8760 C   0  0  1  0  0  0  0  0  0  0  0  0
  -10.5585    2.6243   -3.0259 N   0  0  0  0  0  0  0  0  0  0  0  0
  -10.2063    0.3132   -3.1867 N   0  0  0  0  0  0  0  0  0  0  0  0
  -10.6188   -0.9765   -3.0523 C   0  0  2  0  0  0  0  0  0  0  0  0
  -11.8952   -1.2333   -2.5855 C   0  0  1  0  0  0  0  0  0  0  0  0
  -12.7726   -0.0825   -2.2519 C   0  0  0  0  0  0  0  0  0  0  0  0
  -13.9374   -0.2635   -1.8315 O   0  0  0  0  0  0  0  0  0  0  0  0
  -12.0584   -2.5672   -2.5499 N   0  0  0  0  0  0  0  0  0  0  0  0
  -10.9044   -3.1292   -2.9797 C   0  0  0  0  0  0  0  0  0  0  0  0
  -10.0261   -2.1569   -3.2854 N   0  0  1  0  0  0  0  0  0  0  0  0
  1  2  1  0  0  0  0
  3  1  1  6  0  0  0
  3  4  1  0  0  0  0
  3  5  1  0  0  0  0
  5  6  1  1  0  0  0
  5  7  1  0  0  0  0
  7  8  1  0  0  0  0
  8  4  1  6  0  0  0
  8 19  1  0  0  0  0
  9 15  1  0  0  0  0
  9 10  1  0  0  0  0
 10 11  1  1  0  0  0
 10 12  1  0  0  0  0
 13 12  1  1  0  0  0
 13 14  1  0  0  0  0
 13 19  1  0  0  0  0
 14 15  1  6  0  0  0
 14 17  1  0  0  0  0
 15 16  2  0  0  0  0
 17 18  1  0  0  0  0
 19 18  1  6  0  0  0
M  END
>  <CHROM.1>
-53.06781448,-17.58620615,-10.16021332,-1.04039447,-4.01185871,-0.35648532
0.74414707,-0.10210123

>  <Name>
ligand

>  <RI>
0

>  <Rbt.Current_Directory>
/home/itssahil/PROJECTS/Mol_Feturizer/New_Systems/rnas/3SKI

>  <Rbt.Executable>
rbdock ($Id: //depot/dev/client3/rdock/2013.1/src/exe/rbdock.cxx#4 $)

>  <Rbt.Library>
libRbt.so (2013.1, Build901 2013/11/27)

>  <Rbt.Parameter_File>
/export/apps/rDock/src/rDock_2013.1_src/data/scripts/dock_solv.prm

>  <Rbt.Receptor>
prm/blind_docking_60.prm

>  <SCORE>
-15.1191

>  <SCORE.INTER>
-12.1033

>  <SCORE.INTER.CONST>
1

>  <SCORE.INTER.POLAR>
0

>  <SCORE.INTER.ROT>
2

>  <SCORE.INTER.SOLV>
11.8766

>  <SCORE.INTER.VDW>
-16.9611

>  <SCORE.INTER.norm>
-0.637018

>  <SCORE.INTRA>
-3.01577

>  <SCORE.INTRA.DIHEDRAL>
-4.87636

>  <SCORE.INTRA.DIHEDRAL.0>
6.26853

>  <SCORE.INTRA.POLAR>
0

>  <SCORE.INTRA.POLAR.0>
0

>  <SCORE.INTRA.REPUL>
0

>  <SCORE.INTRA.REPUL.0>
0

>  <SCORE.INTRA.SOLV>
0.371722

>  <SCORE.INTRA.SOLV.lig_0>
-38.4926

>  <SCORE.INTRA.VDW>
-0.763451

>  <SCORE.INTRA.VDW.0>
-0.59057

>  <SCORE.INTRA.norm>
-0.158725

>  <SCORE.RESTR>
0

>  <SCORE.RESTR.CAVITY>
0

>  <SCORE.RESTR.norm>
0

>  <SCORE.SYSTEM>
0

>  <SCORE.SYSTEM.CONST>
0

>  <SCORE.SYSTEM.DIHEDRAL>
0

>  <SCORE.SYSTEM.SOLV>
0

>  <SCORE.SYSTEM.norm>
0

>  <SCORE.heavy>
19

>  <SCORE.norm>
-0.795743

>  <RMSD>
15.626

$$$$
ligand
 OpenBabel11021811483D
libRbt.so/2013.1/901 2013/11/27
 19 21  0  0  0  0  0  0  0  0999 V2000
   -8.5584   -0.5480   -6.8312 C   0  0  0  0  0  0  0  0  0  0  0  0
   -8.1661    0.8040   -6.5511 O   0  0  0  0  0  0  0  0  0  0  0  0
   -7.8586   -1.5154   -5.8739 C   0  0  1  0  0  0  0  0  0  0  0  0
   -8.1789   -1.1990   -4.5056 O   0  0  0  0  0  0  0  0  0  0  0  0
   -8.3061   -2.9456   -6.1191 C   0  0  1  0  0  0  0  0  0  0  0  0
   -7.3013   -3.6889   -6.8203 O   0  0  0  0  0  0  0  0  0  0  0  0
   -8.5472   -3.5420   -4.7494 C   0  0  0  0  0  0  0  0  0  0  0  0
   -8.6086   -2.3647   -3.7872 C   0  0  2  0  0  0  0  0  0  0  0  0
  -12.2463    1.1770   -2.4395 N   0  0  0  0  0  0  0  0  0  0  0  0
  -10.9743    1.3618   -2.8843 C   0  0  1  0  0  0  0  0  0  0  0  0
  -10.5030    2.6235   -3.0254 N   0  0  0  0  0  0  0  0  0  0  0  0
  -10.1646    0.3103   -3.1859 N   0  0  0  0  0  0  0  0  0  0  0  0
  -10.5879   -0.9767   -3.0597 C   0  0  2  0  0  0  0  0  0  0  0  0
  -11.8723   -1.2255   -2.6108 C   0  0  1  0  0  0  0  0  0  0  0  0
  -12.7462   -0.0692   -2.2870 C   0  0  0  0  0  0  0  0  0  0  0  0
  -13.9178   -0.2430   -1.8830 O   0  0  0  0  0  0  0  0  0  0  0  0
  -12.0452   -2.5584   -2.5801 N   0  0  0  0  0  0  0  0  0  0  0  0
  -10.8894   -3.1276   -2.9952 C   0  0  0  0  0  0  0  0  0  0  0  0
  -10.0002   -2.1608   -3.2870 N   0  0  1  0  0  0  0  0  0  0  0  0
  1  2  1  0  0  0  0
  3  1  1  6  0  0  0
  3  4  1  0  0  0  0
  3  5  1  0  0  0  0
  5  6  1  1  0  0  0
  5  7  1  0  0  0  0
  7  8  1  0  0  0  0
  8  4  1  6  0  0  0
  8 19  1  0  0  0  0
  9 15  1  0  0  0  0
  9 10  1  0  0  0  0
 10 11  1  1  0  0  0
 10 12  1  0  0  0  0
 13 12  1  1  0  0  0
 13 14  1  0  0  0  0
 13 19  1  0  0  0  0
 14 15  1  6  0  0  0
 14 17  1  0  0  0  0
 15 16  2  0  0  0  0
 17 18  1  0  0  0  0
 19 18  1  6  0  0  0
M  END
>  <CHROM.1>
58.76037825,-23.90574465,-10.02589405,-1.04318418,-4.03365231,-0.35991077
0.72336100,-0.07033626

>  <Name>
ligand

>  <RI>
0

>  <Rbt.Current_Directory>
/home/itssahil/PROJECTS/Mol_Feturizer/New_Systems/rnas/3SKI

>  <Rbt.Executable>
rbdock ($Id: //depot/dev/client3/rdock/2013.1/src/exe/rbdock.cxx#4 $)

>  <Rbt.Library>
libRbt.so (2013.1, Build901 2013/11/27)

>  <Rbt.Parameter_File>
/export/apps/rDock/src/rDock_2013.1_src/data/scripts/dock_solv.prm

>  <Rbt.Receptor>
prm/blind_docking_40.prm

>  <SCORE>
-15.3227

>  <SCORE.INTER>
-12.4253

>  <SCORE.INTER.CONST>
1

>  <SCORE.INTER.POLAR>
0

>  <SCORE.INTER.ROT>
2

>  <SCORE.INTER.SOLV>
11.1927

>  <SCORE.INTER.VDW>
-16.9478

>  <SCORE.INTER.norm>
-0.653965

>  <SCORE.INTRA>
-2.89741

>  <SCORE.INTRA.DIHEDRAL>
-5.04271

>  <SCORE.INTRA.DIHEDRAL.0>
6.26853

>  <SCORE.INTRA.POLAR>
0

>  <SCORE.INTRA.POLAR.0>
0

>  <SCORE.INTRA.REPUL>
0

>  <SCORE.INTRA.REPUL.0>
0

>  <SCORE.INTRA.SOLV>
-0.173739

>  <SCORE.INTRA.SOLV.lig_0>
-38.4926

>  <SCORE.INTRA.VDW>
-0.289185

>  <SCORE.INTRA.VDW.0>
-0.59057

>  <SCORE.INTRA.norm>
-0.152495

>  <SCORE.RESTR>
0

>  <SCORE.RESTR.CAVITY>
0

>  <SCORE.RESTR.norm>
0

>  <SCORE.SYSTEM>
0

>  <SCORE.SYSTEM.CONST>
0

>  <SCORE.SYSTEM.DIHEDRAL>
0

>  <SCORE.SYSTEM.SOLV>
0

>  <SCORE.SYSTEM.norm>
0

>  <SCORE.heavy>
19

>  <SCORE.norm>
-0.80646

>  <RMSD>
15.627

$$$$
ligand
 OpenBabel11021811483D
libRbt.so/2013.1/901 2013/11/27
 19 21  0  0  0  0  0  0  0  0999 V2000
   -8.4561   -0.8692   -6.9127 C   0  0  0  0  0  0  0  0  0  0  0  0
   -7.9861   -1.2392   -8.2175 O   0  0  0  0  0  0  0  0  0  0  0  0
   -7.7610   -1.7081   -5.8379 C   0  0  1  0  0  0  0  0  0  0  0  0
   -8.1337   -1.2590   -4.5210 O   0  0  0  0  0  0  0  0  0  0  0  0
   -8.1608   -3.1693   -5.9424 C   0  0  1  0  0  0  0  0  0  0  0  0
   -7.1140   -3.9511   -6.5309 O   0  0  0  0  0  0  0  0  0  0  0  0
   -8.4293   -3.6249   -4.5245 C   0  0  0  0  0  0  0  0  0  0  0  0
   -8.5540   -2.3550   -3.6953 C   0  0  2  0  0  0  0  0  0  0  0  0
  -12.2064    1.2074   -2.4455 N   0  0  0  0  0  0  0  0  0  0  0  0
  -10.9112    1.3838   -2.8218 C   0  0  1  0  0  0  0  0  0  0  0  0
  -10.4164    2.6414   -2.9088 N   0  0  0  0  0  0  0  0  0  0  0  0
  -10.1018    0.3279   -3.1080 N   0  0  0  0  0  0  0  0  0  0  0  0
  -10.5482   -0.9554   -3.0341 C   0  0  2  0  0  0  0  0  0  0  0  0
  -11.8568   -1.1957   -2.6558 C   0  0  1  0  0  0  0  0  0  0  0  0
  -12.7301   -0.0345   -2.3482 C   0  0  0  0  0  0  0  0  0  0  0  0
  -13.9228   -0.2003   -2.0073 O   0  0  0  0  0  0  0  0  0  0  0  0
  -12.0491   -2.5262   -2.6659 N   0  0  0  0  0  0  0  0  0  0  0  0
  -10.8818   -3.1024   -3.0366 C   0  0  0  0  0  0  0  0  0  0  0  0
   -9.9660   -2.1424   -3.2602 N   0  0  1  0  0  0  0  0  0  0  0  0
  1  2  1  0  0  0  0
  3  1  1  6  0  0  0
  3  4  1  0  0  0  0
  3  5  1  0  0  0  0
  5  6  1  1  0  0  0
  5  7  1  0  0  0  0
  7  8  1  0  0  0  0
  8  4  1  6  0  0  0
  8 19  1  0  0  0  0
  9 15  1  0  0  0  0
  9 10  1  0  0  0  0
 10 11  1  1  0  0  0
 10 12  1  0  0  0  0
 13 12  1  1  0  0  0
 13 14  1  0  0  0  0
 13 19  1  0  0  0  0
 14 15  1  6  0  0  0
 14 17  1  0  0  0  0
 15 16  2  0  0  0  0
 17 18  1  0  0  0  0
 19 18  1  6  0  0  0
M  END
>  <CHROM.1>
174.65039497,-31.83725943,-9.95597800,-1.21506029,-4.09945910,-0.35926576
0.77052539,-0.12151237

>  <Name>
ligand

>  <RI>
0

>  <Rbt.Current_Directory>
/home/itssahil/PROJECTS/Mol_Feturizer/New_Systems/rnas/3SKI

>  <Rbt.Executable>
rbdock ($Id: //depot/dev/client3/rdock/2013.1/src/exe/rbdock.cxx#4 $)

>  <Rbt.Library>
libRbt.so (2013.1, Build901 2013/11/27)

>  <Rbt.Parameter_File>
/export/apps/rDock/src/rDock_2013.1_src/data/scripts/dock_solv.prm

>  <Rbt.Receptor>
prm/blind_docking_80.prm

>  <SCORE>
-14.7235

>  <SCORE.INTER>
-12.2137

>  <SCORE.INTER.CONST>
1

>  <SCORE.INTER.POLAR>
0

>  <SCORE.INTER.ROT>
2

>  <SCORE.INTER.SOLV>
11.576

>  <SCORE.INTER.VDW>
-16.9345

>  <SCORE.INTER.norm>
-0.642827

>  <SCORE.INTRA>
-2.50978

>  <SCORE.INTRA.DIHEDRAL>
-4.94619

>  <SCORE.INTRA.DIHEDRAL.0>
6.26853

>  <SCORE.INTRA.POLAR>
0

>  <SCORE.INTRA.POLAR.0>
0

>  <SCORE.INTRA.REPUL>
0

>  <SCORE.INTRA.REPUL.0>
0

>  <SCORE.INTRA.SOLV>
0.0145199

>  <SCORE.INTRA.SOLV.lig_0>
-38.4926

>  <SCORE.INTRA.VDW>
-0.0439394

>  <SCORE.INTRA.VDW.0>
-0.59057

>  <SCORE.INTRA.norm>
-0.132093

>  <SCORE.RESTR>
0

>  <SCORE.RESTR.CAVITY>
0

>  <SCORE.RESTR.norm>
0

>  <SCORE.SYSTEM>
0

>  <SCORE.SYSTEM.CONST>
0

>  <SCORE.SYSTEM.DIHEDRAL>
0

>  <SCORE.SYSTEM.SOLV>
0

>  <SCORE.SYSTEM.norm>
0

>  <SCORE.heavy>
19

>  <SCORE.norm>
-0.77492

>  <RMSD>
15.638

$$$$
ligand
 OpenBabel11021811483D
libRbt.so/2013.1/901 2013/11/27
 19 21  0  0  0  0  0  0  0  0999 V2000
   -8.5213   -0.2550   -6.6976 C   0  0  0  0  0  0  0  0  0  0  0  0
   -8.0295    1.0461   -6.3433 O   0  0  0  0  0  0  0  0  0  0  0  0
   -7.8706   -1.3278   -5.8215 C   0  0  1  0  0  0  0  0  0  0  0  0
   -8.1921   -1.1159   -4.4335 O   0  0  0  0  0  0  0  0  0  0  0  0
   -8.3722   -2.7127   -6.1909 C   0  0  1  0  0  0  0  0  0  0  0  0
   -7.3906   -3.4339   -6.9459 O   0  0  0  0  0  0  0  0  0  0  0  0
   -8.6511   -3.4129   -4.8787 C   0  0  0  0  0  0  0  0  0  0  0  0
   -8.6754   -2.3200   -3.8201 C   0  0  2  0  0  0  0  0  0  0  0  0
  -12.2409    1.2528   -2.3658 N   0  0  0  0  0  0  0  0  0  0  0  0
  -10.9650    1.4250   -2.8048 C   0  0  1  0  0  0  0  0  0  0  0  0
  -10.4680    2.6805   -2.9076 N   0  0  0  0  0  0  0  0  0  0  0  0
  -10.1769    0.3668   -3.1381 N   0  0  0  0  0  0  0  0  0  0  0  0
  -10.6264   -0.9145   -3.0509 C   0  0  2  0  0  0  0  0  0  0  0  0
  -11.9159   -1.1505   -2.6098 C   0  0  1  0  0  0  0  0  0  0  0  0
  -12.7662    0.0131   -2.2511 C   0  0  0  0  0  0  0  0  0  0  0  0
  -13.9414   -0.1488   -1.8526 O   0  0  0  0  0  0  0  0  0  0  0  0
  -12.1160   -2.4799   -2.6194 N   0  0  0  0  0  0  0  0  0  0  0  0
  -10.9718   -3.0597   -3.0516 C   0  0  0  0  0  0  0  0  0  0  0  0
  -10.0629   -2.1030   -3.3139 N   0  0  1  0  0  0  0  0  0  0  0  0
  1  2  1  0  0  0  0
  3  1  1  6  0  0  0
  3  4  1  0  0  0  0
  3  5  1  0  0  0  0
  5  6  1  1  0  0  0
  5  7  1  0  0  0  0
  7  8  1  0  0  0  0
  8  4  1  6  0  0  0
  8 19  1  0  0  0  0
  9 15  1  0  0  0  0
  9 10  1  0  0  0  0
 10 11  1  1  0  0  0
 10 12  1  0  0  0  0
 13 12  1  1  0  0  0
 13 14  1  0  0  0  0
 13 19  1  0  0  0  0
 14 15  1  6  0  0  0
 14 17  1  0  0  0  0
 15 16  2  0  0  0  0
 17 18  1  0  0  0  0
 19 18  1  6  0  0  0
M  END
>  <CHROM.1>
61.52868139,-20.52566709,-10.04977277,-0.92243091,-4.01226649,-0.37684396
0.70982802,-0.00105839

>  <Name>
ligand

>  <RI>
0

>  <Rbt.Current_Directory>
/home/itssahil/PROJECTS/Mol_Feturizer/New_Systems/rnas/3SKI

>  <Rbt.Executable>
rbdock ($Id: //depot/dev/client3/rdock/2013.1/src/exe/rbdock.cxx#4 $)

>  <Rbt.Library>
libRbt.so (2013.1, Build901 2013/11/27)

>  <Rbt.Parameter_File>
/export/apps/rDock/src/rDock_2013.1_src/data/scripts/dock_solv.prm

>  <Rbt.Receptor>
prm/blind_docking_40.prm

>  <SCORE>
-15.3599

>  <SCORE.INTER>
-12.3634

>  <SCORE.INTER.CONST>
1

>  <SCORE.INTER.POLAR>
0

>  <SCORE.INTER.ROT>
2

>  <SCORE.INTER.SOLV>
11.0003

>  <SCORE.INTER.VDW>
-16.8424

>  <SCORE.INTER.norm>
-0.650705

>  <SCORE.INTRA>
-2.9965

>  <SCORE.INTRA.DIHEDRAL>
-5.04009

>  <SCORE.INTRA.DIHEDRAL.0>
6.26853

>  <SCORE.INTRA.POLAR>
0

>  <SCORE.INTRA.POLAR.0>
0

>  <SCORE.INTRA.REPUL>
0

>  <SCORE.INTRA.REPUL.0>
0

>  <SCORE.INTRA.SOLV>
-0.180531

>  <SCORE.INTRA.SOLV.lig_0>
-38.4926

>  <SCORE.INTRA.VDW>
-0.386191

>  <SCORE.INTRA.VDW.0>
-0.59057

>  <SCORE.INTRA.norm>
-0.157711

>  <SCORE.RESTR>
0

>  <SCORE.RESTR.CAVITY>
0

>  <SCORE.RESTR.norm>
0

>  <SCORE.SYSTEM>
0

>  <SCORE.SYSTEM.CONST>
0

>  <SCORE.SYSTEM.DIHEDRAL>
0

>  <SCORE.SYSTEM.SOLV>
0

>  <SCORE.SYSTEM.norm>
0

>  <SCORE.heavy>
19

>  <SCORE.norm>
-0.808416

>  <RMSD>
15.639

$$$$
ligand
 OpenBabel11021811483D
libRbt.so/2013.1/901 2013/11/27
 19 21  0  0  0  0  0  0  0  0999 V2000
   -8.5037   -0.2430   -6.7112 C   0  0  0  0  0  0  0  0  0  0  0  0
   -8.0227    1.0579   -6.3417 O   0  0  0  0  0  0  0  0  0  0  0  0
   -7.8522   -1.3195   -5.8403 C   0  0  1  0  0  0  0  0  0  0  0  0
   -8.1721   -1.1134   -4.4510 O   0  0  0  0  0  0  0  0  0  0  0  0
   -8.3544   -2.7028   -6.2148 C   0  0  1  0  0  0  0  0  0  0  0  0
   -7.3739   -3.4211   -6.9739 O   0  0  0  0  0  0  0  0  0  0  0  0
   -8.6320   -3.4084   -4.9052 C   0  0  0  0  0  0  0  0  0  0  0  0
   -8.6549   -2.3199   -3.8421 C   0  0  2  0  0  0  0  0  0  0  0  0
  -12.2206    1.2479   -2.3759 N   0  0  0  0  0  0  0  0  0  0  0  0
  -10.9455    1.4217   -2.8164 C   0  0  1  0  0  0  0  0  0  0  0  0
  -10.4494    2.6777   -2.9176 N   0  0  0  0  0  0  0  0  0  0  0  0
  -10.1571    0.3646   -3.1528 N   0  0  0  0  0  0  0  0  0  0  0  0
  -10.6057   -0.9171   -3.0674 C   0  0  2  0  0  0  0  0  0  0  0  0
  -11.8944   -1.1548   -2.6248 C   0  0  1  0  0  0  0  0  0  0  0  0
  -12.7450    0.0075   -2.2627 C   0  0  0  0  0  0  0  0  0  0  0  0
  -13.9194   -0.1559   -1.8627 O   0  0  0  0  0  0  0  0  0  0  0  0
  -12.0937   -2.4843   -2.6366 N   0  0  0  0  0  0  0  0  0  0  0  0
  -10.9497   -3.0625   -3.0716 C   0  0  0  0  0  0  0  0  0  0  0  0
  -10.0418   -2.1047   -3.3334 N   0  0  1  0  0  0  0  0  0  0  0  0
  1  2  1  0  0  0  0
  3  1  1  6  0  0  0
  3  4  1  0  0  0  0
  3  5  1  0  0  0  0
  5  6  1  1  0  0  0
  5  7  1  0  0  0  0
  7  8  1  0  0  0  0
  8  4  1  6  0  0  0
  8 19  1  0  0  0  0
  9 15  1  0  0  0  0
  9 10  1  0  0  0  0
 10 11  1  1  0  0  0
 10 12  1  0  0  0  0
 13 12  1  1  0  0  0
 13 14  1  0  0  0  0
 13 19  1  0  0  0  0
 14 15  1  6  0  0  0
 14 17  1  0  0  0  0
 15 16  2  0  0  0  0
 17 18  1  0  0  0  0
 19 18  1  6  0  0  0
M  END
>  <CHROM.1>
60.86769284,-20.38633946,-10.03065087,-0.92111182,-4.02821058,-0.37651342
0.71059796,0.00118406

>  <Name>
ligand

>  <RI>
0

>  <Rbt.Current_Directory>
/home/itssahil/PROJECTS/Mol_Feturizer/New_Systems/rnas/3SKI

>  <Rbt.Executable>
rbdock ($Id: //depot/dev/client3/rdock/2013.1/src/exe/rbdock.cxx#4 $)

>  <Rbt.Library>
libRbt.so (2013.1, Build901 2013/11/27)

>  <Rbt.Parameter_File>
/export/apps/rDock/src/rDock_2013.1_src/data/scripts/dock_solv.prm

>  <Rbt.Receptor>
prm/blind_docking_100.prm

>  <SCORE>
-15.4116

>  <SCORE.INTER>
-12.4107

>  <SCORE.INTER.CONST>
1

>  <SCORE.INTER.POLAR>
0

>  <SCORE.INTER.ROT>
2

>  <SCORE.INTER.SOLV>
10.9397

>  <SCORE.INTER.VDW>
-16.8537

>  <SCORE.INTER.norm>
-0.653195

>  <SCORE.INTRA>
-3.00089

>  <SCORE.INTRA.DIHEDRAL>
-5.04611

>  <SCORE.INTRA.DIHEDRAL.0>
6.26853

>  <SCORE.INTRA.POLAR>
0

>  <SCORE.INTRA.POLAR.0>
0

>  <SCORE.INTRA.REPUL>
0

>  <SCORE.INTRA.REPUL.0>
0

>  <SCORE.INTRA.SOLV>
-0.175647

>  <SCORE.INTRA.SOLV.lig_0>
-38.4926

>  <SCORE.INTRA.VDW>
-0.390011

>  <SCORE.INTRA.VDW.0>
-0.59057

>  <SCORE.INTRA.norm>
-0.157942

>  <SCORE.RESTR>
0

>  <SCORE.RESTR.CAVITY>
0

>  <SCORE.RESTR.norm>
0

>  <SCORE.SYSTEM>
0

>  <SCORE.SYSTEM.CONST>
0

>  <SCORE.SYSTEM.DIHEDRAL>
0

>  <SCORE.SYSTEM.SOLV>
0

>  <SCORE.SYSTEM.norm>
0

>  <SCORE.heavy>
19

>  <SCORE.norm>
-0.811137

>  <RMSD>
15.650

$$$$
ligand
 OpenBabel11021811483D
libRbt.so/2013.1/901 2013/11/27
 19 21  0  0  0  0  0  0  0  0999 V2000
   -9.7839    1.4013   -3.7334 C   0  0  0  0  0  0  0  0  0  0  0  0
  -10.3762    2.5087   -3.0384 O   0  0  0  0  0  0  0  0  0  0  0  0
  -10.8568    0.3838   -4.1276 C   0  0  1  0  0  0  0  0  0  0  0  0
  -10.2807   -0.6948   -4.8892 O   0  0  0  0  0  0  0  0  0  0  0  0
  -11.5037   -0.2313   -2.8992 C   0  0  1  0  0  0  0  0  0  0  0  0
  -12.8078    0.3176   -2.6719 O   0  0  0  0  0  0  0  0  0  0  0  0
  -11.5952   -1.7152   -3.1817 C   0  0  0  0  0  0  0  0  0  0  0  0
  -10.6739   -1.9717   -4.3653 C   0  0  2  0  0  0  0  0  0  0  0  0
   -6.0593   -3.9661   -5.8887 N   0  0  0  0  0  0  0  0  0  0  0  0
   -6.9889   -3.2776   -6.6043 C   0  0  1  0  0  0  0  0  0  0  0  0
   -6.7599   -3.0314   -7.9162 N   0  0  0  0  0  0  0  0  0  0  0  0
   -8.1430   -2.8352   -6.0348 N   0  0  0  0  0  0  0  0  0  0  0  0
   -8.4229   -3.0576   -4.7219 C   0  0  2  0  0  0  0  0  0  0  0  0
   -7.5144   -3.7533   -3.9448 C   0  0  1  0  0  0  0  0  0  0  0  0
   -6.2581   -4.2288   -4.5781 C   0  0  0  0  0  0  0  0  0  0  0  0
   -5.4027   -4.8574   -3.9154 O   0  0  0  0  0  0  0  0  0  0  0  0
   -8.0157   -3.8334   -2.7000 N   0  0  0  0  0  0  0  0  0  0  0  0
   -9.2151   -3.2059   -2.7040 C   0  0  0  0  0  0  0  0  0  0  0  0
   -9.4629   -2.7334   -3.9392 N   0  0  1  0  0  0  0  0  0  0  0  0
  1  2  1  0  0  0  0
  3  1  1  1  0  0  0
  3  4  1  0  0  0  0
  3  5  1  0  0  0  0
  5  6  1  6  0  0  0
  5  7  1  0  0  0  0
  7  8  1  0  0  0  0
  8  4  1  1  0  0  0
  8 19  1  0  0  0  0
  9 15  1  0  0  0  0
  9 10  1  0  0  0  0
 10 11  1  6  0  0  0
 10 12  1  0  0  0  0
 13 12  1  6  0  0  0
 13 14  1  0  0  0  0
 13 19  1  0  0  0  0
 14 15  1  1  0  0  0
 14 17  1  0  0  0  0
 15 16  2  0  0  0  0
 17 18  1  0  0  0  0
 19 18  1  1  0  0  0
M  END
>  <CHROM.1>
176.86020641,-57.76614478,-9.00261911,-1.95972868,-4.28531166,-2.89092173
-0.77568989,2.33954500

>  <Name>
ligand

>  <RI>
0

>  <Rbt.Current_Directory>
/home/itssahil/PROJECTS/Mol_Feturizer/New_Systems/rnas/3SKI

>  <Rbt.Executable>
rbdock ($Id: //depot/dev/client3/rdock/2013.1/src/exe/rbdock.cxx#4 $)

>  <Rbt.Library>
libRbt.so (2013.1, Build901 2013/11/27)

>  <Rbt.Parameter_File>
/export/apps/rDock/src/rDock_2013.1_src/data/scripts/dock_solv.prm

>  <Rbt.Receptor>
prm/blind_docking_20.prm

>  <SCORE>
-19.3856

>  <SCORE.INTER>
-17.1544

>  <SCORE.INTER.CONST>
1

>  <SCORE.INTER.POLAR>
0

>  <SCORE.INTER.ROT>
2

>  <SCORE.INTER.SOLV>
7.90902

>  <SCORE.INTER.VDW>
-19.0059

>  <SCORE.INTER.norm>
-0.902864

>  <SCORE.INTRA>
-2.23124

>  <SCORE.INTRA.DIHEDRAL>
-5.02929

>  <SCORE.INTRA.DIHEDRAL.0>
6.26853

>  <SCORE.INTRA.POLAR>
0

>  <SCORE.INTRA.POLAR.0>
0

>  <SCORE.INTRA.REPUL>
0

>  <SCORE.INTRA.REPUL.0>
0

>  <SCORE.INTRA.SOLV>
0.00545826

>  <SCORE.INTRA.SOLV.lig_0>
-38.4926

>  <SCORE.INTRA.VDW>
0.280678

>  <SCORE.INTRA.VDW.0>
-0.59057

>  <SCORE.INTRA.norm>
-0.117434

>  <SCORE.RESTR>
0

>  <SCORE.RESTR.CAVITY>
0

>  <SCORE.RESTR.norm>
0

>  <SCORE.SYSTEM>
0

>  <SCORE.SYSTEM.CONST>
0

>  <SCORE.SYSTEM.DIHEDRAL>
0

>  <SCORE.SYSTEM.SOLV>
0

>  <SCORE.SYSTEM.norm>
0

>  <SCORE.heavy>
19

>  <SCORE.norm>
-1.0203

>  <RMSD>
15.658

$$$$
ligand
 OpenBabel11021811483D
libRbt.so/2013.1/901 2013/11/27
 19 21  0  0  0  0  0  0  0  0999 V2000
   -9.6467    1.3944   -4.1784 C   0  0  0  0  0  0  0  0  0  0  0  0
   -8.4994    0.7693   -3.5841 O   0  0  0  0  0  0  0  0  0  0  0  0
  -10.7874    0.3851   -4.3259 C   0  0  1  0  0  0  0  0  0  0  0  0
  -10.3323   -0.8031   -5.0014 O   0  0  0  0  0  0  0  0  0  0  0  0
  -11.3142   -0.0458   -2.9684 C   0  0  1  0  0  0  0  0  0  0  0  0
  -12.5678    0.5843   -2.6764 O   0  0  0  0  0  0  0  0  0  0  0  0
  -11.4822   -1.5475   -3.0499 C   0  0  0  0  0  0  0  0  0  0  0  0
  -10.7049   -1.9876   -4.2819 C   0  0  2  0  0  0  0  0  0  0  0  0
   -6.1038   -3.9128   -5.9297 N   0  0  0  0  0  0  0  0  0  0  0  0
   -7.0538   -3.2216   -6.6152 C   0  0  1  0  0  0  0  0  0  0  0  0
   -6.8536   -2.9520   -7.9271 N   0  0  0  0  0  0  0  0  0  0  0  0
   -8.2002   -2.7996   -6.0155 N   0  0  0  0  0  0  0  0  0  0  0  0
   -8.4517   -3.0461   -4.7012 C   0  0  2  0  0  0  0  0  0  0  0  0
   -7.5214   -3.7457   -3.9540 C   0  0  1  0  0  0  0  0  0  0  0  0
   -6.2737   -4.1988   -4.6200 C   0  0  0  0  0  0  0  0  0  0  0  0
   -5.3995   -4.8300   -3.9849 O   0  0  0  0  0  0  0  0  0  0  0  0
   -7.9969   -3.8509   -2.7009 N   0  0  0  0  0  0  0  0  0  0  0  0
   -9.2017   -3.2348   -2.6706 C   0  0  0  0  0  0  0  0  0  0  0  0
   -9.4786   -2.7446   -3.8927 N   0  0  1  0  0  0  0  0  0  0  0  0
  1  2  1  0  0  0  0
  3  1  1  1  0  0  0
  3  4  1  0  0  0  0
  3  5  1  0  0  0  0
  5  6  1  6  0  0  0
  5  7  1  0  0  0  0
  7  8  1  0  0  0  0
  8  4  1  1  0  0  0
  8 19  1  0  0  0  0
  9 15  1  0  0  0  0
  9 10  1  0  0  0  0
 10 11  1  6  0  0  0
 10 12  1  0  0  0  0
 13 12  1  6  0  0  0
 13 14  1  0  0  0  0
 13 19  1  0  0  0  0
 14 15  1  1  0  0  0
 14 17  1  0  0  0  0
 15 16  2  0  0  0  0
 17 18  1  0  0  0  0
 19 18  1  1  0  0  0
M  END
>  <CHROM.1>
-51.91284430,-47.84927752,-8.86616655,-2.02674016,-4.35579942,-2.95487380
-0.75610624,2.26713069

>  <Name>
ligand

>  <RI>
0

>  <Rbt.Current_Directory>
/home/itssahil/PROJECTS/Mol_Feturizer/New_Systems/rnas/3SKI

>  <Rbt.Executable>
rbdock ($Id: //depot/dev/client3/rdock/2013.1/src/exe/rbdock.cxx#4 $)

>  <Rbt.Library>
libRbt.so (2013.1, Build901 2013/11/27)

>  <Rbt.Parameter_File>
/export/apps/rDock/src/rDock_2013.1_src/data/scripts/dock_solv.prm

>  <Rbt.Receptor>
prm/blind_docking_20.prm

>  <SCORE>
-18.8742

>  <SCORE.INTER>
-16.5295

>  <SCORE.INTER.CONST>
1

>  <SCORE.INTER.POLAR>
0

>  <SCORE.INTER.ROT>
2

>  <SCORE.INTER.SOLV>
8.39996

>  <SCORE.INTER.VDW>
-18.753

>  <SCORE.INTER.norm>
-0.869973

>  <SCORE.INTRA>
-2.34517

>  <SCORE.INTRA.DIHEDRAL>
-4.81906

>  <SCORE.INTRA.DIHEDRAL.0>
6.26853

>  <SCORE.INTRA.POLAR>
0

>  <SCORE.INTRA.POLAR.0>
0

>  <SCORE.INTRA.REPUL>
0

>  <SCORE.INTRA.REPUL.0>
0

>  <SCORE.INTRA.SOLV>
0.219984

>  <SCORE.INTRA.SOLV.lig_0>
-38.4926

>  <SCORE.INTRA.VDW>
-0.0456283

>  <SCORE.INTRA.VDW.0>
-0.59057

>  <SCORE.INTRA.norm>
-0.12343

>  <SCORE.RESTR>
0.000505245

>  <SCORE.RESTR.CAVITY>
0.000505245

>  <SCORE.RESTR.norm>
2.65918e-05

>  <SCORE.SYSTEM>
0

>  <SCORE.SYSTEM.CONST>
0

>  <SCORE.SYSTEM.DIHEDRAL>
0

>  <SCORE.SYSTEM.SOLV>
0

>  <SCORE.SYSTEM.norm>
0

>  <SCORE.heavy>
19

>  <SCORE.norm>
-0.993376

>  <RMSD>
15.658

$$$$
ligand
 OpenBabel11021811483D
libRbt.so/2013.1/901 2013/11/27
 19 21  0  0  0  0  0  0  0  0999 V2000
   -9.3173    0.9131   -3.8833 C   0  0  0  0  0  0  0  0  0  0  0  0
   -9.9994    2.0294   -3.2927 O   0  0  0  0  0  0  0  0  0  0  0  0
  -10.3159   -0.1843   -4.2580 C   0  0  1  0  0  0  0  0  0  0  0  0
   -9.6688   -1.2252   -5.0148 O   0  0  0  0  0  0  0  0  0  0  0  0
  -10.9053   -0.8329   -3.0179 C   0  0  1  0  0  0  0  0  0  0  0  0
  -12.2442   -0.3789   -2.7835 O   0  0  0  0  0  0  0  0  0  0  0  0
  -10.8900   -2.3222   -3.2856 C   0  0  0  0  0  0  0  0  0  0  0  0
   -9.9626   -2.5222   -4.4754 C   0  0  2  0  0  0  0  0  0  0  0  0
   -5.4594   -4.6809   -6.1047 N   0  0  0  0  0  0  0  0  0  0  0  0
   -6.4722   -4.1304   -6.8269 C   0  0  1  0  0  0  0  0  0  0  0  0
   -6.3766   -4.0994   -8.1774 N   0  0  0  0  0  0  0  0  0  0  0  0
   -7.5789   -3.6154   -6.2251 N   0  0  0  0  0  0  0  0  0  0  0  0
   -7.7259   -3.6235   -4.8724 C   0  0  2  0  0  0  0  0  0  0  0  0
   -6.7280   -4.1713   -4.0867 C   0  0  1  0  0  0  0  0  0  0  0  0
   -5.5247   -4.7282   -4.7558 C   0  0  0  0  0  0  0  0  0  0  0  0
   -4.5925   -5.2292   -4.0879 O   0  0  0  0  0  0  0  0  0  0  0  0
   -7.1058   -4.0530   -2.8020 N   0  0  0  0  0  0  0  0  0  0  0  0
   -8.3174   -3.4497   -2.7888 C   0  0  0  0  0  0  0  0  0  0  0  0
   -8.6952   -3.1888   -4.0536 N   0  0  1  0  0  0  0  0  0  0  0  0
  1  2  1  0  0  0  0
  3  1  1  1  0  0  0
  3  4  1  0  0  0  0
  3  5  1  0  0  0  0
  5  6  1  6  0  0  0
  5  7  1  0  0  0  0
  7  8  1  0  0  0  0
  8  4  1  1  0  0  0
  8 19  1  0  0  0  0
  9 15  1  0  0  0  0
  9 10  1  0  0  0  0
 10 11  1  6  0  0  0
 10 12  1  0  0  0  0
 13 12  1  6  0  0  0
 13 14  1  0  0  0  0
 13 19  1  0  0  0  0
 14 15  1  1  0  0  0
 14 17  1  0  0  0  0
 15 16  2  0  0  0  0
 17 18  1  0  0  0  0
 19 18  1  1  0  0  0
M  END
>  <CHROM.1>
172.09506740,-68.38252101,-8.36282160,-2.52384074,-4.44065275,3.12984631
-0.80736937,1.98276845

>  <Name>
ligand

>  <RI>
0

>  <Rbt.Current_Directory>
/home/itssahil/PROJECTS/Mol_Feturizer/New_Systems/rnas/3SKI

>  <Rbt.Executable>
rbdock ($Id: //depot/dev/client3/rdock/2013.1/src/exe/rbdock.cxx#4 $)

>  <Rbt.Library>
libRbt.so (2013.1, Build901 2013/11/27)

>  <Rbt.Parameter_File>
/export/apps/rDock/src/rDock_2013.1_src/data/scripts/dock_solv.prm

>  <Rbt.Receptor>
prm/blind_docking_100.prm

>  <SCORE>
-21.9419

>  <SCORE.INTER>
-19.7459

>  <SCORE.INTER.CONST>
1

>  <SCORE.INTER.POLAR>
0

>  <SCORE.INTER.ROT>
2

>  <SCORE.INTER.SOLV>
9.22561

>  <SCORE.INTER.VDW>
-21.1725

>  <SCORE.INTER.norm>
-1.03926

>  <SCORE.INTRA>
-2.19601

>  <SCORE.INTRA.DIHEDRAL>
-4.85387

>  <SCORE.INTRA.DIHEDRAL.0>
6.26853

>  <SCORE.INTRA.POLAR>
0

>  <SCORE.INTRA.POLAR.0>
0

>  <SCORE.INTRA.REPUL>
0

>  <SCORE.INTRA.REPUL.0>
0

>  <SCORE.INTRA.SOLV>
-0.0257109

>  <SCORE.INTRA.SOLV.lig_0>
-38.4926

>  <SCORE.INTRA.VDW>
0.243782

>  <SCORE.INTRA.VDW.0>
-0.59057

>  <SCORE.INTRA.norm>
-0.115579

>  <SCORE.RESTR>
0

>  <SCORE.RESTR.CAVITY>
0

>  <SCORE.RESTR.norm>
0

>  <SCORE.SYSTEM>
0

>  <SCORE.SYSTEM.CONST>
0

>  <SCORE.SYSTEM.DIHEDRAL>
0

>  <SCORE.SYSTEM.SOLV>
0

>  <SCORE.SYSTEM.norm>
0

>  <SCORE.heavy>
19

>  <SCORE.norm>
-1.15484

>  <RMSD>
15.664

$$$$
ligand
 OpenBabel11021811483D
libRbt.so/2013.1/901 2013/11/27
 19 21  0  0  0  0  0  0  0  0999 V2000
   -9.3075    0.9159   -3.8903 C   0  0  0  0  0  0  0  0  0  0  0  0
   -9.9711    2.0141   -3.2470 O   0  0  0  0  0  0  0  0  0  0  0  0
  -10.3150   -0.1775   -4.2527 C   0  0  1  0  0  0  0  0  0  0  0  0
   -9.6799   -1.2241   -5.0119 O   0  0  0  0  0  0  0  0  0  0  0  0
  -10.8968   -0.8192   -3.0054 C   0  0  1  0  0  0  0  0  0  0  0  0
  -12.2312   -0.3575   -2.7607 O   0  0  0  0  0  0  0  0  0  0  0  0
  -10.8915   -2.3094   -3.2686 C   0  0  0  0  0  0  0  0  0  0  0  0
   -9.9757   -2.5179   -4.4658 C   0  0  2  0  0  0  0  0  0  0  0  0
   -5.4872   -4.6831   -6.1266 N   0  0  0  0  0  0  0  0  0  0  0  0
   -6.5021   -4.1270   -6.8414 C   0  0  1  0  0  0  0  0  0  0  0  0
   -6.4133   -4.0910   -8.1922 N   0  0  0  0  0  0  0  0  0  0  0  0
   -7.6041   -3.6111   -6.2319 N   0  0  0  0  0  0  0  0  0  0  0  0
   -7.7442   -3.6241   -4.8785 C   0  0  2  0  0  0  0  0  0  0  0  0
   -6.7439   -4.1777   -4.1001 C   0  0  1  0  0  0  0  0  0  0  0  0
   -5.5457   -4.7355   -4.7775 C   0  0  0  0  0  0  0  0  0  0  0  0
   -4.6115   -5.2417   -4.1164 O   0  0  0  0  0  0  0  0  0  0  0  0
   -7.1147   -4.0633   -2.8130 N   0  0  0  0  0  0  0  0  0  0  0  0
   -8.3245   -3.4566   -2.7914 C   0  0  0  0  0  0  0  0  0  0  0  0
   -8.7081   -3.1897   -4.0531 N   0  0  1  0  0  0  0  0  0  0  0  0
  1  2  1  0  0  0  0
  3  1  1  1  0  0  0
  3  4  1  0  0  0  0
  3  5  1  0  0  0  0
  5  6  1  6  0  0  0
  5  7  1  0  0  0  0
  7  8  1  0  0  0  0
  8  4  1  1  0  0  0
  8 19  1  0  0  0  0
  9 15  1  0  0  0  0
  9 10  1  0  0  0  0
 10 11  1  6  0  0  0
 10 12  1  0  0  0  0
 13 12  1  6  0  0  0
 13 14  1  0  0  0  0
 13 19  1  0  0  0  0
 14 15  1  1  0  0  0
 14 17  1  0  0  0  0
 15 16  2  0  0  0  0
 17 18  1  0  0  0  0
 19 18  1  1  0  0  0
M  END
>  <CHROM.1>
174.47383213,-67.91091236,-8.37209192,-2.52293878,-4.44171585,3.12065731
-0.81292796,1.97654812

>  <Name>
ligand

>  <RI>
0

>  <Rbt.Current_Directory>
/home/itssahil/PROJECTS/Mol_Feturizer/New_Systems/rnas/3SKI

>  <Rbt.Executable>
rbdock ($Id: //depot/dev/client3/rdock/2013.1/src/exe/rbdock.cxx#4 $)

>  <Rbt.Library>
libRbt.so (2013.1, Build901 2013/11/27)

>  <Rbt.Parameter_File>
/export/apps/rDock/src/rDock_2013.1_src/data/scripts/dock_solv.prm

>  <Rbt.Receptor>
prm/blind_docking_80.prm

>  <SCORE>
-21.8856

>  <SCORE.INTER>
-19.6563

>  <SCORE.INTER.CONST>
1

>  <SCORE.INTER.POLAR>
0

>  <SCORE.INTER.ROT>
2

>  <SCORE.INTER.SOLV>
9.245

>  <SCORE.INTER.VDW>
-21.1192

>  <SCORE.INTER.norm>
-1.03454

>  <SCORE.INTRA>
-2.22924

>  <SCORE.INTRA.DIHEDRAL>
-4.96571

>  <SCORE.INTRA.DIHEDRAL.0>
6.26853

>  <SCORE.INTRA.POLAR>
0

>  <SCORE.INTRA.POLAR.0>
0

>  <SCORE.INTRA.REPUL>
0

>  <SCORE.INTRA.REPUL.0>
0

>  <SCORE.INTRA.SOLV>
-0.0132132

>  <SCORE.INTRA.SOLV.lig_0>
-38.4926

>  <SCORE.INTRA.VDW>
0.260217

>  <SCORE.INTRA.VDW.0>
-0.59057

>  <SCORE.INTRA.norm>
-0.117329

>  <SCORE.RESTR>
0

>  <SCORE.RESTR.CAVITY>
0

>  <SCORE.RESTR.norm>
0

>  <SCORE.SYSTEM>
0

>  <SCORE.SYSTEM.CONST>
0

>  <SCORE.SYSTEM.DIHEDRAL>
0

>  <SCORE.SYSTEM.SOLV>
0

>  <SCORE.SYSTEM.norm>
0

>  <SCORE.heavy>
19

>  <SCORE.norm>
-1.15187

>  <RMSD>
15.667

$$$$
ligand
 OpenBabel11021811483D
libRbt.so/2013.1/901 2013/11/27
 19 21  0  0  0  0  0  0  0  0999 V2000
    7.2241   -1.3103    5.7923 C   0  0  0  0  0  0  0  0  0  0  0  0
    8.6350   -1.5597    5.7071 O   0  0  0  0  0  0  0  0  0  0  0  0
    6.8876    0.0580    5.1954 C   0  0  1  0  0  0  0  0  0  0  0  0
    7.5378    0.2321    3.9218 O   0  0  0  0  0  0  0  0  0  0  0  0
    5.3942    0.1981    4.9583 C   0  0  1  0  0  0  0  0  0  0  0  0
    4.7886    1.0322    5.9538 O   0  0  0  0  0  0  0  0  0  0  0  0
    5.2519    0.8212    3.5867 C   0  0  0  0  0  0  0  0  0  0  0  0
    6.6112    0.6736    2.9188 C   0  0  2  0  0  0  0  0  0  0  0  0
    4.5156   -0.4990   -1.7531 N   0  0  0  0  0  0  0  0  0  0  0  0
    4.3236    0.5905   -0.9617 C   0  0  1  0  0  0  0  0  0  0  0  0
    3.4761    1.5628   -1.3745 N   0  0  0  0  0  0  0  0  0  0  0  0
    4.9588    0.7236    0.2345 N   0  0  0  0  0  0  0  0  0  0  0  0
    5.8182   -0.2246    0.6967 C   0  0  2  0  0  0  0  0  0  0  0  0
    6.0518   -1.3551   -0.0653 C   0  0  1  0  0  0  0  0  0  0  0  0
    5.3539   -1.4871   -1.3696 C   0  0  0  0  0  0  0  0  0  0  0  0
    5.5369   -2.4885   -2.0974 O   0  0  0  0  0  0  0  0  0  0  0  0
    6.9314   -2.1238    0.6000 N   0  0  0  0  0  0  0  0  0  0  0  0
    7.2340   -1.4876    1.7558 C   0  0  0  0  0  0  0  0  0  0  0  0
    6.5530   -0.3286    1.8140 N   0  0  1  0  0  0  0  0  0  0  0  0
  1  2  1  0  0  0  0
  3  1  1  6  0  0  0
  3  4  1  0  0  0  0
  3  5  1  0  0  0  0
  5  6  1  1  0  0  0
  5  7  1  0  0  0  0
  7  8  1  0  0  0  0
  8  4  1  1  0  0  0
  8 19  1  0  0  0  0
  9 15  1  0  0  0  0
  9 10  1  0  0  0  0
 10 11  1  1  0  0  0
 10 12  1  0  0  0  0
 13 12  1  1  0  0  0
 13 14  1  0  0  0  0
 13 19  1  0  0  0  0
 14 15  1  6  0  0  0
 14 17  1  0  0  0  0
 15 16  2  0  0  0  0
 17 18  1  0  0  0  0
 19 18  1  6  0  0  0
M  END
>  <CHROM.1>
46.95371583,-178.18247042,5.97590150,-0.36838726,1.95817114,-1.16940668,0.79259801
-1.92214521

>  <Name>
ligand

>  <RI>
0

>  <Rbt.Current_Directory>
/home/itssahil/PROJECTS/Mol_Feturizer/New_Systems/rnas/3SKI

>  <Rbt.Executable>
rbdock ($Id: //depot/dev/client3/rdock/2013.1/src/exe/rbdock.cxx#4 $)

>  <Rbt.Library>
libRbt.so (2013.1, Build901 2013/11/27)

>  <Rbt.Parameter_File>
/export/apps/rDock/src/rDock_2013.1_src/data/scripts/dock_solv.prm

>  <Rbt.Receptor>
prm/blind_docking_20.prm

>  <SCORE>
-14.8964

>  <SCORE.INTER>
-12.2083

>  <SCORE.INTER.CONST>
1

>  <SCORE.INTER.POLAR>
0

>  <SCORE.INTER.ROT>
2

>  <SCORE.INTER.SOLV>
7.43668

>  <SCORE.INTER.VDW>
-15.5511

>  <SCORE.INTER.norm>
-0.642543

>  <SCORE.INTRA>
-2.68819

>  <SCORE.INTRA.DIHEDRAL>
-4.47673

>  <SCORE.INTRA.DIHEDRAL.0>
6.26853

>  <SCORE.INTRA.POLAR>
0

>  <SCORE.INTRA.POLAR.0>
0

>  <SCORE.INTRA.REPUL>
0

>  <SCORE.INTRA.REPUL.0>
0

>  <SCORE.INTRA.SOLV>
-0.190803

>  <SCORE.INTRA.SOLV.lig_0>
-38.4926

>  <SCORE.INTRA.VDW>
-0.354424

>  <SCORE.INTRA.VDW.0>
-0.59057

>  <SCORE.INTRA.norm>
-0.141484

>  <SCORE.RESTR>
8.52092e-05

>  <SCORE.RESTR.CAVITY>
8.52092e-05

>  <SCORE.RESTR.norm>
4.4847e-06

>  <SCORE.SYSTEM>
0

>  <SCORE.SYSTEM.CONST>
0

>  <SCORE.SYSTEM.DIHEDRAL>
0

>  <SCORE.SYSTEM.SOLV>
0

>  <SCORE.SYSTEM.norm>
0

>  <SCORE.heavy>
19

>  <SCORE.norm>
-0.784022

>  <RMSD>
15.674

$$$$
ligand
 OpenBabel11021811483D
libRbt.so/2013.1/901 2013/11/27
 19 21  0  0  0  0  0  0  0  0999 V2000
   -9.1897    0.8900   -3.9958 C   0  0  0  0  0  0  0  0  0  0  0  0
   -9.8158    1.9978   -3.3318 O   0  0  0  0  0  0  0  0  0  0  0  0
  -10.2219   -0.1946   -4.3122 C   0  0  1  0  0  0  0  0  0  0  0  0
   -9.6175   -1.2727   -5.0521 O   0  0  0  0  0  0  0  0  0  0  0  0
  -10.7947   -0.7914   -3.0389 C   0  0  1  0  0  0  0  0  0  0  0  0
  -12.1167   -0.2994   -2.7863 O   0  0  0  0  0  0  0  0  0  0  0  0
  -10.8198   -2.2881   -3.2610 C   0  0  0  0  0  0  0  0  0  0  0  0
   -9.9271   -2.5456   -4.4661 C   0  0  2  0  0  0  0  0  0  0  0  0
   -5.4442   -4.7203   -6.1296 N   0  0  0  0  0  0  0  0  0  0  0  0
   -6.4530   -4.1515   -6.8431 C   0  0  1  0  0  0  0  0  0  0  0  0
   -6.3585   -4.1030   -8.1931 N   0  0  0  0  0  0  0  0  0  0  0  0
   -7.5546   -3.6353   -6.2331 N   0  0  0  0  0  0  0  0  0  0  0  0
   -7.7003   -3.6605   -4.8805 C   0  0  2  0  0  0  0  0  0  0  0  0
   -6.7063   -4.2273   -4.1034 C   0  0  1  0  0  0  0  0  0  0  0  0
   -5.5085   -4.7853   -4.7814 C   0  0  0  0  0  0  0  0  0  0  0  0
   -4.5799   -5.3032   -4.1214 O   0  0  0  0  0  0  0  0  0  0  0  0
   -7.0817   -4.1232   -2.8168 N   0  0  0  0  0  0  0  0  0  0  0  0
   -8.2881   -3.5098   -2.7941 C   0  0  0  0  0  0  0  0  0  0  0  0
   -8.6650   -3.2286   -4.0548 N   0  0  1  0  0  0  0  0  0  0  0  0
  1  2  1  0  0  0  0
  3  1  1  1  0  0  0
  3  4  1  0  0  0  0
  3  5  1  0  0  0  0
  5  6  1  6  0  0  0
  5  7  1  0  0  0  0
  7  8  1  0  0  0  0
  8  4  1  1  0  0  0
  8 19  1  0  0  0  0
  9 15  1  0  0  0  0
  9 10  1  0  0  0  0
 10 11  1  6  0  0  0
 10 12  1  0  0  0  0
 13 12  1  6  0  0  0
 13 14  1  0  0  0  0
 13 19  1  0  0  0  0
 14 15  1  1  0  0  0
 14 17  1  0  0  0  0
 15 16  2  0  0  0  0
 17 18  1  0  0  0  0
 19 18  1  1  0  0  0
M  END
>  <CHROM.1>
176.43236648,-65.40445444,-8.30613119,-2.54726939,-4.46233688,-3.12110929
-0.82085925,2.01962499

>  <Name>
ligand

>  <RI>
0

>  <Rbt.Current_Directory>
/home/itssahil/PROJECTS/Mol_Feturizer/New_Systems/rnas/3SKI

>  <Rbt.Executable>
rbdock ($Id: //depot/dev/client3/rdock/2013.1/src/exe/rbdock.cxx#4 $)

>  <Rbt.Library>
libRbt.so (2013.1, Build901 2013/11/27)

>  <Rbt.Parameter_File>
/export/apps/rDock/src/rDock_2013.1_src/data/scripts/dock_solv.prm

>  <Rbt.Receptor>
prm/blind_docking_60.prm

>  <SCORE>
-21.9008

>  <SCORE.INTER>
-19.6736

>  <SCORE.INTER.CONST>
1

>  <SCORE.INTER.POLAR>
0

>  <SCORE.INTER.ROT>
2

>  <SCORE.INTER.SOLV>
9.24532

>  <SCORE.INTER.VDW>
-21.1309

>  <SCORE.INTER.norm>
-1.03545

>  <SCORE.INTRA>
-2.22713

>  <SCORE.INTRA.DIHEDRAL>
-5.02649

>  <SCORE.INTRA.DIHEDRAL.0>
6.26853

>  <SCORE.INTRA.POLAR>
0

>  <SCORE.INTRA.POLAR.0>
0

>  <SCORE.INTRA.REPUL>
0

>  <SCORE.INTRA.REPUL.0>
0

>  <SCORE.INTRA.SOLV>
-0.00161931

>  <SCORE.INTRA.SOLV.lig_0>
-38.4926

>  <SCORE.INTRA.VDW>
0.286925

>  <SCORE.INTRA.VDW.0>
-0.59057

>  <SCORE.INTRA.norm>
-0.117217

>  <SCORE.RESTR>
0

>  <SCORE.RESTR.CAVITY>
0

>  <SCORE.RESTR.norm>
0

>  <SCORE.SYSTEM>
0

>  <SCORE.SYSTEM.CONST>
0

>  <SCORE.SYSTEM.DIHEDRAL>
0

>  <SCORE.SYSTEM.SOLV>
0

>  <SCORE.SYSTEM.norm>
0

>  <SCORE.heavy>
19

>  <SCORE.norm>
-1.15267

>  <RMSD>
15.679

$$$$
ligand
 OpenBabel11021811483D
libRbt.so/2013.1/901 2013/11/27
 19 21  0  0  0  0  0  0  0  0999 V2000
   -9.1209    0.9232   -4.0666 C   0  0  0  0  0  0  0  0  0  0  0  0
   -9.7134    2.0724   -3.4434 O   0  0  0  0  0  0  0  0  0  0  0  0
  -10.1860   -0.1387   -4.3490 C   0  0  1  0  0  0  0  0  0  0  0  0
   -9.6210   -1.2461   -5.0767 O   0  0  0  0  0  0  0  0  0  0  0  0
  -10.7569   -0.6966   -3.0573 C   0  0  1  0  0  0  0  0  0  0  0  0
  -12.0617   -0.1646   -2.7962 O   0  0  0  0  0  0  0  0  0  0  0  0
  -10.8251   -2.1959   -3.2511 C   0  0  0  0  0  0  0  0  0  0  0  0
   -9.9563   -2.4993   -4.4631 C   0  0  2  0  0  0  0  0  0  0  0  0
   -5.4576   -4.6398   -6.1283 N   0  0  0  0  0  0  0  0  0  0  0  0
   -6.4483   -4.0344   -6.8370 C   0  0  1  0  0  0  0  0  0  0  0  0
   -6.3272   -3.9315   -8.1819 N   0  0  0  0  0  0  0  0  0  0  0  0
   -7.5578   -3.5347   -6.2276 N   0  0  0  0  0  0  0  0  0  0  0  0
   -7.7299   -3.6139   -4.8801 C   0  0  2  0  0  0  0  0  0  0  0  0
   -6.7552   -4.2198   -4.1081 C   0  0  1  0  0  0  0  0  0  0  0  0
   -5.5486   -4.7592   -4.7853 C   0  0  0  0  0  0  0  0  0  0  0  0
   -4.6367   -5.3109   -4.1295 O   0  0  0  0  0  0  0  0  0  0  0  0
   -7.1549   -4.1653   -2.8257 N   0  0  0  0  0  0  0  0  0  0  0  0
   -8.3571   -3.5438   -2.8010 C   0  0  0  0  0  0  0  0  0  0  0  0
   -8.7074   -3.2084   -4.0560 N   0  0  1  0  0  0  0  0  0  0  0  0
  1  2  1  0  0  0  0
  3  1  1  1  0  0  0
  3  4  1  0  0  0  0
  3  5  1  0  0  0  0
  5  6  1  6  0  0  0
  5  7  1  0  0  0  0
  7  8  1  0  0  0  0
  8  4  1  1  0  0  0
  8 19  1  0  0  0  0
  9 15  1  0  0  0  0
  9 10  1  0  0  0  0
 10 11  1  6  0  0  0
 10 12  1  0  0  0  0
 13 12  1  6  0  0  0
 13 14  1  0  0  0  0
 13 19  1  0  0  0  0
 14 15  1  1  0  0  0
 14 17  1  0  0  0  0
 15 16  2  0  0  0  0
 17 18  1  0  0  0  0
 19 18  1  1  0  0  0
M  END
>  <CHROM.1>
175.08482459,-61.36573007,-8.30835901,-2.49149334,-4.47764212,-3.02464883
-0.82065280,2.13819558

>  <Name>
ligand

>  <RI>
0

>  <Rbt.Current_Directory>
/home/itssahil/PROJECTS/Mol_Feturizer/New_Systems/rnas/3SKI

>  <Rbt.Executable>
rbdock ($Id: //depot/dev/client3/rdock/2013.1/src/exe/rbdock.cxx#4 $)

>  <Rbt.Library>
libRbt.so (2013.1, Build901 2013/11/27)

>  <Rbt.Parameter_File>
/export/apps/rDock/src/rDock_2013.1_src/data/scripts/dock_solv.prm

>  <Rbt.Receptor>
prm/blind_docking_80.prm

>  <SCORE>
-21.7895

>  <SCORE.INTER>
-19.5844

>  <SCORE.INTER.CONST>
1

>  <SCORE.INTER.POLAR>
0

>  <SCORE.INTER.ROT>
2

>  <SCORE.INTER.SOLV>
8.99465

>  <SCORE.INTER.VDW>
-20.9878

>  <SCORE.INTER.norm>
-1.03076

>  <SCORE.INTRA>
-2.20509

>  <SCORE.INTRA.DIHEDRAL>
-4.98212

>  <SCORE.INTRA.DIHEDRAL.0>
6.26853

>  <SCORE.INTRA.POLAR>
0

>  <SCORE.INTRA.POLAR.0>
0

>  <SCORE.INTRA.REPUL>
0

>  <SCORE.INTRA.REPUL.0>
0

>  <SCORE.INTRA.SOLV>
-0.00576772

>  <SCORE.INTRA.SOLV.lig_0>
-38.4926

>  <SCORE.INTRA.VDW>
0.288855

>  <SCORE.INTRA.VDW.0>
-0.59057

>  <SCORE.INTRA.norm>
-0.116057

>  <SCORE.RESTR>
0

>  <SCORE.RESTR.CAVITY>
0

>  <SCORE.RESTR.norm>
0

>  <SCORE.SYSTEM>
0

>  <SCORE.SYSTEM.CONST>
0

>  <SCORE.SYSTEM.DIHEDRAL>
0

>  <SCORE.SYSTEM.SOLV>
0

>  <SCORE.SYSTEM.norm>
0

>  <SCORE.heavy>
19

>  <SCORE.norm>
-1.14682

>  <RMSD>
15.698

$$$$
ligand
 OpenBabel11021811483D
libRbt.so/2013.1/901 2013/11/27
 19 21  0  0  0  0  0  0  0  0999 V2000
  -10.0594    1.3225   -3.4760 C   0  0  0  0  0  0  0  0  0  0  0  0
   -9.4664    2.0380   -4.5698 O   0  0  0  0  0  0  0  0  0  0  0  0
  -11.0561    0.2842   -3.9959 C   0  0  1  0  0  0  0  0  0  0  0  0
  -10.3878   -0.7035   -4.8039 O   0  0  0  0  0  0  0  0  0  0  0  0
  -11.7244   -0.4534   -2.8490 C   0  0  1  0  0  0  0  0  0  0  0  0
  -13.0654    0.0099   -2.6478 O   0  0  0  0  0  0  0  0  0  0  0  0
  -11.7219   -1.9146   -3.2425 C   0  0  0  0  0  0  0  0  0  0  0  0
  -10.7347   -2.0345   -4.3942 C   0  0  2  0  0  0  0  0  0  0  0  0
   -6.0869   -3.9506   -5.9171 N   0  0  0  0  0  0  0  0  0  0  0  0
   -7.0354   -3.2930   -6.6369 C   0  0  1  0  0  0  0  0  0  0  0  0
   -6.8196   -3.0613   -7.9536 N   0  0  0  0  0  0  0  0  0  0  0  0
   -8.1955   -2.8675   -6.0666 N   0  0  0  0  0  0  0  0  0  0  0  0
   -8.4628   -3.0765   -4.7489 C   0  0  2  0  0  0  0  0  0  0  0  0
   -7.5347   -3.7409   -3.9675 C   0  0  1  0  0  0  0  0  0  0  0  0
   -6.2721   -4.1983   -4.6016 C   0  0  0  0  0  0  0  0  0  0  0  0
   -5.3994   -4.7985   -3.9351 O   0  0  0  0  0  0  0  0  0  0  0  0
   -8.0268   -3.8135   -2.7186 N   0  0  0  0  0  0  0  0  0  0  0  0
   -9.2395   -3.2122   -2.7242 C   0  0  0  0  0  0  0  0  0  0  0  0
   -9.5048   -2.7634   -3.9646 N   0  0  1  0  0  0  0  0  0  0  0  0
  1  2  1  0  0  0  0
  3  1  1  1  0  0  0
  3  4  1  0  0  0  0
  3  5  1  0  0  0  0
  5  6  1  6  0  0  0
  5  7  1  0  0  0  0
  7  8  1  0  0  0  0
  8  4  1  1  0  0  0
  8 19  1  0  0  0  0
  9 15  1  0  0  0  0
  9 10  1  0  0  0  0
 10 11  1  6  0  0  0
 10 12  1  0  0  0  0
 13 12  1  6  0  0  0
 13 14  1  0  0  0  0
 13 19  1  0  0  0  0
 14 15  1  1  0  0  0
 14 17  1  0  0  0  0
 15 16  2  0  0  0  0
 17 18  1  0  0  0  0
 19 18  1  1  0  0  0
M  END
>  <CHROM.1>
62.81203368,-63.96839217,-9.03160523,-2.04137586,-4.36882608,-2.84384185
-0.69842604,2.43991277

>  <Name>
ligand

>  <RI>
0

>  <Rbt.Current_Directory>
/home/itssahil/PROJECTS/Mol_Feturizer/New_Systems/rnas/3SKI

>  <Rbt.Executable>
rbdock ($Id: //depot/dev/client3/rdock/2013.1/src/exe/rbdock.cxx#4 $)

>  <Rbt.Library>
libRbt.so (2013.1, Build901 2013/11/27)

>  <Rbt.Parameter_File>
/export/apps/rDock/src/rDock_2013.1_src/data/scripts/dock_solv.prm

>  <Rbt.Receptor>
prm/blind_docking_20.prm

>  <SCORE>
-19.3107

>  <SCORE.INTER>
-16.9382

>  <SCORE.INTER.CONST>
1

>  <SCORE.INTER.POLAR>
0

>  <SCORE.INTER.ROT>
2

>  <SCORE.INTER.SOLV>
7.98576

>  <SCORE.INTER.VDW>
-18.8874

>  <SCORE.INTER.norm>
-0.891486

>  <SCORE.INTRA>
-2.37308

>  <SCORE.INTRA.DIHEDRAL>
-5.04021

>  <SCORE.INTRA.DIHEDRAL.0>
6.26853

>  <SCORE.INTRA.POLAR>
0

>  <SCORE.INTRA.POLAR.0>
0

>  <SCORE.INTRA.REPUL>
0

>  <SCORE.INTRA.REPUL.0>
0

>  <SCORE.INTRA.SOLV>
-0.220059

>  <SCORE.INTRA.SOLV.lig_0>
-38.4926

>  <SCORE.INTRA.VDW>
0.257051

>  <SCORE.INTRA.VDW.0>
-0.59057

>  <SCORE.INTRA.norm>
-0.124899

>  <SCORE.RESTR>
0.000620804

>  <SCORE.RESTR.CAVITY>
0.000620804

>  <SCORE.RESTR.norm>
3.26739e-05

>  <SCORE.SYSTEM>
0

>  <SCORE.SYSTEM.CONST>
0

>  <SCORE.SYSTEM.DIHEDRAL>
0

>  <SCORE.SYSTEM.SOLV>
0

>  <SCORE.SYSTEM.norm>
0

>  <SCORE.heavy>
19

>  <SCORE.norm>
-1.01635

>  <RMSD>
15.703

$$$$
ligand
 OpenBabel11021811483D
libRbt.so/2013.1/901 2013/11/27
 19 21  0  0  0  0  0  0  0  0999 V2000
   -8.7755   -2.9134   -3.3822 C   0  0  0  0  0  0  0  0  0  0  0  0
   -7.7091   -3.8733   -3.3425 O   0  0  0  0  0  0  0  0  0  0  0  0
   -9.0852   -2.5202   -4.8284 C   0  0  1  0  0  0  0  0  0  0  0  0
  -10.1954   -1.6038   -4.8805 O   0  0  0  0  0  0  0  0  0  0  0  0
   -7.8989   -1.8232   -5.4708 C   0  0  1  0  0  0  0  0  0  0  0  0
   -7.2126   -2.6979   -6.3749 O   0  0  0  0  0  0  0  0  0  0  0  0
   -8.4721   -0.6363   -6.2142 C   0  0  0  0  0  0  0  0  0  0  0  0
   -9.8858   -0.4540   -5.6816 C   0  0  2  0  0  0  0  0  0  0  0  0
   -7.2229    3.5103   -3.4937 N   0  0  0  0  0  0  0  0  0  0  0  0
   -6.7737    2.4719   -4.2490 C   0  0  1  0  0  0  0  0  0  0  0  0
   -5.4500    2.3786   -4.5190 N   0  0  0  0  0  0  0  0  0  0  0  0
   -7.6214    1.5245   -4.7346 N   0  0  0  0  0  0  0  0  0  0  0  0
   -8.9593    1.5701   -4.4908 C   0  0  2  0  0  0  0  0  0  0  0  0
   -9.4731    2.6031   -3.7278 C   0  0  1  0  0  0  0  0  0  0  0  0
   -8.5376    3.6315   -3.2055 C   0  0  0  0  0  0  0  0  0  0  0  0
   -8.9550    4.5883   -2.5154 O   0  0  0  0  0  0  0  0  0  0  0  0
  -10.8028    2.4259   -3.6394 N   0  0  0  0  0  0  0  0  0  0  0  0
  -11.1093    1.3016   -4.3281 C   0  0  0  0  0  0  0  0  0  0  0  0
   -9.9828    0.7797   -4.8467 N   0  0  1  0  0  0  0  0  0  0  0  0
  1  2  1  0  0  0  0
  3  1  1  1  0  0  0
  3  4  1  0  0  0  0
  3  5  1  0  0  0  0
  5  6  1  6  0  0  0
  5  7  1  0  0  0  0
  7  8  1  0  0  0  0
  8  4  1  1  0  0  0
  8 19  1  0  0  0  0
  9 15  1  0  0  0  0
  9 10  1  0  0  0  0
 10 11  1  1  0  0  0
 10 12  1  0  0  0  0
 13 12  1  1  0  0  0
 13 14  1  0  0  0  0
 13 19  1  0  0  0  0
 14 15  1  6  0  0  0
 14 17  1  0  0  0  0
 15 16  2  0  0  0  0
 17 18  1  0  0  0  0
 19 18  1  6  0  0  0
M  END
>  <CHROM.1>
177.35001774,112.48335038,-8.61803772,0.45241075,-4.41853509,1.56700476,-0.09818309
-2.92218187

>  <Name>
ligand

>  <RI>
0

>  <Rbt.Current_Directory>
/home/itssahil/PROJECTS/Mol_Feturizer/New_Systems/rnas/3SKI

>  <Rbt.Executable>
rbdock ($Id: //depot/dev/client3/rdock/2013.1/src/exe/rbdock.cxx#4 $)

>  <Rbt.Library>
libRbt.so (2013.1, Build901 2013/11/27)

>  <Rbt.Parameter_File>
/export/apps/rDock/src/rDock_2013.1_src/data/scripts/dock_solv.prm

>  <Rbt.Receptor>
prm/blind_docking_20.prm

>  <SCORE>
-14.6274

>  <SCORE.INTER>
-12.9515

>  <SCORE.INTER.CONST>
1

>  <SCORE.INTER.POLAR>
0

>  <SCORE.INTER.ROT>
2

>  <SCORE.INTER.SOLV>
9.13664

>  <SCORE.INTER.VDW>
-16.6132

>  <SCORE.INTER.norm>
-0.681659

>  <SCORE.INTRA>
-1.6759

>  <SCORE.INTRA.DIHEDRAL>
-5.0338

>  <SCORE.INTRA.DIHEDRAL.0>
6.26853

>  <SCORE.INTRA.POLAR>
0

>  <SCORE.INTRA.POLAR.0>
0

>  <SCORE.INTRA.REPUL>
0

>  <SCORE.INTRA.REPUL.0>
0

>  <SCORE.INTRA.SOLV>
0.0992691

>  <SCORE.INTRA.SOLV.lig_0>
-38.4926

>  <SCORE.INTRA.VDW>
0.791366

>  <SCORE.INTRA.VDW.0>
-0.59057

>  <SCORE.INTRA.norm>
-0.0882051

>  <SCORE.RESTR>
0

>  <SCORE.RESTR.CAVITY>
0

>  <SCORE.RESTR.norm>
0

>  <SCORE.SYSTEM>
0

>  <SCORE.SYSTEM.CONST>
0

>  <SCORE.SYSTEM.DIHEDRAL>
0

>  <SCORE.SYSTEM.SOLV>
0

>  <SCORE.SYSTEM.norm>
0

>  <SCORE.heavy>
19

>  <SCORE.norm>
-0.769864

>  <RMSD>
15.716

$$$$
ligand
 OpenBabel11021811483D
libRbt.so/2013.1/901 2013/11/27
 19 21  0  0  0  0  0  0  0  0999 V2000
   -9.2037    0.8815   -3.9001 C   0  0  0  0  0  0  0  0  0  0  0  0
   -8.6606    1.4667   -5.0929 O   0  0  0  0  0  0  0  0  0  0  0  0
  -10.2262   -0.2004   -4.2550 C   0  0  1  0  0  0  0  0  0  0  0  0
   -9.6064   -1.2594   -5.0095 O   0  0  0  0  0  0  0  0  0  0  0  0
  -10.8143   -0.8276   -3.0033 C   0  0  1  0  0  0  0  0  0  0  0  0
  -12.1420   -0.3470   -2.7589 O   0  0  0  0  0  0  0  0  0  0  0  0
  -10.8291   -2.3191   -3.2584 C   0  0  0  0  0  0  0  0  0  0  0  0
   -9.9183   -2.5462   -4.4560 C   0  0  2  0  0  0  0  0  0  0  0  0
   -5.4296   -4.7179   -6.1078 N   0  0  0  0  0  0  0  0  0  0  0  0
   -6.4342   -4.1446   -6.8235 C   0  0  1  0  0  0  0  0  0  0  0  0
   -6.3330   -4.0898   -8.1728 N   0  0  0  0  0  0  0  0  0  0  0  0
   -7.5383   -3.6301   -6.2165 N   0  0  0  0  0  0  0  0  0  0  0  0
   -7.6906   -3.6615   -4.8647 C   0  0  2  0  0  0  0  0  0  0  0  0
   -6.7010   -4.2331   -4.0855 C   0  0  1  0  0  0  0  0  0  0  0  0
   -5.5006   -4.7892   -4.7602 C   0  0  0  0  0  0  0  0  0  0  0  0
   -4.5758   -5.3113   -4.0981 O   0  0  0  0  0  0  0  0  0  0  0  0
   -7.0827   -4.1347   -2.8002 N   0  0  0  0  0  0  0  0  0  0  0  0
   -8.2886   -3.5201   -2.7806 C   0  0  0  0  0  0  0  0  0  0  0  0
   -8.6590   -3.2325   -4.0417 N   0  0  1  0  0  0  0  0  0  0  0  0
  1  2  1  0  0  0  0
  3  1  1  1  0  0  0
  3  4  1  0  0  0  0
  3  5  1  0  0  0  0
  5  6  1  6  0  0  0
  5  7  1  0  0  0  0
  7  8  1  0  0  0  0
  8  4  1  1  0  0  0
  8 19  1  0  0  0  0
  9 15  1  0  0  0  0
  9 10  1  0  0  0  0
 10 11  1  6  0  0  0
 10 12  1  0  0  0  0
 13 12  1  6  0  0  0
 13 14  1  0  0  0  0
 13 19  1  0  0  0  0
 14 15  1  1  0  0  0
 14 17  1  0  0  0  0
 15 16  2  0  0  0  0
 17 18  1  0  0  0  0
 19 18  1  1  0  0  0
M  END
>  <CHROM.1>
61.25845382,-66.57020201,-8.23277707,-2.58699941,-4.54530500,-2.92548851
-0.76522636,2.26889224

>  <Name>
ligand

>  <RI>
0

>  <Rbt.Current_Directory>
/home/itssahil/PROJECTS/Mol_Feturizer/New_Systems/rnas/3SKI

>  <Rbt.Executable>
rbdock ($Id: //depot/dev/client3/rdock/2013.1/src/exe/rbdock.cxx#4 $)

>  <Rbt.Library>
libRbt.so (2013.1, Build901 2013/11/27)

>  <Rbt.Parameter_File>
/export/apps/rDock/src/rDock_2013.1_src/data/scripts/dock_solv.prm

>  <Rbt.Receptor>
prm/blind_docking_100.prm

>  <SCORE>
-21.9683

>  <SCORE.INTER>
-19.5949

>  <SCORE.INTER.CONST>
1

>  <SCORE.INTER.POLAR>
0

>  <SCORE.INTER.ROT>
2

>  <SCORE.INTER.SOLV>
9.01808

>  <SCORE.INTER.VDW>
-21.0026

>  <SCORE.INTER.norm>
-1.03131

>  <SCORE.INTRA>
-2.37339

>  <SCORE.INTRA.DIHEDRAL>
-5.06601

>  <SCORE.INTRA.DIHEDRAL.0>
6.26853

>  <SCORE.INTRA.POLAR>
0

>  <SCORE.INTRA.POLAR.0>
0

>  <SCORE.INTRA.REPUL>
0

>  <SCORE.INTRA.REPUL.0>
0

>  <SCORE.INTRA.SOLV>
-0.215912

>  <SCORE.INTRA.SOLV.lig_0>
-38.4926

>  <SCORE.INTRA.VDW>
0.267569

>  <SCORE.INTRA.VDW.0>
-0.59057

>  <SCORE.INTRA.norm>
-0.124915

>  <SCORE.RESTR>
0

>  <SCORE.RESTR.CAVITY>
0

>  <SCORE.RESTR.norm>
0

>  <SCORE.SYSTEM>
0

>  <SCORE.SYSTEM.CONST>
0

>  <SCORE.SYSTEM.DIHEDRAL>
0

>  <SCORE.SYSTEM.SOLV>
0

>  <SCORE.SYSTEM.norm>
0

>  <SCORE.heavy>
19

>  <SCORE.norm>
-1.15623

>  <RMSD>
15.726

$$$$
ligand
 OpenBabel11021811483D
libRbt.so/2013.1/901 2013/11/27
 19 21  0  0  0  0  0  0  0  0999 V2000
   -9.2236    0.8780   -3.9161 C   0  0  0  0  0  0  0  0  0  0  0  0
   -8.7088    1.4815   -5.1124 O   0  0  0  0  0  0  0  0  0  0  0  0
  -10.2429   -0.2092   -4.2636 C   0  0  1  0  0  0  0  0  0  0  0  0
   -9.6208   -1.2696   -5.0143 O   0  0  0  0  0  0  0  0  0  0  0  0
  -10.8261   -0.8324   -3.0076 C   0  0  1  0  0  0  0  0  0  0  0  0
  -12.1551   -0.3555   -2.7628 O   0  0  0  0  0  0  0  0  0  0  0  0
  -10.8361   -2.3252   -3.2555 C   0  0  0  0  0  0  0  0  0  0  0  0
   -9.9269   -2.5548   -4.4539 C   0  0  2  0  0  0  0  0  0  0  0  0
   -5.4325   -4.7156   -6.1044 N   0  0  0  0  0  0  0  0  0  0  0  0
   -6.4405   -4.1491   -6.8207 C   0  0  1  0  0  0  0  0  0  0  0  0
   -6.3417   -4.0993   -8.1704 N   0  0  0  0  0  0  0  0  0  0  0  0
   -7.5456   -3.6365   -6.2139 N   0  0  0  0  0  0  0  0  0  0  0  0
   -7.6956   -3.6631   -4.8618 C   0  0  2  0  0  0  0  0  0  0  0  0
   -6.7025   -4.2277   -4.0820 C   0  0  1  0  0  0  0  0  0  0  0  0
   -5.5010   -4.7818   -4.7564 C   0  0  0  0  0  0  0  0  0  0  0  0
   -4.5731   -5.2976   -4.0938 O   0  0  0  0  0  0  0  0  0  0  0  0
   -7.0825   -4.1256   -2.7965 N   0  0  0  0  0  0  0  0  0  0  0  0
   -8.2907   -3.5157   -2.7773 C   0  0  0  0  0  0  0  0  0  0  0  0
   -8.6643   -3.2345   -4.0389 N   0  0  1  0  0  0  0  0  0  0  0  0
  1  2  1  0  0  0  0
  3  1  1  1  0  0  0
  3  4  1  0  0  0  0
  3  5  1  0  0  0  0
  5  6  1  6  0  0  0
  5  7  1  0  0  0  0
  7  8  1  0  0  0  0
  8  4  1  1  0  0  0
  8 19  1  0  0  0  0
  9 15  1  0  0  0  0
  9 10  1  0  0  0  0
 10 11  1  6  0  0  0
 10 12  1  0  0  0  0
 13 12  1  6  0  0  0
 13 14  1  0  0  0  0
 13 19  1  0  0  0  0
 14 15  1  1  0  0  0
 14 17  1  0  0  0  0
 15 16  2  0  0  0  0
 17 18  1  0  0  0  0
 19 18  1  1  0  0  0
M  END
>  <CHROM.1>
62.63670949,-66.51174875,-8.24254927,-2.58787569,-4.54645611,-2.92929701
-0.76361966,2.26142791

>  <Name>
ligand

>  <RI>
0

>  <Rbt.Current_Directory>
/home/itssahil/PROJECTS/Mol_Feturizer/New_Systems/rnas/3SKI

>  <Rbt.Executable>
rbdock ($Id: //depot/dev/client3/rdock/2013.1/src/exe/rbdock.cxx#4 $)

>  <Rbt.Library>
libRbt.so (2013.1, Build901 2013/11/27)

>  <Rbt.Parameter_File>
/export/apps/rDock/src/rDock_2013.1_src/data/scripts/dock_solv.prm

>  <Rbt.Receptor>
prm/blind_docking_60.prm

>  <SCORE>
-21.9416

>  <SCORE.INTER>
-19.5544

>  <SCORE.INTER.CONST>
1

>  <SCORE.INTER.POLAR>
0

>  <SCORE.INTER.ROT>
2

>  <SCORE.INTER.SOLV>
9.05906

>  <SCORE.INTER.VDW>
-20.9893

>  <SCORE.INTER.norm>
-1.02918

>  <SCORE.INTRA>
-2.3872

>  <SCORE.INTRA.DIHEDRAL>
-5.04609

>  <SCORE.INTRA.DIHEDRAL.0>
6.26853

>  <SCORE.INTRA.POLAR>
0

>  <SCORE.INTRA.POLAR.0>
0

>  <SCORE.INTRA.REPUL>
0

>  <SCORE.INTRA.REPUL.0>
0

>  <SCORE.INTRA.SOLV>
-0.22102

>  <SCORE.INTRA.SOLV.lig_0>
-38.4926

>  <SCORE.INTRA.VDW>
0.246356

>  <SCORE.INTRA.VDW.0>
-0.59057

>  <SCORE.INTRA.norm>
-0.125642

>  <SCORE.RESTR>
0

>  <SCORE.RESTR.CAVITY>
0

>  <SCORE.RESTR.norm>
0

>  <SCORE.SYSTEM>
0

>  <SCORE.SYSTEM.CONST>
0

>  <SCORE.SYSTEM.DIHEDRAL>
0

>  <SCORE.SYSTEM.SOLV>
0

>  <SCORE.SYSTEM.norm>
0

>  <SCORE.heavy>
19

>  <SCORE.norm>
-1.15482

>  <RMSD>
15.728

$$$$
ligand
 OpenBabel11021811483D
libRbt.so/2013.1/901 2013/11/27
 19 21  0  0  0  0  0  0  0  0999 V2000
   -9.1065    0.8401   -4.3017 C   0  0  0  0  0  0  0  0  0  0  0  0
   -9.6876    2.0231   -3.7334 O   0  0  0  0  0  0  0  0  0  0  0  0
  -10.1694   -0.2477   -4.4708 C   0  0  1  0  0  0  0  0  0  0  0  0
   -9.6218   -1.3938   -5.1503 O   0  0  0  0  0  0  0  0  0  0  0  0
  -10.6788   -0.7276   -3.1231 C   0  0  1  0  0  0  0  0  0  0  0  0
  -11.9779   -0.1924   -2.8410 O   0  0  0  0  0  0  0  0  0  0  0  0
  -10.7366   -2.2367   -3.2186 C   0  0  0  0  0  0  0  0  0  0  0  0
   -9.9158   -2.6085   -4.4448 C   0  0  2  0  0  0  0  0  0  0  0  0
   -5.4327   -4.7444   -6.1574 N   0  0  0  0  0  0  0  0  0  0  0  0
   -6.4556   -4.1871   -6.8599 C   0  0  1  0  0  0  0  0  0  0  0  0
   -6.3779   -4.1412   -8.2112 N   0  0  0  0  0  0  0  0  0  0  0  0
   -7.5546   -3.6799   -6.2379 N   0  0  0  0  0  0  0  0  0  0  0  0
   -7.6836   -3.7030   -4.8835 C   0  0  2  0  0  0  0  0  0  0  0  0
   -6.6747   -4.2583   -4.1172 C   0  0  1  0  0  0  0  0  0  0  0  0
   -5.4800   -4.8065   -4.8083 C   0  0  0  0  0  0  0  0  0  0  0  0
   -4.5385   -5.3138   -4.1584 O   0  0  0  0  0  0  0  0  0  0  0  0
   -7.0355   -4.1544   -2.8264 N   0  0  0  0  0  0  0  0  0  0  0  0
   -8.2474   -3.5526   -2.7905 C   0  0  0  0  0  0  0  0  0  0  0  0
   -8.6423   -3.2782   -4.0472 N   0  0  1  0  0  0  0  0  0  0  0  0
  1  2  1  0  0  0  0
  3  1  1  1  0  0  0
  3  4  1  0  0  0  0
  3  5  1  0  0  0  0
  5  6  1  6  0  0  0
  5  7  1  0  0  0  0
  7  8  1  0  0  0  0
  8  4  1  1  0  0  0
  8 19  1  0  0  0  0
  9 15  1  0  0  0  0
  9 10  1  0  0  0  0
 10 11  1  6  0  0  0
 10 12  1  0  0  0  0
 13 12  1  6  0  0  0
 13 14  1  0  0  0  0
 13 19  1  0  0  0  0
 14 15  1  1  0  0  0
 14 17  1  0  0  0  0
 15 16  2  0  0  0  0
 17 18  1  0  0  0  0
 19 18  1  1  0  0  0
M  END
>  <CHROM.1>
174.82601027,-59.99854721,-8.26103566,-2.56777613,-4.52921008,-3.05811071
-0.82187883,2.07042933

>  <Name>
ligand

>  <RI>
0

>  <Rbt.Current_Directory>
/home/itssahil/PROJECTS/Mol_Feturizer/New_Systems/rnas/3SKI

>  <Rbt.Executable>
rbdock ($Id: //depot/dev/client3/rdock/2013.1/src/exe/rbdock.cxx#4 $)

>  <Rbt.Library>
libRbt.so (2013.1, Build901 2013/11/27)

>  <Rbt.Parameter_File>
/export/apps/rDock/src/rDock_2013.1_src/data/scripts/dock_solv.prm

>  <Rbt.Receptor>
prm/blind_docking_60.prm

>  <SCORE>
-21.8914

>  <SCORE.INTER>
-19.673

>  <SCORE.INTER.CONST>
1

>  <SCORE.INTER.POLAR>
0

>  <SCORE.INTER.ROT>
2

>  <SCORE.INTER.SOLV>
9.18002

>  <SCORE.INTER.VDW>
-21.1087

>  <SCORE.INTER.norm>
-1.03542

>  <SCORE.INTRA>
-2.21836

>  <SCORE.INTRA.DIHEDRAL>
-4.97155

>  <SCORE.INTRA.DIHEDRAL.0>
6.26853

>  <SCORE.INTRA.POLAR>
0

>  <SCORE.INTRA.POLAR.0>
0

>  <SCORE.INTRA.REPUL>
0

>  <SCORE.INTRA.REPUL.0>
0

>  <SCORE.INTRA.SOLV>
-0.00620524

>  <SCORE.INTRA.SOLV.lig_0>
-38.4926

>  <SCORE.INTRA.VDW>
0.270519

>  <SCORE.INTRA.VDW.0>
-0.59057

>  <SCORE.INTRA.norm>
-0.116756

>  <SCORE.RESTR>
0

>  <SCORE.RESTR.CAVITY>
0

>  <SCORE.RESTR.norm>
0

>  <SCORE.SYSTEM>
0

>  <SCORE.SYSTEM.CONST>
0

>  <SCORE.SYSTEM.DIHEDRAL>
0

>  <SCORE.SYSTEM.SOLV>
0

>  <SCORE.SYSTEM.norm>
0

>  <SCORE.heavy>
19

>  <SCORE.norm>
-1.15218

>  <RMSD>
15.737

$$$$
ligand
 OpenBabel11021811483D
libRbt.so/2013.1/901 2013/11/27
 19 21  0  0  0  0  0  0  0  0999 V2000
   -9.2750    0.9096   -3.9130 C   0  0  0  0  0  0  0  0  0  0  0  0
   -8.7335    1.4976   -5.1052 O   0  0  0  0  0  0  0  0  0  0  0  0
  -10.2875   -0.1812   -4.2689 C   0  0  1  0  0  0  0  0  0  0  0  0
   -9.6575   -1.2348   -5.0227 O   0  0  0  0  0  0  0  0  0  0  0  0
  -10.8715   -0.8134   -3.0179 C   0  0  1  0  0  0  0  0  0  0  0  0
  -12.2037   -0.3445   -2.7751 O   0  0  0  0  0  0  0  0  0  0  0  0
  -10.8730   -2.3051   -3.2728 C   0  0  0  0  0  0  0  0  0  0  0  0
   -9.9587   -2.5242   -4.4693 C   0  0  2  0  0  0  0  0  0  0  0  0
   -5.4631   -4.6840   -6.1179 N   0  0  0  0  0  0  0  0  0  0  0  0
   -6.4736   -4.1230   -6.8350 C   0  0  1  0  0  0  0  0  0  0  0  0
   -6.3775   -4.0796   -8.1851 N   0  0  0  0  0  0  0  0  0  0  0  0
   -7.5785   -3.6096   -6.2287 N   0  0  0  0  0  0  0  0  0  0  0  0
   -7.7260   -3.6300   -4.8761 C   0  0  2  0  0  0  0  0  0  0  0  0
   -6.7303   -4.1888   -4.0954 C   0  0  1  0  0  0  0  0  0  0  0  0
   -5.5289   -4.7438   -4.7694 C   0  0  0  0  0  0  0  0  0  0  0  0
   -4.5987   -5.2545   -4.1061 O   0  0  0  0  0  0  0  0  0  0  0  0
   -7.1080   -4.0812   -2.8097 N   0  0  0  0  0  0  0  0  0  0  0  0
   -8.3174   -3.4736   -2.7912 C   0  0  0  0  0  0  0  0  0  0  0  0
   -8.6939   -3.1994   -4.0535 N   0  0  1  0  0  0  0  0  0  0  0  0
  1  2  1  0  0  0  0
  3  1  1  1  0  0  0
  3  4  1  0  0  0  0
  3  5  1  0  0  0  0
  5  6  1  6  0  0  0
  5  7  1  0  0  0  0
  7  8  1  0  0  0  0
  8  4  1  1  0  0  0
  8 19  1  0  0  0  0
  9 15  1  0  0  0  0
  9 10  1  0  0  0  0
 10 11  1  6  0  0  0
 10 12  1  0  0  0  0
 13 12  1  6  0  0  0
 13 14  1  0  0  0  0
 13 19  1  0  0  0  0
 14 15  1  1  0  0  0
 14 17  1  0  0  0  0
 15 16  2  0  0  0  0
 17 18  1  0  0  0  0
 19 18  1  1  0  0  0
M  END
>  <CHROM.1>
61.13881276,-67.16306006,-8.27666670,-2.55813654,-4.55732779,-2.93635164
-0.76264966,2.25570295

>  <Name>
ligand

>  <RI>
0

>  <Rbt.Current_Directory>
/home/itssahil/PROJECTS/Mol_Feturizer/New_Systems/rnas/3SKI

>  <Rbt.Executable>
rbdock ($Id: //depot/dev/client3/rdock/2013.1/src/exe/rbdock.cxx#4 $)

>  <Rbt.Library>
libRbt.so (2013.1, Build901 2013/11/27)

>  <Rbt.Parameter_File>
/export/apps/rDock/src/rDock_2013.1_src/data/scripts/dock_solv.prm

>  <Rbt.Receptor>
prm/blind_docking_100.prm

>  <SCORE>
-21.9162

>  <SCORE.INTER>
-19.5389

>  <SCORE.INTER.CONST>
1

>  <SCORE.INTER.POLAR>
0

>  <SCORE.INTER.ROT>
2

>  <SCORE.INTER.SOLV>
8.94933

>  <SCORE.INTER.VDW>
-20.9424

>  <SCORE.INTER.norm>
-1.02836

>  <SCORE.INTRA>
-2.37734

>  <SCORE.INTRA.DIHEDRAL>
-5.06762

>  <SCORE.INTRA.DIHEDRAL.0>
6.26853

>  <SCORE.INTRA.POLAR>
0

>  <SCORE.INTRA.POLAR.0>
0

>  <SCORE.INTRA.REPUL>
0

>  <SCORE.INTRA.REPUL.0>
0

>  <SCORE.INTRA.SOLV>
-0.215844

>  <SCORE.INTRA.SOLV.lig_0>
-38.4926

>  <SCORE.INTRA.VDW>
0.264395

>  <SCORE.INTRA.VDW.0>
-0.59057

>  <SCORE.INTRA.norm>
-0.125123

>  <SCORE.RESTR>
0

>  <SCORE.RESTR.CAVITY>
0

>  <SCORE.RESTR.norm>
0

>  <SCORE.SYSTEM>
0

>  <SCORE.SYSTEM.CONST>
0

>  <SCORE.SYSTEM.DIHEDRAL>
0

>  <SCORE.SYSTEM.SOLV>
0

>  <SCORE.SYSTEM.norm>
0

>  <SCORE.heavy>
19

>  <SCORE.norm>
-1.15348

>  <RMSD>
15.743

$$$$
ligand
 OpenBabel11021811483D
libRbt.so/2013.1/901 2013/11/27
 19 21  0  0  0  0  0  0  0  0999 V2000
   -9.0629    0.8639   -4.3263 C   0  0  0  0  0  0  0  0  0  0  0  0
   -9.6399    2.0687   -3.8013 O   0  0  0  0  0  0  0  0  0  0  0  0
  -10.1393   -0.2094   -4.5038 C   0  0  1  0  0  0  0  0  0  0  0  0
   -9.6004   -1.3657   -5.1726 O   0  0  0  0  0  0  0  0  0  0  0  0
  -10.6712   -0.6767   -3.1604 C   0  0  1  0  0  0  0  0  0  0  0  0
  -11.9657   -0.1220   -2.8954 O   0  0  0  0  0  0  0  0  0  0  0  0
  -10.7495   -2.1852   -3.2510 C   0  0  0  0  0  0  0  0  0  0  0  0
   -9.9199   -2.5734   -4.4661 C   0  0  2  0  0  0  0  0  0  0  0  0
   -5.4147   -4.7146   -6.1128 N   0  0  0  0  0  0  0  0  0  0  0  0
   -6.4170   -4.1375   -6.8287 C   0  0  1  0  0  0  0  0  0  0  0  0
   -6.3081   -4.0691   -8.1768 N   0  0  0  0  0  0  0  0  0  0  0  0
   -7.5262   -3.6324   -6.2232 N   0  0  0  0  0  0  0  0  0  0  0  0
   -7.6864   -3.6776   -4.8727 C   0  0  2  0  0  0  0  0  0  0  0  0
   -6.6995   -4.2537   -4.0934 C   0  0  1  0  0  0  0  0  0  0  0  0
   -5.4933   -4.7994   -4.7664 C   0  0  0  0  0  0  0  0  0  0  0  0
   -4.5707   -5.3250   -4.1041 O   0  0  0  0  0  0  0  0  0  0  0  0
   -7.0890   -4.1691   -2.8094 N   0  0  0  0  0  0  0  0  0  0  0  0
   -8.2969   -3.5585   -2.7908 C   0  0  0  0  0  0  0  0  0  0  0  0
   -8.6608   -3.2597   -4.0512 N   0  0  1  0  0  0  0  0  0  0  0  0
  1  2  1  0  0  0  0
  3  1  1  1  0  0  0
  3  4  1  0  0  0  0
  3  5  1  0  0  0  0
  5  6  1  6  0  0  0
  5  7  1  0  0  0  0
  7  8  1  0  0  0  0
  8  4  1  1  0  0  0
  8 19  1  0  0  0  0
  9 15  1  0  0  0  0
  9 10  1  0  0  0  0
 10 11  1  6  0  0  0
 10 12  1  0  0  0  0
 13 12  1  6  0  0  0
 13 14  1  0  0  0  0
 13 19  1  0  0  0  0
 14 15  1  1  0  0  0
 14 17  1  0  0  0  0
 15 16  2  0  0  0  0
 17 18  1  0  0  0  0
 19 18  1  1  0  0  0
M  END
>  <CHROM.1>
173.34976781,-58.58633974,-8.25471520,-2.53748092,-4.53171530,-3.00099049
-0.81638879,2.12987985

>  <Name>
ligand

>  <RI>
0

>  <Rbt.Current_Directory>
/home/itssahil/PROJECTS/Mol_Feturizer/New_Systems/rnas/3SKI

>  <Rbt.Executable>
rbdock ($Id: //depot/dev/client3/rdock/2013.1/src/exe/rbdock.cxx#4 $)

>  <Rbt.Library>
libRbt.so (2013.1, Build901 2013/11/27)

>  <Rbt.Parameter_File>
/export/apps/rDock/src/rDock_2013.1_src/data/scripts/dock_solv.prm

>  <Rbt.Receptor>
prm/blind_docking_60.prm

>  <SCORE>
-21.7253

>  <SCORE.INTER>
-19.5245

>  <SCORE.INTER.CONST>
1

>  <SCORE.INTER.POLAR>
0

>  <SCORE.INTER.ROT>
2

>  <SCORE.INTER.SOLV>
9.08063

>  <SCORE.INTER.VDW>
-20.9765

>  <SCORE.INTER.norm>
-1.0276

>  <SCORE.INTRA>
-2.2008

>  <SCORE.INTRA.DIHEDRAL>
-4.90859

>  <SCORE.INTRA.DIHEDRAL.0>
6.26853

>  <SCORE.INTRA.POLAR>
0

>  <SCORE.INTRA.POLAR.0>
0

>  <SCORE.INTRA.REPUL>
0

>  <SCORE.INTRA.REPUL.0>
0

>  <SCORE.INTRA.SOLV>
-0.0128399

>  <SCORE.INTRA.SOLV.lig_0>
-38.4926

>  <SCORE.INTRA.VDW>
0.259921

>  <SCORE.INTRA.VDW.0>
-0.59057

>  <SCORE.INTRA.norm>
-0.115831

>  <SCORE.RESTR>
0

>  <SCORE.RESTR.CAVITY>
0

>  <SCORE.RESTR.norm>
0

>  <SCORE.SYSTEM>
0

>  <SCORE.SYSTEM.CONST>
0

>  <SCORE.SYSTEM.DIHEDRAL>
0

>  <SCORE.SYSTEM.SOLV>
0

>  <SCORE.SYSTEM.norm>
0

>  <SCORE.heavy>
19

>  <SCORE.norm>
-1.14344

>  <RMSD>
15.743

$$$$
ligand
 OpenBabel11021811483D
libRbt.so/2013.1/901 2013/11/27
 19 21  0  0  0  0  0  0  0  0999 V2000
   -9.1284    0.8912   -3.8479 C   0  0  0  0  0  0  0  0  0  0  0  0
   -8.5778    1.5348   -5.0067 O   0  0  0  0  0  0  0  0  0  0  0  0
  -10.1468   -0.1731   -4.2626 C   0  0  1  0  0  0  0  0  0  0  0  0
   -9.5127   -1.2125   -5.0324 O   0  0  0  0  0  0  0  0  0  0  0  0
  -10.7714   -0.8344   -3.0466 C   0  0  1  0  0  0  0  0  0  0  0  0
  -12.1026   -0.3534   -2.8230 O   0  0  0  0  0  0  0  0  0  0  0  0
  -10.7874   -2.3174   -3.3474 C   0  0  0  0  0  0  0  0  0  0  0  0
   -9.8460   -2.5136   -4.5268 C   0  0  2  0  0  0  0  0  0  0  0  0
   -5.3688   -4.7417   -6.1338 N   0  0  0  0  0  0  0  0  0  0  0  0
   -6.3562   -4.1507   -6.8590 C   0  0  1  0  0  0  0  0  0  0  0  0
   -6.2375   -4.0910   -8.2067 N   0  0  0  0  0  0  0  0  0  0  0  0
   -7.4602   -3.6232   -6.2632 N   0  0  0  0  0  0  0  0  0  0  0  0
   -7.6297   -3.6588   -4.9136 C   0  0  2  0  0  0  0  0  0  0  0  0
   -6.6581   -4.2482   -4.1250 C   0  0  1  0  0  0  0  0  0  0  0  0
   -5.4574   -4.8183   -4.7876 C   0  0  0  0  0  0  0  0  0  0  0  0
   -4.5484   -5.3566   -4.1167 O   0  0  0  0  0  0  0  0  0  0  0  0
   -7.0542   -4.1503   -2.8441 N   0  0  0  0  0  0  0  0  0  0  0  0
   -8.2513   -3.5186   -2.8363 C   0  0  0  0  0  0  0  0  0  0  0  0
   -8.6019   -3.2198   -4.1004 N   0  0  1  0  0  0  0  0  0  0  0  0
  1  2  1  0  0  0  0
  3  1  1  1  0  0  0
  3  4  1  0  0  0  0
  3  5  1  0  0  0  0
  5  6  1  6  0  0  0
  5  7  1  0  0  0  0
  7  8  1  0  0  0  0
  8  4  1  1  0  0  0
  8 19  1  0  0  0  0
  9 15  1  0  0  0  0
  9 10  1  0  0  0  0
 10 11  1  6  0  0  0
 10 12  1  0  0  0  0
 13 12  1  6  0  0  0
 13 14  1  0  0  0  0
 13 19  1  0  0  0  0
 14 15  1  1  0  0  0
 14 17  1  0  0  0  0
 15 16  2  0  0  0  0
 17 18  1  0  0  0  0
 19 18  1  1  0  0  0
M  END
>  <CHROM.1>
62.85492819,-68.32268038,-8.17268583,-2.58312946,-4.57528337,-2.90360728
-0.76757255,2.29729472

>  <Name>
ligand

>  <RI>
0

>  <Rbt.Current_Directory>
/home/itssahil/PROJECTS/Mol_Feturizer/New_Systems/rnas/3SKI

>  <Rbt.Executable>
rbdock ($Id: //depot/dev/client3/rdock/2013.1/src/exe/rbdock.cxx#4 $)

>  <Rbt.Library>
libRbt.so (2013.1, Build901 2013/11/27)

>  <Rbt.Parameter_File>
/export/apps/rDock/src/rDock_2013.1_src/data/scripts/dock_solv.prm

>  <Rbt.Receptor>
prm/blind_docking_100.prm

>  <SCORE>
-21.8137

>  <SCORE.INTER>
-19.4155

>  <SCORE.INTER.CONST>
1

>  <SCORE.INTER.POLAR>
0

>  <SCORE.INTER.ROT>
2

>  <SCORE.INTER.SOLV>
8.90703

>  <SCORE.INTER.VDW>
-20.846

>  <SCORE.INTER.norm>
-1.02187

>  <SCORE.INTRA>
-2.39823

>  <SCORE.INTRA.DIHEDRAL>
-5.04333

>  <SCORE.INTRA.DIHEDRAL.0>
6.26853

>  <SCORE.INTRA.POLAR>
0

>  <SCORE.INTRA.POLAR.0>
0

>  <SCORE.INTRA.REPUL>
0

>  <SCORE.INTRA.REPUL.0>
0

>  <SCORE.INTRA.SOLV>
-0.222999

>  <SCORE.INTRA.SOLV.lig_0>
-38.4926

>  <SCORE.INTRA.VDW>
0.234934

>  <SCORE.INTRA.VDW.0>
-0.59057

>  <SCORE.INTRA.norm>
-0.126223

>  <SCORE.RESTR>
0

>  <SCORE.RESTR.CAVITY>
0

>  <SCORE.RESTR.norm>
0

>  <SCORE.SYSTEM>
0

>  <SCORE.SYSTEM.CONST>
0

>  <SCORE.SYSTEM.DIHEDRAL>
0

>  <SCORE.SYSTEM.SOLV>
0

>  <SCORE.SYSTEM.norm>
0

>  <SCORE.heavy>
19

>  <SCORE.norm>
-1.14809

>  <RMSD>
15.750

$$$$
ligand
 OpenBabel11021811483D
libRbt.so/2013.1/901 2013/11/27
 19 21  0  0  0  0  0  0  0  0999 V2000
   -9.1897    0.8648   -4.0164 C   0  0  0  0  0  0  0  0  0  0  0  0
   -8.6374    1.3884   -5.2334 O   0  0  0  0  0  0  0  0  0  0  0  0
  -10.2156   -0.2283   -4.3235 C   0  0  1  0  0  0  0  0  0  0  0  0
   -9.6057   -1.3082   -5.0563 O   0  0  0  0  0  0  0  0  0  0  0  0
  -10.7832   -0.8193   -3.0450 C   0  0  1  0  0  0  0  0  0  0  0  0
  -12.1078   -0.3335   -2.7943 O   0  0  0  0  0  0  0  0  0  0  0  0
  -10.7994   -2.3177   -3.2561 C   0  0  0  0  0  0  0  0  0  0  0  0
   -9.9067   -2.5786   -4.4605 C   0  0  2  0  0  0  0  0  0  0  0  0
   -5.4188   -4.7499   -6.1149 N   0  0  0  0  0  0  0  0  0  0  0  0
   -6.4327   -4.1940   -6.8312 C   0  0  1  0  0  0  0  0  0  0  0  0
   -6.3429   -4.1600   -8.1821 N   0  0  0  0  0  0  0  0  0  0  0  0
   -7.5348   -3.6763   -6.2233 N   0  0  0  0  0  0  0  0  0  0  0  0
   -7.6758   -3.6872   -4.8700 C   0  0  2  0  0  0  0  0  0  0  0  0
   -6.6765   -4.2405   -4.0901 C   0  0  1  0  0  0  0  0  0  0  0  0
   -5.4782   -4.8002   -4.7658 C   0  0  0  0  0  0  0  0  0  0  0  0
   -4.5449   -5.3062   -4.1033 O   0  0  0  0  0  0  0  0  0  0  0  0
   -7.0481   -4.1239   -2.8034 N   0  0  0  0  0  0  0  0  0  0  0  0
   -8.2575   -3.5161   -2.7835 C   0  0  0  0  0  0  0  0  0  0  0  0
   -8.6399   -3.2508   -4.0459 N   0  0  1  0  0  0  0  0  0  0  0  0
  1  2  1  0  0  0  0
  3  1  1  1  0  0  0
  3  4  1  0  0  0  0
  3  5  1  0  0  0  0
  5  6  1  6  0  0  0
  5  7  1  0  0  0  0
  7  8  1  0  0  0  0
  8  4  1  1  0  0  0
  8 19  1  0  0  0  0
  9 15  1  0  0  0  0
  9 10  1  0  0  0  0
 10 11  1  6  0  0  0
 10 12  1  0  0  0  0
 13 12  1  6  0  0  0
 13 14  1  0  0  0  0
 13 19  1  0  0  0  0
 14 15  1  1  0  0  0
 14 17  1  0  0  0  0
 15 16  2  0  0  0  0
 17 18  1  0  0  0  0
 19 18  1  1  0  0  0
M  END
>  <CHROM.1>
59.57711746,-65.66011140,-8.21487862,-2.60953489,-4.57395846,-2.93861197
-0.76583778,2.23962891

>  <Name>
ligand

>  <RI>
0

>  <Rbt.Current_Directory>
/home/itssahil/PROJECTS/Mol_Feturizer/New_Systems/rnas/3SKI

>  <Rbt.Executable>
rbdock ($Id: //depot/dev/client3/rdock/2013.1/src/exe/rbdock.cxx#4 $)

>  <Rbt.Library>
libRbt.so (2013.1, Build901 2013/11/27)

>  <Rbt.Parameter_File>
/export/apps/rDock/src/rDock_2013.1_src/data/scripts/dock_solv.prm

>  <Rbt.Receptor>
prm/blind_docking_60.prm

>  <SCORE>
-21.9154

>  <SCORE.INTER>
-19.5506

>  <SCORE.INTER.CONST>
1

>  <SCORE.INTER.POLAR>
0

>  <SCORE.INTER.ROT>
2

>  <SCORE.INTER.SOLV>
9.03485

>  <SCORE.INTER.VDW>
-20.9787

>  <SCORE.INTER.norm>
-1.02898

>  <SCORE.INTRA>
-2.36485

>  <SCORE.INTRA.DIHEDRAL>
-5.07084

>  <SCORE.INTRA.DIHEDRAL.0>
6.26853

>  <SCORE.INTRA.POLAR>
0

>  <SCORE.INTRA.POLAR.0>
0

>  <SCORE.INTRA.REPUL>
0

>  <SCORE.INTRA.REPUL.0>
0

>  <SCORE.INTRA.SOLV>
-0.209003

>  <SCORE.INTRA.SOLV.lig_0>
-38.4926

>  <SCORE.INTRA.VDW>
0.275073

>  <SCORE.INTRA.VDW.0>
-0.59057

>  <SCORE.INTRA.norm>
-0.124466

>  <SCORE.RESTR>
0

>  <SCORE.RESTR.CAVITY>
0

>  <SCORE.RESTR.norm>
0

>  <SCORE.SYSTEM>
0

>  <SCORE.SYSTEM.CONST>
0

>  <SCORE.SYSTEM.DIHEDRAL>
0

>  <SCORE.SYSTEM.SOLV>
0

>  <SCORE.SYSTEM.norm>
0

>  <SCORE.heavy>
19

>  <SCORE.norm>
-1.15344

>  <RMSD>
15.750

$$$$
ligand
 OpenBabel11021811483D
libRbt.so/2013.1/901 2013/11/27
 19 21  0  0  0  0  0  0  0  0999 V2000
   -9.1838    0.8750   -4.0037 C   0  0  0  0  0  0  0  0  0  0  0  0
   -8.6316    1.4041   -5.2184 O   0  0  0  0  0  0  0  0  0  0  0  0
  -10.2143   -0.2124   -4.3158 C   0  0  1  0  0  0  0  0  0  0  0  0
   -9.6088   -1.2918   -5.0528 O   0  0  0  0  0  0  0  0  0  0  0  0
  -10.7850   -0.8062   -3.0401 C   0  0  1  0  0  0  0  0  0  0  0  0
  -12.1076   -0.3157   -2.7878 O   0  0  0  0  0  0  0  0  0  0  0  0
  -10.8077   -2.3036   -3.2574 C   0  0  0  0  0  0  0  0  0  0  0  0
   -9.9156   -2.5634   -4.4625 C   0  0  2  0  0  0  0  0  0  0  0  0
   -5.4177   -4.7106   -6.1212 N   0  0  0  0  0  0  0  0  0  0  0  0
   -6.4266   -4.1427   -6.8354 C   0  0  1  0  0  0  0  0  0  0  0  0
   -6.3277   -4.0873   -8.1848 N   0  0  0  0  0  0  0  0  0  0  0  0
   -7.5324   -3.6342   -6.2267 N   0  0  0  0  0  0  0  0  0  0  0  0
   -7.6826   -3.6666   -4.8747 C   0  0  2  0  0  0  0  0  0  0  0  0
   -6.6888   -4.2328   -4.0970 C   0  0  1  0  0  0  0  0  0  0  0  0
   -5.4863   -4.7824   -4.7735 C   0  0  0  0  0  0  0  0  0  0  0  0
   -4.5577   -5.2994   -4.1129 O   0  0  0  0  0  0  0  0  0  0  0  0
   -7.0690   -4.1365   -2.8111 N   0  0  0  0  0  0  0  0  0  0  0  0
   -8.2782   -3.5285   -2.7896 C   0  0  0  0  0  0  0  0  0  0  0  0
   -8.6520   -3.2428   -4.0502 N   0  0  1  0  0  0  0  0  0  0  0  0
  1  2  1  0  0  0  0
  3  1  1  1  0  0  0
  3  4  1  0  0  0  0
  3  5  1  0  0  0  0
  5  6  1  6  0  0  0
  5  7  1  0  0  0  0
  7  8  1  0  0  0  0
  8  4  1  1  0  0  0
  8 19  1  0  0  0  0
  9 15  1  0  0  0  0
  9 10  1  0  0  0  0
 10 11  1  6  0  0  0
 10 12  1  0  0  0  0
 13 12  1  6  0  0  0
 13 14  1  0  0  0  0
 13 19  1  0  0  0  0
 14 15  1  1  0  0  0
 14 17  1  0  0  0  0
 15 16  2  0  0  0  0
 17 18  1  0  0  0  0
 19 18  1  1  0  0  0
M  END
>  <CHROM.1>
59.74845930,-64.86468124,-8.21877432,-2.59062862,-4.57454053,-2.92866112
-0.76240649,2.25798841

>  <Name>
ligand

>  <RI>
0

>  <Rbt.Current_Directory>
/home/itssahil/PROJECTS/Mol_Feturizer/New_Systems/rnas/3SKI

>  <Rbt.Executable>
rbdock ($Id: //depot/dev/client3/rdock/2013.1/src/exe/rbdock.cxx#4 $)

>  <Rbt.Library>
libRbt.so (2013.1, Build901 2013/11/27)

>  <Rbt.Parameter_File>
/export/apps/rDock/src/rDock_2013.1_src/data/scripts/dock_solv.prm

>  <Rbt.Receptor>
prm/blind_docking_60.prm

>  <SCORE>
-21.8827

>  <SCORE.INTER>
-19.5211

>  <SCORE.INTER.CONST>
1

>  <SCORE.INTER.POLAR>
0

>  <SCORE.INTER.ROT>
2

>  <SCORE.INTER.SOLV>
8.9491

>  <SCORE.INTER.VDW>
-20.9304

>  <SCORE.INTER.norm>
-1.02743

>  <SCORE.INTRA>
-2.36161

>  <SCORE.INTRA.DIHEDRAL>
-5.07046

>  <SCORE.INTRA.DIHEDRAL.0>
6.26853

>  <SCORE.INTRA.POLAR>
0

>  <SCORE.INTRA.POLAR.0>
0

>  <SCORE.INTRA.REPUL>
0

>  <SCORE.INTRA.REPUL.0>
0

>  <SCORE.INTRA.SOLV>
-0.209147

>  <SCORE.INTRA.SOLV.lig_0>
-38.4926

>  <SCORE.INTRA.VDW>
0.278195

>  <SCORE.INTRA.VDW.0>
-0.59057

>  <SCORE.INTRA.norm>
-0.124295

>  <SCORE.RESTR>
0

>  <SCORE.RESTR.CAVITY>
0

>  <SCORE.RESTR.norm>
0

>  <SCORE.SYSTEM>
0

>  <SCORE.SYSTEM.CONST>
0

>  <SCORE.SYSTEM.DIHEDRAL>
0

>  <SCORE.SYSTEM.SOLV>
0

>  <SCORE.SYSTEM.norm>
0

>  <SCORE.heavy>
19

>  <SCORE.norm>
-1.15172

>  <RMSD>
15.750

$$$$
ligand
 OpenBabel11021811483D
libRbt.so/2013.1/901 2013/11/27
 19 21  0  0  0  0  0  0  0  0999 V2000
   -9.0996    0.8915   -4.0842 C   0  0  0  0  0  0  0  0  0  0  0  0
   -8.5993    1.4039   -5.3281 O   0  0  0  0  0  0  0  0  0  0  0  0
  -10.1573   -0.1849   -4.3378 C   0  0  1  0  0  0  0  0  0  0  0  0
   -9.5919   -1.2943   -5.0620 O   0  0  0  0  0  0  0  0  0  0  0  0
  -10.7017   -0.7343   -3.0309 C   0  0  1  0  0  0  0  0  0  0  0  0
  -12.0079   -0.2133   -2.7551 O   0  0  0  0  0  0  0  0  0  0  0  0
  -10.7565   -2.2363   -3.2070 C   0  0  0  0  0  0  0  0  0  0  0  0
   -9.9038   -2.5441   -4.4291 C   0  0  2  0  0  0  0  0  0  0  0  0
   -5.4493   -4.7331   -6.1492 N   0  0  0  0  0  0  0  0  0  0  0  0
   -6.4626   -4.1560   -6.8495 C   0  0  1  0  0  0  0  0  0  0  0  0
   -6.3819   -4.1017   -8.2002 N   0  0  0  0  0  0  0  0  0  0  0  0
   -7.5552   -3.6372   -6.2257 N   0  0  0  0  0  0  0  0  0  0  0  0
   -7.6870   -3.6679   -4.8718 C   0  0  2  0  0  0  0  0  0  0  0  0
   -6.6877   -4.2432   -4.1078 C   0  0  1  0  0  0  0  0  0  0  0  0
   -5.4999   -4.8040   -4.8007 C   0  0  0  0  0  0  0  0  0  0  0  0
   -4.5671   -5.3295   -4.1528 O   0  0  0  0  0  0  0  0  0  0  0  0
   -7.0493   -4.1432   -2.8168 N   0  0  0  0  0  0  0  0  0  0  0  0
   -8.2523   -3.5240   -2.7788 C   0  0  0  0  0  0  0  0  0  0  0  0
   -8.6409   -3.2351   -4.0341 N   0  0  1  0  0  0  0  0  0  0  0  0
  1  2  1  0  0  0  0
  3  1  1  1  0  0  0
  3  4  1  0  0  0  0
  3  5  1  0  0  0  0
  5  6  1  6  0  0  0
  5  7  1  0  0  0  0
  7  8  1  0  0  0  0
  8  4  1  1  0  0  0
  8 19  1  0  0  0  0
  9 15  1  0  0  0  0
  9 10  1  0  0  0  0
 10 11  1  6  0  0  0
 10 12  1  0  0  0  0
 13 12  1  6  0  0  0
 13 14  1  0  0  0  0
 13 19  1  0  0  0  0
 14 15  1  1  0  0  0
 14 17  1  0  0  0  0
 15 16  2  0  0  0  0
 17 18  1  0  0  0  0
 19 18  1  1  0  0  0
M  END
>  <CHROM.1>
61.31767878,-63.06630521,-8.20078426,-2.57998011,-4.58632921,-2.92982682
-0.77937729,2.24591566

>  <Name>
ligand

>  <RI>
0

>  <Rbt.Current_Directory>
/home/itssahil/PROJECTS/Mol_Feturizer/New_Systems/rnas/3SKI

>  <Rbt.Executable>
rbdock ($Id: //depot/dev/client3/rdock/2013.1/src/exe/rbdock.cxx#4 $)

>  <Rbt.Library>
libRbt.so (2013.1, Build901 2013/11/27)

>  <Rbt.Parameter_File>
/export/apps/rDock/src/rDock_2013.1_src/data/scripts/dock_solv.prm

>  <Rbt.Receptor>
prm/blind_docking_60.prm

>  <SCORE>
-21.8335

>  <SCORE.INTER>
-19.4767

>  <SCORE.INTER.CONST>
1

>  <SCORE.INTER.POLAR>
0

>  <SCORE.INTER.ROT>
2

>  <SCORE.INTER.SOLV>
8.96407

>  <SCORE.INTER.VDW>
-20.9059

>  <SCORE.INTER.norm>
-1.02509

>  <SCORE.INTRA>
-2.35672

>  <SCORE.INTRA.DIHEDRAL>
-5.06214

>  <SCORE.INTRA.DIHEDRAL.0>
6.26853

>  <SCORE.INTRA.POLAR>
0

>  <SCORE.INTRA.POLAR.0>
0

>  <SCORE.INTRA.REPUL>
0

>  <SCORE.INTRA.REPUL.0>
0

>  <SCORE.INTRA.SOLV>
-0.213922

>  <SCORE.INTRA.SOLV.lig_0>
-38.4926

>  <SCORE.INTRA.VDW>
0.281314

>  <SCORE.INTRA.VDW.0>
-0.59057

>  <SCORE.INTRA.norm>
-0.124038

>  <SCORE.RESTR>
0

>  <SCORE.RESTR.CAVITY>
0

>  <SCORE.RESTR.norm>
0

>  <SCORE.SYSTEM>
0

>  <SCORE.SYSTEM.CONST>
0

>  <SCORE.SYSTEM.DIHEDRAL>
0

>  <SCORE.SYSTEM.SOLV>
0

>  <SCORE.SYSTEM.norm>
0

>  <SCORE.heavy>
19

>  <SCORE.norm>
-1.14913

>  <RMSD>
15.766

$$$$
ligand
 OpenBabel11021811483D
libRbt.so/2013.1/901 2013/11/27
 19 21  0  0  0  0  0  0  0  0999 V2000
   -9.0586    0.8985   -4.6765 C   0  0  0  0  0  0  0  0  0  0  0  0
   -7.9112    0.4182   -3.9603 O   0  0  0  0  0  0  0  0  0  0  0  0
  -10.1650   -0.1587   -4.6814 C   0  0  1  0  0  0  0  0  0  0  0  0
   -9.6966   -1.3837   -5.2771 O   0  0  0  0  0  0  0  0  0  0  0  0
  -10.6100   -0.4899   -3.2678 C   0  0  1  0  0  0  0  0  0  0  0  0
  -11.8719    0.1190   -2.9668 O   0  0  0  0  0  0  0  0  0  0  0  0
  -10.7233   -1.9980   -3.2148 C   0  0  0  0  0  0  0  0  0  0  0  0
   -9.9887   -2.5146   -4.4432 C   0  0  2  0  0  0  0  0  0  0  0  0
   -5.5084   -4.6343   -6.1830 N   0  0  0  0  0  0  0  0  0  0  0  0
   -6.5295   -4.0648   -6.8782 C   0  0  1  0  0  0  0  0  0  0  0  0
   -6.4505   -3.9993   -8.2285 N   0  0  0  0  0  0  0  0  0  0  0  0
   -7.6280   -3.5644   -6.2497 N   0  0  0  0  0  0  0  0  0  0  0  0
   -7.7583   -3.6071   -4.8960 C   0  0  2  0  0  0  0  0  0  0  0  0
   -6.7513   -4.1755   -4.1370 C   0  0  1  0  0  0  0  0  0  0  0  0
   -5.5570   -4.7161   -4.8350 C   0  0  0  0  0  0  0  0  0  0  0  0
   -4.6172   -5.2347   -4.1918 O   0  0  0  0  0  0  0  0  0  0  0  0
   -7.1130   -4.0898   -2.8451 N   0  0  0  0  0  0  0  0  0  0  0  0
   -8.3237   -3.4861   -2.8015 C   0  0  0  0  0  0  0  0  0  0  0  0
   -8.7169   -3.1926   -4.0543 N   0  0  1  0  0  0  0  0  0  0  0  0
  1  2  1  0  0  0  0
  3  1  1  1  0  0  0
  3  4  1  0  0  0  0
  3  5  1  0  0  0  0
  5  6  1  6  0  0  0
  5  7  1  0  0  0  0
  7  8  1  0  0  0  0
  8  4  1  6  0  0  0
  8 19  1  0  0  0  0
  9 15  1  0  0  0  0
  9 10  1  0  0  0  0
 10 11  1  6  0  0  0
 10 12  1  0  0  0  0
 13 12  1  6  0  0  0
 13 14  1  0  0  0  0
 13 19  1  0  0  0  0
 14 15  1  1  0  0  0
 14 17  1  0  0  0  0
 15 16  2  0  0  0  0
 17 18  1  0  0  0  0
 19 18  1  1  0  0  0
M  END
>  <CHROM.1>
-58.25047791,-52.62738603,-8.18928530,-2.55581318,-4.60655417,-3.13343227
-0.79537972,1.98208379

>  <Name>
ligand

>  <RI>
0

>  <Rbt.Current_Directory>
/home/itssahil/PROJECTS/Mol_Feturizer/New_Systems/rnas/3SKI

>  <Rbt.Executable>
rbdock ($Id: //depot/dev/client3/rdock/2013.1/src/exe/rbdock.cxx#4 $)

>  <Rbt.Library>
libRbt.so (2013.1, Build901 2013/11/27)

>  <Rbt.Parameter_File>
/export/apps/rDock/src/rDock_2013.1_src/data/scripts/dock_solv.prm

>  <Rbt.Receptor>
prm/blind_docking_80.prm

>  <SCORE>
-21.5442

>  <SCORE.INTER>
-19.1777

>  <SCORE.INTER.CONST>
1

>  <SCORE.INTER.POLAR>
0

>  <SCORE.INTER.ROT>
2

>  <SCORE.INTER.SOLV>
9.20752

>  <SCORE.INTER.VDW>
-20.7876

>  <SCORE.INTER.norm>
-1.00935

>  <SCORE.INTRA>
-2.36647

>  <SCORE.INTRA.DIHEDRAL>
-5.04718

>  <SCORE.INTRA.DIHEDRAL.0>
6.26853

>  <SCORE.INTRA.POLAR>
0

>  <SCORE.INTRA.POLAR.0>
0

>  <SCORE.INTRA.REPUL>
0

>  <SCORE.INTRA.REPUL.0>
0

>  <SCORE.INTRA.SOLV>
0.230947

>  <SCORE.INTRA.SOLV.lig_0>
-38.4926

>  <SCORE.INTRA.VDW>
0.0416468

>  <SCORE.INTRA.VDW.0>
-0.59057

>  <SCORE.INTRA.norm>
-0.124551

>  <SCORE.RESTR>
0

>  <SCORE.RESTR.CAVITY>
0

>  <SCORE.RESTR.norm>
0

>  <SCORE.SYSTEM>
0

>  <SCORE.SYSTEM.CONST>
0

>  <SCORE.SYSTEM.DIHEDRAL>
0

>  <SCORE.SYSTEM.SOLV>
0

>  <SCORE.SYSTEM.norm>
0

>  <SCORE.heavy>
19

>  <SCORE.norm>
-1.1339

>  <RMSD>
15.766

$$$$
ligand
 OpenBabel11021811483D
libRbt.so/2013.1/901 2013/11/27
 19 21  0  0  0  0  0  0  0  0999 V2000
  -10.7462    2.3531   -4.9624 C   0  0  0  0  0  0  0  0  0  0  0  0
  -10.8582    3.5118   -4.1227 O   0  0  0  0  0  0  0  0  0  0  0  0
   -9.3868    1.6793   -4.7627 C   0  0  1  0  0  0  0  0  0  0  0  0
   -9.3467    0.9752   -3.5067 O   0  0  0  0  0  0  0  0  0  0  0  0
   -9.1165    0.6605   -5.8558 C   0  0  1  0  0  0  0  0  0  0  0  0
   -8.1741    1.1642   -6.8107 O   0  0  0  0  0  0  0  0  0  0  0  0
   -8.5590   -0.5585   -5.1535 C   0  0  0  0  0  0  0  0  0  0  0  0
   -8.8738   -0.3690   -3.6768 C   0  0  2  0  0  0  0  0  0  0  0  0
  -13.7215   -0.8786   -1.7188 N   0  0  0  0  0  0  0  0  0  0  0  0
  -13.0185    0.2460   -2.0210 C   0  0  1  0  0  0  0  0  0  0  0  0
  -13.5898    1.4558   -1.8109 N   0  0  0  0  0  0  0  0  0  0  0  0
  -11.7557    0.1837   -2.5244 N   0  0  0  0  0  0  0  0  0  0  0  0
  -11.1351   -1.0056   -2.7522 C   0  0  2  0  0  0  0  0  0  0  0  0
  -11.8014   -2.1827   -2.4629 C   0  0  1  0  0  0  0  0  0  0  0  0
  -13.1796   -2.1008   -1.9159 C   0  0  0  0  0  0  0  0  0  0  0  0
  -13.8254   -3.1376   -1.6438 O   0  0  0  0  0  0  0  0  0  0  0  0
  -10.9860   -3.2039   -2.7784 N   0  0  0  0  0  0  0  0  0  0  0  0
   -9.8331   -2.6728   -3.2485 C   0  0  0  0  0  0  0  0  0  0  0  0
   -9.9251   -1.3306   -3.2312 N   0  0  1  0  0  0  0  0  0  0  0  0
  1  2  1  0  0  0  0
  3  1  1  6  0  0  0
  3  4  1  0  0  0  0
  3  5  1  0  0  0  0
  5  6  1  6  0  0  0
  5  7  1  0  0  0  0
  7  8  1  0  0  0  0
  8  4  1  6  0  0  0
  8 19  1  0  0  0  0
  9 15  1  0  0  0  0
  9 10  1  0  0  0  0
 10 11  1  1  0  0  0
 10 12  1  0  0  0  0
 13 12  1  1  0  0  0
 13 14  1  0  0  0  0
 13 19  1  0  0  0  0
 14 15  1  6  0  0  0
 14 17  1  0  0  0  0
 15 16  2  0  0  0  0
 17 18  1  0  0  0  0
 19 18  1  6  0  0  0
M  END
>  <CHROM.1>
74.34317126,0.46462265,-10.91442924,-0.20859342,-3.45812793,0.69996955,0.59073446
-0.22731359

>  <Name>
ligand

>  <RI>
0

>  <Rbt.Current_Directory>
/home/itssahil/PROJECTS/Mol_Feturizer/New_Systems/rnas/3SKI

>  <Rbt.Executable>
rbdock ($Id: //depot/dev/client3/rdock/2013.1/src/exe/rbdock.cxx#4 $)

>  <Rbt.Library>
libRbt.so (2013.1, Build901 2013/11/27)

>  <Rbt.Parameter_File>
/export/apps/rDock/src/rDock_2013.1_src/data/scripts/dock_solv.prm

>  <Rbt.Receptor>
prm/blind_docking_20.prm

>  <SCORE>
-17.3224

>  <SCORE.INTER>
-14.5363

>  <SCORE.INTER.CONST>
1

>  <SCORE.INTER.POLAR>
0

>  <SCORE.INTER.ROT>
2

>  <SCORE.INTER.SOLV>
16.7403

>  <SCORE.INTER.VDW>
-20.2043

>  <SCORE.INTER.norm>
-0.765068

>  <SCORE.INTRA>
-2.78612

>  <SCORE.INTRA.DIHEDRAL>
-4.35175

>  <SCORE.INTRA.DIHEDRAL.0>
6.26853

>  <SCORE.INTRA.POLAR>
0

>  <SCORE.INTRA.POLAR.0>
0

>  <SCORE.INTRA.REPUL>
0

>  <SCORE.INTRA.REPUL.0>
0

>  <SCORE.INTRA.SOLV>
0.453381

>  <SCORE.INTRA.SOLV.lig_0>
-38.4926

>  <SCORE.INTRA.VDW>
-0.836934

>  <SCORE.INTRA.VDW.0>
-0.59057

>  <SCORE.INTRA.norm>
-0.146638

>  <SCORE.RESTR>
0

>  <SCORE.RESTR.CAVITY>
0

>  <SCORE.RESTR.norm>
0

>  <SCORE.SYSTEM>
0

>  <SCORE.SYSTEM.CONST>
0

>  <SCORE.SYSTEM.DIHEDRAL>
0

>  <SCORE.SYSTEM.SOLV>
0

>  <SCORE.SYSTEM.norm>
0

>  <SCORE.heavy>
19

>  <SCORE.norm>
-0.911706

>  <RMSD>
15.768

$$$$
ligand
 OpenBabel11021811483D
libRbt.so/2013.1/901 2013/11/27
 19 21  0  0  0  0  0  0  0  0999 V2000
  -10.7362    2.3480   -4.9756 C   0  0  0  0  0  0  0  0  0  0  0  0
  -10.8476    3.5066   -4.1358 O   0  0  0  0  0  0  0  0  0  0  0  0
   -9.3765    1.6744   -4.7774 C   0  0  1  0  0  0  0  0  0  0  0  0
   -9.3346    0.9714   -3.5208 O   0  0  0  0  0  0  0  0  0  0  0  0
   -9.1077    0.6547   -5.8700 C   0  0  1  0  0  0  0  0  0  0  0  0
   -8.1667    1.1577   -6.8267 O   0  0  0  0  0  0  0  0  0  0  0  0
   -8.5491   -0.5637   -5.1674 C   0  0  0  0  0  0  0  0  0  0  0  0
   -8.8618   -0.3730   -3.6905 C   0  0  2  0  0  0  0  0  0  0  0  0
  -13.7033   -0.8810   -1.7169 N   0  0  0  0  0  0  0  0  0  0  0  0
  -13.0004    0.2434   -2.0201 C   0  0  1  0  0  0  0  0  0  0  0  0
  -13.5700    1.4534   -1.8065 N   0  0  0  0  0  0  0  0  0  0  0  0
  -11.7393    0.1807   -2.5278 N   0  0  0  0  0  0  0  0  0  0  0  0
  -11.1204   -1.0088   -2.7591 C   0  0  2  0  0  0  0  0  0  0  0  0
  -11.7867   -2.1858   -2.4689 C   0  0  1  0  0  0  0  0  0  0  0  0
  -13.1631   -2.1034   -1.9172 C   0  0  0  0  0  0  0  0  0  0  0  0
  -13.8087   -3.1400   -1.6443 O   0  0  0  0  0  0  0  0  0  0  0  0
  -10.9733   -3.2073   -2.7884 N   0  0  0  0  0  0  0  0  0  0  0  0
   -9.8215   -2.6765   -3.2617 C   0  0  0  0  0  0  0  0  0  0  0  0
   -9.9124   -1.3343   -3.2425 N   0  0  1  0  0  0  0  0  0  0  0  0
  1  2  1  0  0  0  0
  3  1  1  6  0  0  0
  3  4  1  0  0  0  0
  3  5  1  0  0  0  0
  5  6  1  6  0  0  0
  5  7  1  0  0  0  0
  7  8  1  0  0  0  0
  8  4  1  6  0  0  0
  8 19  1  0  0  0  0
  9 15  1  0  0  0  0
  9 10  1  0  0  0  0
 10 11  1  1  0  0  0
 10 12  1  0  0  0  0
 13 12  1  1  0  0  0
 13 14  1  0  0  0  0
 13 19  1  0  0  0  0
 14 15  1  6  0  0  0
 14 17  1  0  0  0  0
 15 16  2  0  0  0  0
 17 18  1  0  0  0  0
 19 18  1  6  0  0  0
M  END
>  <CHROM.1>
74.28584872,0.29678212,-10.90119675,-0.21247108,-3.46657823,0.69952094,0.59402368
-0.22744725

>  <Name>
ligand

>  <RI>
0

>  <Rbt.Current_Directory>
/home/itssahil/PROJECTS/Mol_Feturizer/New_Systems/rnas/3SKI

>  <Rbt.Executable>
rbdock ($Id: //depot/dev/client3/rdock/2013.1/src/exe/rbdock.cxx#4 $)

>  <Rbt.Library>
libRbt.so (2013.1, Build901 2013/11/27)

>  <Rbt.Parameter_File>
/export/apps/rDock/src/rDock_2013.1_src/data/scripts/dock_solv.prm

>  <Rbt.Receptor>
prm/blind_docking_20.prm

>  <SCORE>
-17.3184

>  <SCORE.INTER>
-14.5281

>  <SCORE.INTER.CONST>
1

>  <SCORE.INTER.POLAR>
0

>  <SCORE.INTER.ROT>
2

>  <SCORE.INTER.SOLV>
16.7093

>  <SCORE.INTER.VDW>
-20.1885

>  <SCORE.INTER.norm>
-0.764637

>  <SCORE.INTRA>
-2.79031

>  <SCORE.INTRA.DIHEDRAL>
-4.357

>  <SCORE.INTRA.DIHEDRAL.0>
6.26853

>  <SCORE.INTRA.POLAR>
0

>  <SCORE.INTRA.POLAR.0>
0

>  <SCORE.INTRA.REPUL>
0

>  <SCORE.INTRA.REPUL.0>
0

>  <SCORE.INTRA.SOLV>
0.443901

>  <SCORE.INTRA.SOLV.lig_0>
-38.4926

>  <SCORE.INTRA.VDW>
-0.833766

>  <SCORE.INTRA.VDW.0>
-0.59057

>  <SCORE.INTRA.norm>
-0.146859

>  <SCORE.RESTR>
0

>  <SCORE.RESTR.CAVITY>
0

>  <SCORE.RESTR.norm>
0

>  <SCORE.SYSTEM>
0

>  <SCORE.SYSTEM.CONST>
0

>  <SCORE.SYSTEM.DIHEDRAL>
0

>  <SCORE.SYSTEM.SOLV>
0

>  <SCORE.SYSTEM.norm>
0

>  <SCORE.heavy>
19

>  <SCORE.norm>
-0.911495

>  <RMSD>
15.770

$$$$
ligand
 OpenBabel11021811483D
libRbt.so/2013.1/901 2013/11/27
 19 21  0  0  0  0  0  0  0  0999 V2000
   -9.0165    0.8831   -4.7626 C   0  0  0  0  0  0  0  0  0  0  0  0
   -7.8780    0.4136   -4.0253 O   0  0  0  0  0  0  0  0  0  0  0  0
  -10.1392   -0.1562   -4.7287 C   0  0  1  0  0  0  0  0  0  0  0  0
   -9.6973   -1.4024   -5.3003 O   0  0  0  0  0  0  0  0  0  0  0  0
  -10.5718   -0.4464   -3.3024 C   0  0  1  0  0  0  0  0  0  0  0  0
  -11.8202    0.1895   -3.0011 O   0  0  0  0  0  0  0  0  0  0  0  0
  -10.7079   -1.9508   -3.2116 C   0  0  0  0  0  0  0  0  0  0  0  0
   -9.9967   -2.5082   -4.4359 C   0  0  2  0  0  0  0  0  0  0  0  0
   -5.4985   -4.5984   -6.1654 N   0  0  0  0  0  0  0  0  0  0  0  0
   -6.5100   -4.0121   -6.8607 C   0  0  1  0  0  0  0  0  0  0  0  0
   -6.4141   -3.9176   -8.2083 N   0  0  0  0  0  0  0  0  0  0  0  0
   -7.6154   -3.5233   -6.2353 N   0  0  0  0  0  0  0  0  0  0  0  0
   -7.7626   -3.5949   -4.8845 C   0  0  2  0  0  0  0  0  0  0  0  0
   -6.7660   -4.1815   -4.1255 C   0  0  1  0  0  0  0  0  0  0  0  0
   -5.5640   -4.7091   -4.8202 C   0  0  0  0  0  0  0  0  0  0  0  0
   -4.6331   -5.2432   -4.1767 O   0  0  0  0  0  0  0  0  0  0  0  0
   -7.1436   -4.1229   -2.8366 N   0  0  0  0  0  0  0  0  0  0  0  0
   -8.3538   -3.5180   -2.7950 C   0  0  0  0  0  0  0  0  0  0  0  0
   -8.7309   -3.1969   -4.0461 N   0  0  1  0  0  0  0  0  0  0  0  0
  1  2  1  0  0  0  0
  3  1  1  1  0  0  0
  3  4  1  0  0  0  0
  3  5  1  0  0  0  0
  5  6  1  6  0  0  0
  5  7  1  0  0  0  0
  7  8  1  0  0  0  0
  8  4  1  6  0  0  0
  8 19  1  0  0  0  0
  9 15  1  0  0  0  0
  9 10  1  0  0  0  0
 10 11  1  6  0  0  0
 10 12  1  0  0  0  0
 13 12  1  6  0  0  0
 13 14  1  0  0  0  0
 13 19  1  0  0  0  0
 14 15  1  1  0  0  0
 14 17  1  0  0  0  0
 15 16  2  0  0  0  0
 17 18  1  0  0  0  0
 19 18  1  1  0  0  0
M  END
>  <CHROM.1>
-59.44846337,-49.55304665,-8.18014454,-2.54105224,-4.61476963,-3.08473114
-0.79299372,2.03646559

>  <Name>
ligand

>  <RI>
0

>  <Rbt.Current_Directory>
/home/itssahil/PROJECTS/Mol_Feturizer/New_Systems/rnas/3SKI

>  <Rbt.Executable>
rbdock ($Id: //depot/dev/client3/rdock/2013.1/src/exe/rbdock.cxx#4 $)

>  <Rbt.Library>
libRbt.so (2013.1, Build901 2013/11/27)

>  <Rbt.Parameter_File>
/export/apps/rDock/src/rDock_2013.1_src/data/scripts/dock_solv.prm

>  <Rbt.Receptor>
prm/blind_docking_60.prm

>  <SCORE>
-21.4955

>  <SCORE.INTER>
-19.1123

>  <SCORE.INTER.CONST>
1

>  <SCORE.INTER.POLAR>
0

>  <SCORE.INTER.ROT>
2

>  <SCORE.INTER.SOLV>
9.03852

>  <SCORE.INTER.VDW>
-20.6877

>  <SCORE.INTER.norm>
-1.00591

>  <SCORE.INTRA>
-2.38312

>  <SCORE.INTRA.DIHEDRAL>
-5.05487

>  <SCORE.INTRA.DIHEDRAL.0>
6.26853

>  <SCORE.INTRA.POLAR>
0

>  <SCORE.INTRA.POLAR.0>
0

>  <SCORE.INTRA.REPUL>
0

>  <SCORE.INTRA.REPUL.0>
0

>  <SCORE.INTRA.SOLV>
0.235668

>  <SCORE.INTRA.SOLV.lig_0>
-38.4926

>  <SCORE.INTRA.VDW>
0.0264792

>  <SCORE.INTRA.VDW.0>
-0.59057

>  <SCORE.INTRA.norm>
-0.125427

>  <SCORE.RESTR>
0

>  <SCORE.RESTR.CAVITY>
0

>  <SCORE.RESTR.norm>
0

>  <SCORE.SYSTEM>
0

>  <SCORE.SYSTEM.CONST>
0

>  <SCORE.SYSTEM.DIHEDRAL>
0

>  <SCORE.SYSTEM.SOLV>
0

>  <SCORE.SYSTEM.norm>
0

>  <SCORE.heavy>
19

>  <SCORE.norm>
-1.13134

>  <RMSD>
15.773

$$$$
ligand
 OpenBabel11021811483D
libRbt.so/2013.1/901 2013/11/27
 19 21  0  0  0  0  0  0  0  0999 V2000
   -9.2111    0.8722   -4.1069 C   0  0  0  0  0  0  0  0  0  0  0  0
   -8.6874    1.3778   -5.3439 O   0  0  0  0  0  0  0  0  0  0  0  0
  -10.2457   -0.2234   -4.3740 C   0  0  1  0  0  0  0  0  0  0  0  0
   -9.6503   -1.3228   -5.0893 O   0  0  0  0  0  0  0  0  0  0  0  0
  -10.7979   -0.7816   -3.0743 C   0  0  1  0  0  0  0  0  0  0  0  0
  -12.1170   -0.2842   -2.8169 O   0  0  0  0  0  0  0  0  0  0  0  0
  -10.8231   -2.2845   -3.2496 C   0  0  0  0  0  0  0  0  0  0  0  0
   -9.9482   -2.5776   -4.4597 C   0  0  2  0  0  0  0  0  0  0  0  0
   -5.4519   -4.7274   -6.1194 N   0  0  0  0  0  0  0  0  0  0  0  0
   -6.4683   -4.1743   -6.8344 C   0  0  1  0  0  0  0  0  0  0  0  0
   -6.3790   -4.1374   -8.1852 N   0  0  0  0  0  0  0  0  0  0  0  0
   -7.5723   -3.6623   -6.2252 N   0  0  0  0  0  0  0  0  0  0  0  0
   -7.7130   -3.6762   -4.8719 C   0  0  2  0  0  0  0  0  0  0  0  0
   -6.7111   -4.2269   -4.0933 C   0  0  1  0  0  0  0  0  0  0  0  0
   -5.5108   -4.7805   -4.7704 C   0  0  0  0  0  0  0  0  0  0  0  0
   -4.5753   -5.2839   -4.1090 O   0  0  0  0  0  0  0  0  0  0  0  0
   -7.0829   -4.1143   -2.8062 N   0  0  0  0  0  0  0  0  0  0  0  0
   -8.2947   -3.5115   -2.7849 C   0  0  0  0  0  0  0  0  0  0  0  0
   -8.6786   -3.2454   -4.0467 N   0  0  1  0  0  0  0  0  0  0  0  0
  1  2  1  0  0  0  0
  3  1  1  1  0  0  0
  3  4  1  0  0  0  0
  3  5  1  0  0  0  0
  5  6  1  6  0  0  0
  5  7  1  0  0  0  0
  7  8  1  0  0  0  0
  8  4  1  1  0  0  0
  8 19  1  0  0  0  0
  9 15  1  0  0  0  0
  9 10  1  0  0  0  0
 10 11  1  6  0  0  0
 10 12  1  0  0  0  0
 13 12  1  6  0  0  0
 13 14  1  0  0  0  0
 13 19  1  0  0  0  0
 14 15  1  1  0  0  0
 14 17  1  0  0  0  0
 15 16  2  0  0  0  0
 17 18  1  0  0  0  0
 19 18  1  1  0  0  0
M  END
>  <CHROM.1>
60.39447778,-63.94228288,-8.24764926,-2.59521933,-4.59426914,-2.93728481
-0.76365427,2.23244480

>  <Name>
ligand

>  <RI>
0

>  <Rbt.Current_Directory>
/home/itssahil/PROJECTS/Mol_Feturizer/New_Systems/rnas/3SKI

>  <Rbt.Executable>
rbdock ($Id: //depot/dev/client3/rdock/2013.1/src/exe/rbdock.cxx#4 $)

>  <Rbt.Library>
libRbt.so (2013.1, Build901 2013/11/27)

>  <Rbt.Parameter_File>
/export/apps/rDock/src/rDock_2013.1_src/data/scripts/dock_solv.prm

>  <Rbt.Receptor>
prm/blind_docking_80.prm

>  <SCORE>
-21.9071

>  <SCORE.INTER>
-19.5474

>  <SCORE.INTER.CONST>
1

>  <SCORE.INTER.POLAR>
0

>  <SCORE.INTER.ROT>
2

>  <SCORE.INTER.SOLV>
8.97091

>  <SCORE.INTER.VDW>
-20.9552

>  <SCORE.INTER.norm>
-1.02881

>  <SCORE.INTRA>
-2.35966

>  <SCORE.INTRA.DIHEDRAL>
-5.06902

>  <SCORE.INTRA.DIHEDRAL.0>
6.26853

>  <SCORE.INTRA.POLAR>
0

>  <SCORE.INTRA.POLAR.0>
0

>  <SCORE.INTRA.REPUL>
0

>  <SCORE.INTRA.REPUL.0>
0

>  <SCORE.INTRA.SOLV>
-0.211002

>  <SCORE.INTRA.SOLV.lig_0>
-38.4926

>  <SCORE.INTRA.VDW>
0.280354

>  <SCORE.INTRA.VDW.0>
-0.59057

>  <SCORE.INTRA.norm>
-0.124192

>  <SCORE.RESTR>
0

>  <SCORE.RESTR.CAVITY>
0

>  <SCORE.RESTR.norm>
0

>  <SCORE.SYSTEM>
0

>  <SCORE.SYSTEM.CONST>
0

>  <SCORE.SYSTEM.DIHEDRAL>
0

>  <SCORE.SYSTEM.SOLV>
0

>  <SCORE.SYSTEM.norm>
0

>  <SCORE.heavy>
19

>  <SCORE.norm>
-1.153

>  <RMSD>
15.774

$$$$
ligand
 OpenBabel11021811483D
libRbt.so/2013.1/901 2013/11/27
 19 21  0  0  0  0  0  0  0  0999 V2000
   -9.2184    0.9118   -4.0821 C   0  0  0  0  0  0  0  0  0  0  0  0
   -8.7234    1.4587   -5.3134 O   0  0  0  0  0  0  0  0  0  0  0  0
  -10.2554   -0.1783   -4.3616 C   0  0  1  0  0  0  0  0  0  0  0  0
   -9.6617   -1.2725   -5.0864 O   0  0  0  0  0  0  0  0  0  0  0  0
  -10.8116   -0.7475   -3.0683 C   0  0  1  0  0  0  0  0  0  0  0  0
  -12.1298   -0.2490   -2.8086 O   0  0  0  0  0  0  0  0  0  0  0  0
  -10.8405   -2.2486   -3.2582 C   0  0  0  0  0  0  0  0  0  0  0  0
   -9.9642   -2.5324   -4.4694 C   0  0  2  0  0  0  0  0  0  0  0  0
   -5.4780   -4.6928   -6.1427 N   0  0  0  0  0  0  0  0  0  0  0  0
   -6.4925   -4.1318   -6.8542 C   0  0  1  0  0  0  0  0  0  0  0  0
   -6.4039   -4.0886   -8.2049 N   0  0  0  0  0  0  0  0  0  0  0  0
   -7.5940   -3.6182   -6.2418 N   0  0  0  0  0  0  0  0  0  0  0  0
   -7.7339   -3.6384   -4.8885 C   0  0  2  0  0  0  0  0  0  0  0  0
   -6.7339   -4.1972   -4.1133 C   0  0  1  0  0  0  0  0  0  0  0  0
   -5.5363   -4.7524   -4.7939 C   0  0  0  0  0  0  0  0  0  0  0  0
   -4.6025   -5.2630   -4.1357 O   0  0  0  0  0  0  0  0  0  0  0  0
   -7.1044   -4.0894   -2.8255 N   0  0  0  0  0  0  0  0  0  0  0  0
   -8.3136   -3.4816   -2.8003 C   0  0  0  0  0  0  0  0  0  0  0  0
   -8.6972   -3.2076   -4.0605 N   0  0  1  0  0  0  0  0  0  0  0  0
  1  2  1  0  0  0  0
  3  1  1  1  0  0  0
  3  4  1  0  0  0  0
  3  5  1  0  0  0  0
  5  6  1  6  0  0  0
  5  7  1  0  0  0  0
  7  8  1  0  0  0  0
  8  4  1  1  0  0  0
  8 19  1  0  0  0  0
  9 15  1  0  0  0  0
  9 10  1  0  0  0  0
 10 11  1  6  0  0  0
 10 12  1  0  0  0  0
 13 12  1  6  0  0  0
 13 14  1  0  0  0  0
 13 19  1  0  0  0  0
 14 15  1  1  0  0  0
 14 17  1  0  0  0  0
 15 16  2  0  0  0  0
 17 18  1  0  0  0  0
 19 18  1  1  0  0  0
M  END
>  <CHROM.1>
62.29736333,-64.25328926,-8.26749379,-2.55556783,-4.60140183,-2.93335806
-0.76765841,2.24119467

>  <Name>
ligand

>  <RI>
0

>  <Rbt.Current_Directory>
/home/itssahil/PROJECTS/Mol_Feturizer/New_Systems/rnas/3SKI

>  <Rbt.Executable>
rbdock ($Id: //depot/dev/client3/rdock/2013.1/src/exe/rbdock.cxx#4 $)

>  <Rbt.Library>
libRbt.so (2013.1, Build901 2013/11/27)

>  <Rbt.Parameter_File>
/export/apps/rDock/src/rDock_2013.1_src/data/scripts/dock_solv.prm

>  <Rbt.Receptor>
prm/blind_docking_40.prm

>  <SCORE>
-21.8747

>  <SCORE.INTER>
-19.4973

>  <SCORE.INTER.CONST>
1

>  <SCORE.INTER.POLAR>
0

>  <SCORE.INTER.ROT>
2

>  <SCORE.INTER.SOLV>
8.8873

>  <SCORE.INTER.VDW>
-20.894

>  <SCORE.INTER.norm>
-1.02618

>  <SCORE.INTRA>
-2.37736

>  <SCORE.INTRA.DIHEDRAL>
-5.05014

>  <SCORE.INTRA.DIHEDRAL.0>
6.26853

>  <SCORE.INTRA.POLAR>
0

>  <SCORE.INTRA.POLAR.0>
0

>  <SCORE.INTRA.REPUL>
0

>  <SCORE.INTRA.REPUL.0>
0

>  <SCORE.INTRA.SOLV>
-0.218323

>  <SCORE.INTRA.SOLV.lig_0>
-38.4926

>  <SCORE.INTRA.VDW>
0.256875

>  <SCORE.INTRA.VDW.0>
-0.59057

>  <SCORE.INTRA.norm>
-0.125124

>  <SCORE.RESTR>
0

>  <SCORE.RESTR.CAVITY>
0

>  <SCORE.RESTR.norm>
0

>  <SCORE.SYSTEM>
0

>  <SCORE.SYSTEM.CONST>
0

>  <SCORE.SYSTEM.DIHEDRAL>
0

>  <SCORE.SYSTEM.SOLV>
0

>  <SCORE.SYSTEM.norm>
0

>  <SCORE.heavy>
19

>  <SCORE.norm>
-1.1513

>  <RMSD>
15.787

$$$$
ligand
 OpenBabel11021811483D
libRbt.so/2013.1/901 2013/11/27
 19 21  0  0  0  0  0  0  0  0999 V2000
   -9.0125    0.8737   -4.7739 C   0  0  0  0  0  0  0  0  0  0  0  0
   -7.8451    0.3838   -4.0975 O   0  0  0  0  0  0  0  0  0  0  0  0
  -10.1319   -0.1688   -4.7284 C   0  0  1  0  0  0  0  0  0  0  0  0
   -9.6914   -1.4147   -5.3018 O   0  0  0  0  0  0  0  0  0  0  0  0
  -10.5511   -0.4579   -3.2978 C   0  0  1  0  0  0  0  0  0  0  0  0
  -11.7987    0.1749   -2.9866 O   0  0  0  0  0  0  0  0  0  0  0  0
  -10.6820   -1.9625   -3.2034 C   0  0  0  0  0  0  0  0  0  0  0  0
   -9.9799   -2.5199   -4.4330 C   0  0  2  0  0  0  0  0  0  0  0  0
   -5.5043   -4.6261   -6.2011 N   0  0  0  0  0  0  0  0  0  0  0  0
   -6.5252   -4.0472   -6.8887 C   0  0  1  0  0  0  0  0  0  0  0  0
   -6.4473   -3.9663   -8.2383 N   0  0  0  0  0  0  0  0  0  0  0  0
   -7.6224   -3.5525   -6.2536 N   0  0  0  0  0  0  0  0  0  0  0  0
   -7.7515   -3.6104   -4.9003 C   0  0  2  0  0  0  0  0  0  0  0  0
   -6.7446   -4.1890   -4.1488 C   0  0  1  0  0  0  0  0  0  0  0  0
   -5.5518   -4.7232   -4.8541 C   0  0  0  0  0  0  0  0  0  0  0  0
   -4.6121   -5.2505   -4.2177 O   0  0  0  0  0  0  0  0  0  0  0  0
   -7.1051   -4.1176   -2.8556 N   0  0  0  0  0  0  0  0  0  0  0  0
   -8.3148   -3.5126   -2.8040 C   0  0  0  0  0  0  0  0  0  0  0  0
   -8.7087   -3.2042   -4.0531 N   0  0  1  0  0  0  0  0  0  0  0  0
  1  2  1  0  0  0  0
  3  1  1  1  0  0  0
  3  4  1  0  0  0  0
  3  5  1  0  0  0  0
  5  6  1  6  0  0  0
  5  7  1  0  0  0  0
  7  8  1  0  0  0  0
  8  4  1  6  0  0  0
  8 19  1  0  0  0  0
  9 15  1  0  0  0  0
  9 10  1  0  0  0  0
 10 11  1  6  0  0  0
 10 12  1  0  0  0  0
 13 12  1  6  0  0  0
 13 14  1  0  0  0  0
 13 19  1  0  0  0  0
 14 15  1  1  0  0  0
 14 17  1  0  0  0  0
 15 16  2  0  0  0  0
 17 18  1  0  0  0  0
 19 18  1  1  0  0  0
M  END
>  <CHROM.1>
-56.84357389,-50.12159498,-8.16737569,-2.55673623,-4.63164237,-3.10251327
-0.79703457,2.01721239

>  <Name>
ligand

>  <RI>
0

>  <Rbt.Current_Directory>
/home/itssahil/PROJECTS/Mol_Feturizer/New_Systems/rnas/3SKI

>  <Rbt.Executable>
rbdock ($Id: //depot/dev/client3/rdock/2013.1/src/exe/rbdock.cxx#4 $)

>  <Rbt.Library>
libRbt.so (2013.1, Build901 2013/11/27)

>  <Rbt.Parameter_File>
/export/apps/rDock/src/rDock_2013.1_src/data/scripts/dock_solv.prm

>  <Rbt.Receptor>
prm/blind_docking_60.prm

>  <SCORE>
-21.5198

>  <SCORE.INTER>
-19.1329

>  <SCORE.INTER.CONST>
1

>  <SCORE.INTER.POLAR>
0

>  <SCORE.INTER.ROT>
2

>  <SCORE.INTER.SOLV>
9.04617

>  <SCORE.INTER.VDW>
-20.704

>  <SCORE.INTER.norm>
-1.00699

>  <SCORE.INTRA>
-2.38691

>  <SCORE.INTRA.DIHEDRAL>
-5.01959

>  <SCORE.INTRA.DIHEDRAL.0>
6.26853

>  <SCORE.INTRA.POLAR>
0

>  <SCORE.INTRA.POLAR.0>
0

>  <SCORE.INTRA.REPUL>
0

>  <SCORE.INTRA.REPUL.0>
0

>  <SCORE.INTRA.SOLV>
0.229912

>  <SCORE.INTRA.SOLV.lig_0>
-38.4926

>  <SCORE.INTRA.VDW>
0.00793208

>  <SCORE.INTRA.VDW.0>
-0.59057

>  <SCORE.INTRA.norm>
-0.125627

>  <SCORE.RESTR>
0

>  <SCORE.RESTR.CAVITY>
0

>  <SCORE.RESTR.norm>
0

>  <SCORE.SYSTEM>
0

>  <SCORE.SYSTEM.CONST>
0

>  <SCORE.SYSTEM.DIHEDRAL>
0

>  <SCORE.SYSTEM.SOLV>
0

>  <SCORE.SYSTEM.norm>
0

>  <SCORE.heavy>
19

>  <SCORE.norm>
-1.13262

>  <RMSD>
15.787

$$$$
ligand
 OpenBabel11021811483D
libRbt.so/2013.1/901 2013/11/27
 19 21  0  0  0  0  0  0  0  0999 V2000
   -9.0985    0.8868   -4.0756 C   0  0  0  0  0  0  0  0  0  0  0  0
   -8.5727    1.4049   -5.3066 O   0  0  0  0  0  0  0  0  0  0  0  0
  -10.1433   -0.1956   -4.3557 C   0  0  1  0  0  0  0  0  0  0  0  0
   -9.5593   -1.2902   -5.0878 O   0  0  0  0  0  0  0  0  0  0  0  0
  -10.6977   -0.7672   -3.0627 C   0  0  1  0  0  0  0  0  0  0  0  0
  -12.0118   -0.2618   -2.7953 O   0  0  0  0  0  0  0  0  0  0  0  0
  -10.7366   -2.2672   -3.2591 C   0  0  0  0  0  0  0  0  0  0  0  0
   -9.8670   -2.5509   -4.4751 C   0  0  2  0  0  0  0  0  0  0  0  0
   -5.4107   -4.7499   -6.1777 N   0  0  0  0  0  0  0  0  0  0  0  0
   -6.4258   -4.1819   -6.8827 C   0  0  1  0  0  0  0  0  0  0  0  0
   -6.3468   -4.1414   -8.2341 N   0  0  0  0  0  0  0  0  0  0  0  0
   -7.5186   -3.6585   -6.2631 N   0  0  0  0  0  0  0  0  0  0  0  0
   -7.6487   -3.6755   -4.9087 C   0  0  2  0  0  0  0  0  0  0  0  0
   -6.6476   -4.2411   -4.1400 C   0  0  1  0  0  0  0  0  0  0  0  0
   -5.4596   -4.8070   -4.8285 C   0  0  0  0  0  0  0  0  0  0  0  0
   -4.5251   -5.3241   -4.1763 O   0  0  0  0  0  0  0  0  0  0  0  0
   -7.0078   -4.1284   -2.8497 N   0  0  0  0  0  0  0  0  0  0  0  0
   -8.2119   -3.5109   -2.8166 C   0  0  0  0  0  0  0  0  0  0  0  0
   -8.6025   -3.2357   -4.0744 N   0  0  1  0  0  0  0  0  0  0  0  0
  1  2  1  0  0  0  0
  3  1  1  1  0  0  0
  3  4  1  0  0  0  0
  3  5  1  0  0  0  0
  5  6  1  6  0  0  0
  5  7  1  0  0  0  0
  7  8  1  0  0  0  0
  8  4  1  1  0  0  0
  8 19  1  0  0  0  0
  9 15  1  0  0  0  0
  9 10  1  0  0  0  0
 10 11  1  6  0  0  0
 10 12  1  0  0  0  0
 13 12  1  6  0  0  0
 13 14  1  0  0  0  0
 13 19  1  0  0  0  0
 14 15  1  1  0  0  0
 14 17  1  0  0  0  0
 15 16  2  0  0  0  0
 17 18  1  0  0  0  0
 19 18  1  1  0  0  0
M  END
>  <CHROM.1>
60.37491080,-64.65950284,-8.17176827,-2.59111773,-4.61458968,-2.93714114
-0.77791509,2.24009187

>  <Name>
ligand

>  <RI>
0

>  <Rbt.Current_Directory>
/home/itssahil/PROJECTS/Mol_Feturizer/New_Systems/rnas/3SKI

>  <Rbt.Executable>
rbdock ($Id: //depot/dev/client3/rdock/2013.1/src/exe/rbdock.cxx#4 $)

>  <Rbt.Library>
libRbt.so (2013.1, Build901 2013/11/27)

>  <Rbt.Parameter_File>
/export/apps/rDock/src/rDock_2013.1_src/data/scripts/dock_solv.prm

>  <Rbt.Receptor>
prm/blind_docking_60.prm

>  <SCORE>
-21.8584

>  <SCORE.INTER>
-19.4957

>  <SCORE.INTER.CONST>
1

>  <SCORE.INTER.POLAR>
0

>  <SCORE.INTER.ROT>
2

>  <SCORE.INTER.SOLV>
8.90884

>  <SCORE.INTER.VDW>
-20.9001

>  <SCORE.INTER.norm>
-1.02609

>  <SCORE.INTRA>
-2.3627

>  <SCORE.INTRA.DIHEDRAL>
-5.06976

>  <SCORE.INTRA.DIHEDRAL.0>
6.26853

>  <SCORE.INTRA.POLAR>
0

>  <SCORE.INTRA.POLAR.0>
0

>  <SCORE.INTRA.REPUL>
0

>  <SCORE.INTRA.REPUL.0>
0

>  <SCORE.INTRA.SOLV>
-0.211379

>  <SCORE.INTRA.SOLV.lig_0>
-38.4926

>  <SCORE.INTRA.VDW>
0.277869

>  <SCORE.INTRA.VDW.0>
-0.59057

>  <SCORE.INTRA.norm>
-0.124353

>  <SCORE.RESTR>
0

>  <SCORE.RESTR.CAVITY>
0

>  <SCORE.RESTR.norm>
0

>  <SCORE.SYSTEM>
0

>  <SCORE.SYSTEM.CONST>
0

>  <SCORE.SYSTEM.DIHEDRAL>
0

>  <SCORE.SYSTEM.SOLV>
0

>  <SCORE.SYSTEM.norm>
0

>  <SCORE.heavy>
19

>  <SCORE.norm>
-1.15044

>  <RMSD>
15.788

$$$$
ligand
 OpenBabel11021811483D
libRbt.so/2013.1/901 2013/11/27
 19 21  0  0  0  0  0  0  0  0999 V2000
   -7.8236    0.0261   -5.6686 C   0  0  0  0  0  0  0  0  0  0  0  0
   -8.1553   -1.1079   -4.8537 O   0  0  0  0  0  0  0  0  0  0  0  0
   -8.7504    1.2013   -5.3496 C   0  0  1  0  0  0  0  0  0  0  0  0
  -10.1307    0.8146   -5.4916 O   0  0  0  0  0  0  0  0  0  0  0  0
   -8.5624    1.6721   -3.9182 C   0  0  1  0  0  0  0  0  0  0  0  0
   -7.8103    2.8910   -3.8693 O   0  0  0  0  0  0  0  0  0  0  0  0
   -9.9561    1.8870   -3.3692 C   0  0  0  0  0  0  0  0  0  0  0  0
  -10.8978    1.1849   -4.3366 C   0  0  2  0  0  0  0  0  0  0  0  0
  -14.2901   -0.6454   -0.7679 N   0  0  0  0  0  0  0  0  0  0  0  0
  -13.9778    0.6376   -1.0943 C   0  0  1  0  0  0  0  0  0  0  0  0
  -14.5939    1.6515   -0.4414 N   0  0  0  0  0  0  0  0  0  0  0  0
  -13.0593    0.9251   -2.0565 N   0  0  0  0  0  0  0  0  0  0  0  0
  -12.4101   -0.0557   -2.7406 C   0  0  2  0  0  0  0  0  0  0  0  0
  -12.6867   -1.3795   -2.4507 C   0  0  1  0  0  0  0  0  0  0  0  0
  -13.6924   -1.6796   -1.3999 C   0  0  0  0  0  0  0  0  0  0  0  0
  -13.9810   -2.8613   -1.1059 O   0  0  0  0  0  0  0  0  0  0  0  0
  -11.9293   -2.1431   -3.2572 N   0  0  0  0  0  0  0  0  0  0  0  0
  -11.1914   -1.3111   -4.0289 C   0  0  0  0  0  0  0  0  0  0  0  0
  -11.4853   -0.0370   -3.7119 N   0  0  1  0  0  0  0  0  0  0  0  0
  1  2  1  0  0  0  0
  3  1  1  1  0  0  0
  3  4  1  0  0  0  0
  3  5  1  0  0  0  0
  5  6  1  6  0  0  0
  5  7  1  0  0  0  0
  7  8  1  0  0  0  0
  8  4  1  6  0  0  0
  8 19  1  0  0  0  0
  9 15  1  0  0  0  0
  9 10  1  0  0  0  0
 10 11  1  1  0  0  0
 10 12  1  0  0  0  0
 13 12  1  1  0  0  0
 13 14  1  0  0  0  0
 13 19  1  0  0  0  0
 14 15  1  6  0  0  0
 14 17  1  0  0  0  0
 15 16  2  0  0  0  0
 17 18  1  0  0  0  0
 19 18  1  6  0  0  0
M  END
>  <CHROM.1>
-55.16639254,-169.66285350,-11.26175303,0.10132211,-3.18941062,-0.14156093
-0.62415222,-2.91779883

>  <Name>
ligand

>  <RI>
0

>  <Rbt.Current_Directory>
/home/itssahil/PROJECTS/Mol_Feturizer/New_Systems/rnas/3SKI

>  <Rbt.Executable>
rbdock ($Id: //depot/dev/client3/rdock/2013.1/src/exe/rbdock.cxx#4 $)

>  <Rbt.Library>
libRbt.so (2013.1, Build901 2013/11/27)

>  <Rbt.Parameter_File>
/export/apps/rDock/src/rDock_2013.1_src/data/scripts/dock_solv.prm

>  <Rbt.Receptor>
prm/blind_docking_60.prm

>  <SCORE>
-18.2413

>  <SCORE.INTER>
-15.2455

>  <SCORE.INTER.CONST>
1

>  <SCORE.INTER.POLAR>
0

>  <SCORE.INTER.ROT>
2

>  <SCORE.INTER.SOLV>
10.9123

>  <SCORE.INTER.VDW>
-18.7344

>  <SCORE.INTER.norm>
-0.802394

>  <SCORE.INTRA>
-2.99581

>  <SCORE.INTRA.DIHEDRAL>
-4.97054

>  <SCORE.INTRA.DIHEDRAL.0>
6.26853

>  <SCORE.INTRA.POLAR>
0

>  <SCORE.INTRA.POLAR.0>
0

>  <SCORE.INTRA.REPUL>
0

>  <SCORE.INTRA.REPUL.0>
0

>  <SCORE.INTRA.SOLV>
0.272898

>  <SCORE.INTRA.SOLV.lig_0>
-38.4926

>  <SCORE.INTRA.VDW>
-0.646988

>  <SCORE.INTRA.VDW.0>
-0.59057

>  <SCORE.INTRA.norm>
-0.157674

>  <SCORE.RESTR>
0

>  <SCORE.RESTR.CAVITY>
0

>  <SCORE.RESTR.norm>
0

>  <SCORE.SYSTEM>
0

>  <SCORE.SYSTEM.CONST>
0

>  <SCORE.SYSTEM.DIHEDRAL>
0

>  <SCORE.SYSTEM.SOLV>
0

>  <SCORE.SYSTEM.norm>
0

>  <SCORE.heavy>
19

>  <SCORE.norm>
-0.960068

>  <RMSD>
15.789

$$$$
ligand
 OpenBabel11021811483D
libRbt.so/2013.1/901 2013/11/27
 19 21  0  0  0  0  0  0  0  0999 V2000
   -9.2085    0.8718   -4.1291 C   0  0  0  0  0  0  0  0  0  0  0  0
   -8.6890    1.3776   -5.3678 O   0  0  0  0  0  0  0  0  0  0  0  0
  -10.2463   -0.2215   -4.3930 C   0  0  1  0  0  0  0  0  0  0  0  0
   -9.6547   -1.3239   -5.1069 O   0  0  0  0  0  0  0  0  0  0  0  0
  -10.7987   -0.7757   -3.0917 C   0  0  1  0  0  0  0  0  0  0  0  0
  -12.1161   -0.2743   -2.8339 O   0  0  0  0  0  0  0  0  0  0  0  0
  -10.8282   -2.2789   -3.2641 C   0  0  0  0  0  0  0  0  0  0  0  0
   -9.9553   -2.5766   -4.4745 C   0  0  2  0  0  0  0  0  0  0  0  0
   -5.4517   -4.7122   -6.1328 N   0  0  0  0  0  0  0  0  0  0  0  0
   -6.4655   -4.1540   -6.8475 C   0  0  1  0  0  0  0  0  0  0  0  0
   -6.3709   -4.1069   -8.1976 N   0  0  0  0  0  0  0  0  0  0  0  0
   -7.5721   -3.6471   -6.2388 N   0  0  0  0  0  0  0  0  0  0  0  0
   -7.7181   -3.6713   -4.8862 C   0  0  2  0  0  0  0  0  0  0  0  0
   -6.7191   -4.2276   -4.1079 C   0  0  1  0  0  0  0  0  0  0  0  0
   -5.5159   -4.7755   -4.7844 C   0  0  0  0  0  0  0  0  0  0  0  0
   -4.5827   -5.2836   -4.1233 O   0  0  0  0  0  0  0  0  0  0  0  0
   -7.0960   -4.1248   -2.8215 N   0  0  0  0  0  0  0  0  0  0  0  0
   -8.3081   -3.5227   -2.8003 C   0  0  0  0  0  0  0  0  0  0  0  0
   -8.6871   -3.2471   -4.0616 N   0  0  1  0  0  0  0  0  0  0  0  0
  1  2  1  0  0  0  0
  3  1  1  1  0  0  0
  3  4  1  0  0  0  0
  3  5  1  0  0  0  0
  5  6  1  6  0  0  0
  5  7  1  0  0  0  0
  7  8  1  0  0  0  0
  8  4  1  1  0  0  0
  8 19  1  0  0  0  0
  9 15  1  0  0  0  0
  9 10  1  0  0  0  0
 10 11  1  6  0  0  0
 10 12  1  0  0  0  0
 13 12  1  6  0  0  0
 13 14  1  0  0  0  0
 13 19  1  0  0  0  0
 14 15  1  1  0  0  0
 14 17  1  0  0  0  0
 15 16  2  0  0  0  0
 17 18  1  0  0  0  0
 19 18  1  1  0  0  0
M  END
>  <CHROM.1>
60.64266184,-63.30245568,-8.25098316,-2.59049746,-4.61027518,-2.93161004
-0.76123065,2.24011521

>  <Name>
ligand

>  <RI>
0

>  <Rbt.Current_Directory>
/home/itssahil/PROJECTS/Mol_Feturizer/New_Systems/rnas/3SKI

>  <Rbt.Executable>
rbdock ($Id: //depot/dev/client3/rdock/2013.1/src/exe/rbdock.cxx#4 $)

>  <Rbt.Library>
libRbt.so (2013.1, Build901 2013/11/27)

>  <Rbt.Parameter_File>
/export/apps/rDock/src/rDock_2013.1_src/data/scripts/dock_solv.prm

>  <Rbt.Receptor>
prm/blind_docking_60.prm

>  <SCORE>
-21.9069

>  <SCORE.INTER>
-19.5493

>  <SCORE.INTER.CONST>
1

>  <SCORE.INTER.POLAR>
0

>  <SCORE.INTER.ROT>
2

>  <SCORE.INTER.SOLV>
8.89474

>  <SCORE.INTER.VDW>
-20.9311

>  <SCORE.INTER.norm>
-1.02891

>  <SCORE.INTRA>
-2.35766

>  <SCORE.INTRA.DIHEDRAL>
-5.06739

>  <SCORE.INTRA.DIHEDRAL.0>
6.26853

>  <SCORE.INTRA.POLAR>
0

>  <SCORE.INTRA.POLAR.0>
0

>  <SCORE.INTRA.REPUL>
0

>  <SCORE.INTRA.REPUL.0>
0

>  <SCORE.INTRA.SOLV>
-0.211536

>  <SCORE.INTRA.SOLV.lig_0>
-38.4926

>  <SCORE.INTRA.VDW>
0.281806

>  <SCORE.INTRA.VDW.0>
-0.59057

>  <SCORE.INTRA.norm>
-0.124087

>  <SCORE.RESTR>
0

>  <SCORE.RESTR.CAVITY>
0

>  <SCORE.RESTR.norm>
0

>  <SCORE.SYSTEM>
0

>  <SCORE.SYSTEM.CONST>
0

>  <SCORE.SYSTEM.DIHEDRAL>
0

>  <SCORE.SYSTEM.SOLV>
0

>  <SCORE.SYSTEM.norm>
0

>  <SCORE.heavy>
19

>  <SCORE.norm>
-1.153

>  <RMSD>
15.789

$$$$
ligand
 OpenBabel11021811483D
libRbt.so/2013.1/901 2013/11/27
 19 21  0  0  0  0  0  0  0  0999 V2000
   -9.1165    0.8563   -4.2895 C   0  0  0  0  0  0  0  0  0  0  0  0
   -8.6371    1.2905   -5.5708 O   0  0  0  0  0  0  0  0  0  0  0  0
  -10.1796   -0.2314   -4.4586 C   0  0  1  0  0  0  0  0  0  0  0  0
   -9.6321   -1.3778   -5.1377 O   0  0  0  0  0  0  0  0  0  0  0  0
  -10.6897   -0.7108   -3.1111 C   0  0  1  0  0  0  0  0  0  0  0  0
  -11.9888   -0.1753   -2.8295 O   0  0  0  0  0  0  0  0  0  0  0  0
  -10.7478   -2.2200   -3.2062 C   0  0  0  0  0  0  0  0  0  0  0  0
   -9.9266   -2.5922   -4.4320 C   0  0  2  0  0  0  0  0  0  0  0  0
   -5.4435   -4.7297   -6.1425 N   0  0  0  0  0  0  0  0  0  0  0  0
   -6.4660   -4.1724   -6.8455 C   0  0  1  0  0  0  0  0  0  0  0  0
   -6.3878   -4.1269   -8.1967 N   0  0  0  0  0  0  0  0  0  0  0  0
   -7.5650   -3.6647   -6.2239 N   0  0  0  0  0  0  0  0  0  0  0  0
   -7.6945   -3.6874   -4.8696 C   0  0  2  0  0  0  0  0  0  0  0  0
   -6.6861   -4.2427   -4.1028 C   0  0  1  0  0  0  0  0  0  0  0  0
   -5.4913   -4.7915   -4.7934 C   0  0  0  0  0  0  0  0  0  0  0  0
   -4.5501   -5.2988   -4.1430 O   0  0  0  0  0  0  0  0  0  0  0  0
   -7.0473   -4.1384   -2.8121 N   0  0  0  0  0  0  0  0  0  0  0  0
   -8.2591   -3.5362   -2.7769 C   0  0  0  0  0  0  0  0  0  0  0  0
   -8.6534   -3.2622   -4.0337 N   0  0  1  0  0  0  0  0  0  0  0  0
  1  2  1  0  0  0  0
  3  1  1  1  0  0  0
  3  4  1  0  0  0  0
  3  5  1  0  0  0  0
  5  6  1  6  0  0  0
  5  7  1  0  0  0  0
  7  8  1  0  0  0  0
  8  4  1  1  0  0  0
  8 19  1  0  0  0  0
  9 15  1  0  0  0  0
  9 10  1  0  0  0  0
 10 11  1  6  0  0  0
 10 12  1  0  0  0  0
 13 12  1  6  0  0  0
 13 14  1  0  0  0  0
 13 19  1  0  0  0  0
 14 15  1  1  0  0  0
 14 17  1  0  0  0  0
 15 16  2  0  0  0  0
 17 18  1  0  0  0  0
 19 18  1  1  0  0  0
M  END
>  <CHROM.1>
60.61084200,-60.00145033,-8.20689487,-2.59784609,-4.62908052,-2.93846094
-0.76983629,2.21400379

>  <Name>
ligand

>  <RI>
0

>  <Rbt.Current_Directory>
/home/itssahil/PROJECTS/Mol_Feturizer/New_Systems/rnas/3SKI

>  <Rbt.Executable>
rbdock ($Id: //depot/dev/client3/rdock/2013.1/src/exe/rbdock.cxx#4 $)

>  <Rbt.Library>
libRbt.so (2013.1, Build901 2013/11/27)

>  <Rbt.Parameter_File>
/export/apps/rDock/src/rDock_2013.1_src/data/scripts/dock_solv.prm

>  <Rbt.Receptor>
prm/blind_docking_100.prm

>  <SCORE>
-21.9228

>  <SCORE.INTER>
-19.5546

>  <SCORE.INTER.CONST>
1

>  <SCORE.INTER.POLAR>
0

>  <SCORE.INTER.ROT>
2

>  <SCORE.INTER.SOLV>
8.93388

>  <SCORE.INTER.VDW>
-20.9477

>  <SCORE.INTER.norm>
-1.02919

>  <SCORE.INTRA>
-2.36814

>  <SCORE.INTRA.DIHEDRAL>
-5.06434

>  <SCORE.INTRA.DIHEDRAL.0>
6.26853

>  <SCORE.INTRA.POLAR>
0

>  <SCORE.INTRA.POLAR.0>
0

>  <SCORE.INTRA.REPUL>
0

>  <SCORE.INTRA.REPUL.0>
0

>  <SCORE.INTRA.SOLV>
-0.209395

>  <SCORE.INTRA.SOLV.lig_0>
-38.4926

>  <SCORE.INTRA.VDW>
0.268723

>  <SCORE.INTRA.VDW.0>
-0.59057

>  <SCORE.INTRA.norm>
-0.124639

>  <SCORE.RESTR>
0

>  <SCORE.RESTR.CAVITY>
0

>  <SCORE.RESTR.norm>
0

>  <SCORE.SYSTEM>
0

>  <SCORE.SYSTEM.CONST>
0

>  <SCORE.SYSTEM.DIHEDRAL>
0

>  <SCORE.SYSTEM.SOLV>
0

>  <SCORE.SYSTEM.norm>
0

>  <SCORE.heavy>
19

>  <SCORE.norm>
-1.15383

>  <RMSD>
15.804

$$$$
ligand
 OpenBabel11021811483D
libRbt.so/2013.1/901 2013/11/27
 19 21  0  0  0  0  0  0  0  0999 V2000
   -9.0145    0.8631   -4.7439 C   0  0  0  0  0  0  0  0  0  0  0  0
   -9.4933    2.1236   -4.2519 O   0  0  0  0  0  0  0  0  0  0  0  0
  -10.1349   -0.1790   -4.7201 C   0  0  1  0  0  0  0  0  0  0  0  0
   -9.6868   -1.4221   -5.2937 O   0  0  0  0  0  0  0  0  0  0  0  0
  -10.5749   -0.4754   -3.2973 C   0  0  1  0  0  0  0  0  0  0  0  0
  -11.8265    0.1564   -3.0008 O   0  0  0  0  0  0  0  0  0  0  0  0
  -10.7079   -1.9804   -3.2127 C   0  0  0  0  0  0  0  0  0  0  0  0
   -9.9884   -2.5317   -4.4350 C   0  0  2  0  0  0  0  0  0  0  0  0
   -5.4806   -4.6150   -6.1476 N   0  0  0  0  0  0  0  0  0  0  0  0
   -6.4901   -4.0299   -6.8466 C   0  0  1  0  0  0  0  0  0  0  0  0
   -6.3892   -3.9348   -8.1938 N   0  0  0  0  0  0  0  0  0  0  0  0
   -7.5987   -3.5429   -6.2254 N   0  0  0  0  0  0  0  0  0  0  0  0
   -7.7510   -3.6151   -4.8752 C   0  0  2  0  0  0  0  0  0  0  0  0
   -6.7566   -4.2006   -4.1125 C   0  0  1  0  0  0  0  0  0  0  0  0
   -5.5512   -4.7263   -4.8027 C   0  0  0  0  0  0  0  0  0  0  0  0
   -4.6220   -5.2593   -4.1557 O   0  0  0  0  0  0  0  0  0  0  0  0
   -7.1394   -4.1431   -2.8251 N   0  0  0  0  0  0  0  0  0  0  0  0
   -8.3505   -3.5398   -2.7880 C   0  0  0  0  0  0  0  0  0  0  0  0
   -8.7232   -3.2188   -4.0404 N   0  0  1  0  0  0  0  0  0  0  0  0
  1  2  1  0  0  0  0
  3  1  1  1  0  0  0
  3  4  1  0  0  0  0
  3  5  1  0  0  0  0
  5  6  1  6  0  0  0
  5  7  1  0  0  0  0
  7  8  1  0  0  0  0
  8  4  1  6  0  0  0
  8 19  1  0  0  0  0
  9 15  1  0  0  0  0
  9 10  1  0  0  0  0
 10 11  1  6  0  0  0
 10 12  1  0  0  0  0
 13 12  1  6  0  0  0
 13 14  1  0  0  0  0
 13 19  1  0  0  0  0
 14 15  1  1  0  0  0
 14 17  1  0  0  0  0
 15 16  2  0  0  0  0
 17 18  1  0  0  0  0
 19 18  1  1  0  0  0
M  END
>  <CHROM.1>
176.24063257,-49.77231361,-8.27112686,-2.45648265,-4.61926534,-2.93384393
-0.81302685,2.17486107

>  <Name>
ligand

>  <RI>
0

>  <Rbt.Current_Directory>
/home/itssahil/PROJECTS/Mol_Feturizer/New_Systems/rnas/3SKI

>  <Rbt.Executable>
rbdock ($Id: //depot/dev/client3/rdock/2013.1/src/exe/rbdock.cxx#4 $)

>  <Rbt.Library>
libRbt.so (2013.1, Build901 2013/11/27)

>  <Rbt.Parameter_File>
/export/apps/rDock/src/rDock_2013.1_src/data/scripts/dock_solv.prm

>  <Rbt.Receptor>
prm/blind_docking_40.prm

>  <SCORE>
-21.5448

>  <SCORE.INTER>
-19.2927

>  <SCORE.INTER.CONST>
1

>  <SCORE.INTER.POLAR>
0

>  <SCORE.INTER.ROT>
2

>  <SCORE.INTER.SOLV>
8.68808

>  <SCORE.INTER.VDW>
-20.6911

>  <SCORE.INTER.norm>
-1.0154

>  <SCORE.INTRA>
-2.25212

>  <SCORE.INTRA.DIHEDRAL>
-5.00676

>  <SCORE.INTRA.DIHEDRAL.0>
6.26853

>  <SCORE.INTRA.POLAR>
0

>  <SCORE.INTRA.POLAR.0>
0

>  <SCORE.INTRA.REPUL>
0

>  <SCORE.INTRA.REPUL.0>
0

>  <SCORE.INTRA.SOLV>
0.00838248

>  <SCORE.INTRA.SOLV.lig_0>
-38.4926

>  <SCORE.INTRA.VDW>
0.247068

>  <SCORE.INTRA.VDW.0>
-0.59057

>  <SCORE.INTRA.norm>
-0.118533

>  <SCORE.RESTR>
0

>  <SCORE.RESTR.CAVITY>
0

>  <SCORE.RESTR.norm>
0

>  <SCORE.SYSTEM>
0

>  <SCORE.SYSTEM.CONST>
0

>  <SCORE.SYSTEM.DIHEDRAL>
0

>  <SCORE.SYSTEM.SOLV>
0

>  <SCORE.SYSTEM.norm>
0

>  <SCORE.heavy>
19

>  <SCORE.norm>
-1.13394

>  <RMSD>
15.833

$$$$
ligand
 OpenBabel11021811483D
libRbt.so/2013.1/901 2013/11/27
 19 21  0  0  0  0  0  0  0  0999 V2000
   -8.9158    0.7993   -5.1211 C   0  0  0  0  0  0  0  0  0  0  0  0
   -7.7350    0.3499   -4.4399 O   0  0  0  0  0  0  0  0  0  0  0  0
  -10.0601   -0.1963   -4.9180 C   0  0  1  0  0  0  0  0  0  0  0  0
   -9.6871   -1.5047   -5.3914 O   0  0  0  0  0  0  0  0  0  0  0  0
  -10.4084   -0.3352   -3.4465 C   0  0  1  0  0  0  0  0  0  0  0  0
  -11.6186    0.3654   -3.1332 O   0  0  0  0  0  0  0  0  0  0  0  0
  -10.5764   -1.8190   -3.2016 C   0  0  0  0  0  0  0  0  0  0  0  0
   -9.9587   -2.5129   -4.4068 C   0  0  2  0  0  0  0  0  0  0  0  0
   -5.4848   -4.6162   -6.1824 N   0  0  0  0  0  0  0  0  0  0  0  0
   -6.5046   -4.0329   -6.8679 C   0  0  1  0  0  0  0  0  0  0  0  0
   -6.4260   -3.9459   -8.2171 N   0  0  0  0  0  0  0  0  0  0  0  0
   -7.6016   -3.5398   -6.2310 N   0  0  0  0  0  0  0  0  0  0  0  0
   -7.7314   -3.6039   -4.8781 C   0  0  2  0  0  0  0  0  0  0  0  0
   -6.7256   -4.1871   -4.1288 C   0  0  1  0  0  0  0  0  0  0  0  0
   -5.5331   -4.7195   -4.8359 C   0  0  0  0  0  0  0  0  0  0  0  0
   -4.5943   -5.2508   -4.2015 O   0  0  0  0  0  0  0  0  0  0  0  0
   -7.0866   -4.1212   -2.8355 N   0  0  0  0  0  0  0  0  0  0  0  0
   -8.2957   -3.5150   -2.7817 C   0  0  0  0  0  0  0  0  0  0  0  0
   -8.6886   -3.2005   -4.0295 N   0  0  1  0  0  0  0  0  0  0  0  0
  1  2  1  0  0  0  0
  3  1  1  1  0  0  0
  3  4  1  0  0  0  0
  3  5  1  0  0  0  0
  5  6  1  6  0  0  0
  5  7  1  0  0  0  0
  7  8  1  0  0  0  0
  8  4  1  6  0  0  0
  8 19  1  0  0  0  0
  9 15  1  0  0  0  0
  9 10  1  0  0  0  0
 10 11  1  6  0  0  0
 10 12  1  0  0  0  0
 13 12  1  6  0  0  0
 13 14  1  0  0  0  0
 13 19  1  0  0  0  0
 14 15  1  1  0  0  0
 14 17  1  0  0  0  0
 15 16  2  0  0  0  0
 17 18  1  0  0  0  0
 19 18  1  1  0  0  0
M  END
>  <CHROM.1>
-57.99529524,-43.40232870,-8.11577739,-2.54046378,-4.68973724,-3.04228404
-0.79664121,2.05216291

>  <Name>
ligand

>  <RI>
0

>  <Rbt.Current_Directory>
/home/itssahil/PROJECTS/Mol_Feturizer/New_Systems/rnas/3SKI

>  <Rbt.Executable>
rbdock ($Id: //depot/dev/client3/rdock/2013.1/src/exe/rbdock.cxx#4 $)

>  <Rbt.Library>
libRbt.so (2013.1, Build901 2013/11/27)

>  <Rbt.Parameter_File>
/export/apps/rDock/src/rDock_2013.1_src/data/scripts/dock_solv.prm

>  <Rbt.Receptor>
prm/blind_docking_40.prm

>  <SCORE>
-21.399

>  <SCORE.INTER>
-18.9382

>  <SCORE.INTER.CONST>
1

>  <SCORE.INTER.POLAR>
0

>  <SCORE.INTER.ROT>
2

>  <SCORE.INTER.SOLV>
8.58883

>  <SCORE.INTER.VDW>
-20.4218

>  <SCORE.INTER.norm>
-0.996749

>  <SCORE.INTRA>
-2.46079

>  <SCORE.INTRA.DIHEDRAL>
-5.03633

>  <SCORE.INTRA.DIHEDRAL.0>
6.26853

>  <SCORE.INTRA.POLAR>
0

>  <SCORE.INTRA.POLAR.0>
0

>  <SCORE.INTRA.REPUL>
0

>  <SCORE.INTRA.REPUL.0>
0

>  <SCORE.INTRA.SOLV>
0.237579

>  <SCORE.INTRA.SOLV.lig_0>
-38.4926

>  <SCORE.INTRA.VDW>
-0.0614176

>  <SCORE.INTRA.VDW.0>
-0.59057

>  <SCORE.INTRA.norm>
-0.129516

>  <SCORE.RESTR>
0

>  <SCORE.RESTR.CAVITY>
0

>  <SCORE.RESTR.norm>
0

>  <SCORE.SYSTEM>
0

>  <SCORE.SYSTEM.CONST>
0

>  <SCORE.SYSTEM.DIHEDRAL>
0

>  <SCORE.SYSTEM.SOLV>
0

>  <SCORE.SYSTEM.norm>
0

>  <SCORE.heavy>
19

>  <SCORE.norm>
-1.12626

>  <RMSD>
15.839

$$$$
ligand
 OpenBabel11021811483D
libRbt.so/2013.1/901 2013/11/27
 19 21  0  0  0  0  0  0  0  0999 V2000
   -7.7668   -0.0391   -5.8806 C   0  0  0  0  0  0  0  0  0  0  0  0
   -8.0810   -1.1845   -5.0746 O   0  0  0  0  0  0  0  0  0  0  0  0
   -8.6521    1.1465   -5.4903 C   0  0  1  0  0  0  0  0  0  0  0  0
  -10.0458    0.7970   -5.5925 O   0  0  0  0  0  0  0  0  0  0  0  0
   -8.4001    1.5664   -4.0529 C   0  0  1  0  0  0  0  0  0  0  0  0
   -7.6170    2.7651   -3.9941 O   0  0  0  0  0  0  0  0  0  0  0  0
   -9.7670    1.7960   -3.4456 C   0  0  0  0  0  0  0  0  0  0  0  0
  -10.7606    1.1477   -4.3985 C   0  0  2  0  0  0  0  0  0  0  0  0
  -14.2141   -0.7140   -0.9055 N   0  0  0  0  0  0  0  0  0  0  0  0
  -13.9015    0.5719   -1.2201 C   0  0  1  0  0  0  0  0  0  0  0  0
  -14.5352    1.5801   -0.5752 N   0  0  0  0  0  0  0  0  0  0  0  0
  -12.9656    0.8679   -2.1627 N   0  0  0  0  0  0  0  0  0  0  0  0
  -12.2983   -0.1069   -2.8381 C   0  0  2  0  0  0  0  0  0  0  0  0
  -12.5744   -1.4333   -2.5594 C   0  0  1  0  0  0  0  0  0  0  0  0
  -13.5992   -1.7426   -1.5300 C   0  0  0  0  0  0  0  0  0  0  0  0
  -13.8880   -2.9269   -1.2468 O   0  0  0  0  0  0  0  0  0  0  0  0
  -11.7975   -2.1898   -3.3540 N   0  0  0  0  0  0  0  0  0  0  0  0
  -11.0485   -1.3510   -4.1074 C   0  0  0  0  0  0  0  0  0  0  0  0
  -11.3546   -0.0796   -3.7908 N   0  0  1  0  0  0  0  0  0  0  0  0
  1  2  1  0  0  0  0
  3  1  1  1  0  0  0
  3  4  1  0  0  0  0
  3  5  1  0  0  0  0
  5  6  1  6  0  0  0
  5  7  1  0  0  0  0
  7  8  1  0  0  0  0
  8  4  1  6  0  0  0
  8 19  1  0  0  0  0
  9 15  1  0  0  0  0
  9 10  1  0  0  0  0
 10 11  1  1  0  0  0
 10 12  1  0  0  0  0
 13 12  1  1  0  0  0
 13 14  1  0  0  0  0
 13 19  1  0  0  0  0
 14 15  1  6  0  0  0
 14 17  1  0  0  0  0
 15 16  2  0  0  0  0
 17 18  1  0  0  0  0
 19 18  1  6  0  0  0
M  END
>  <CHROM.1>
-56.11683530,-165.68578807,-11.15043683,0.03762314,-3.31223573,-0.13299424
-0.62302882,-2.91147836

>  <Name>
ligand

>  <RI>
0

>  <Rbt.Current_Directory>
/home/itssahil/PROJECTS/Mol_Feturizer/New_Systems/rnas/3SKI

>  <Rbt.Executable>
rbdock ($Id: //depot/dev/client3/rdock/2013.1/src/exe/rbdock.cxx#4 $)

>  <Rbt.Library>
libRbt.so (2013.1, Build901 2013/11/27)

>  <Rbt.Parameter_File>
/export/apps/rDock/src/rDock_2013.1_src/data/scripts/dock_solv.prm

>  <Rbt.Receptor>
prm/blind_docking_20.prm

>  <SCORE>
-18.1226

>  <SCORE.INTER>
-15.0921

>  <SCORE.INTER.CONST>
1

>  <SCORE.INTER.POLAR>
0

>  <SCORE.INTER.ROT>
2

>  <SCORE.INTER.SOLV>
11.2516

>  <SCORE.INTER.VDW>
-18.7453

>  <SCORE.INTER.norm>
-0.79432

>  <SCORE.INTRA>
-3.03048

>  <SCORE.INTRA.DIHEDRAL>
-4.99743

>  <SCORE.INTRA.DIHEDRAL.0>
6.26853

>  <SCORE.INTRA.POLAR>
0

>  <SCORE.INTRA.POLAR.0>
0

>  <SCORE.INTRA.REPUL>
0

>  <SCORE.INTRA.REPUL.0>
0

>  <SCORE.INTRA.SOLV>
0.279067

>  <SCORE.INTRA.SOLV.lig_0>
-38.4926

>  <SCORE.INTRA.VDW>
-0.671305

>  <SCORE.INTRA.VDW.0>
-0.59057

>  <SCORE.INTRA.norm>
-0.159499

>  <SCORE.RESTR>
0

>  <SCORE.RESTR.CAVITY>
0

>  <SCORE.RESTR.norm>
0

>  <SCORE.SYSTEM>
0

>  <SCORE.SYSTEM.CONST>
0

>  <SCORE.SYSTEM.DIHEDRAL>
0

>  <SCORE.SYSTEM.SOLV>
0

>  <SCORE.SYSTEM.norm>
0

>  <SCORE.heavy>
19

>  <SCORE.norm>
-0.953819

>  <RMSD>
15.845

$$$$
ligand
 OpenBabel11021811483D
libRbt.so/2013.1/901 2013/11/27
 19 21  0  0  0  0  0  0  0  0999 V2000
   -7.8075    0.2250   -5.7956 C   0  0  0  0  0  0  0  0  0  0  0  0
   -8.0888   -0.9323   -4.9945 O   0  0  0  0  0  0  0  0  0  0  0  0
   -8.7350    1.3793   -5.4092 C   0  0  1  0  0  0  0  0  0  0  0  0
  -10.1155    0.9893   -5.5400 O   0  0  0  0  0  0  0  0  0  0  0  0
   -8.5213    1.7909   -3.9632 C   0  0  1  0  0  0  0  0  0  0  0  0
   -7.7759    3.0118   -3.8778 O   0  0  0  0  0  0  0  0  0  0  0  0
   -9.9050    1.9727   -3.3783 C   0  0  0  0  0  0  0  0  0  0  0  0
  -10.8616    1.3054   -4.3555 C   0  0  2  0  0  0  0  0  0  0  0  0
  -14.2348   -0.6959   -0.8614 N   0  0  0  0  0  0  0  0  0  0  0  0
  -13.9451    0.6021   -1.1468 C   0  0  1  0  0  0  0  0  0  0  0  0
  -14.5829    1.5839   -0.4664 N   0  0  0  0  0  0  0  0  0  0  0  0
  -13.0279    0.9359   -2.0952 N   0  0  0  0  0  0  0  0  0  0  0  0
  -12.3575   -0.0113   -2.8058 C   0  0  2  0  0  0  0  0  0  0  0  0
  -12.6107   -1.3483   -2.5578 C   0  0  1  0  0  0  0  0  0  0  0  0
  -13.6152   -1.6991   -1.5217 C   0  0  0  0  0  0  0  0  0  0  0  0
  -13.8830   -2.8943   -1.2653 O   0  0  0  0  0  0  0  0  0  0  0  0
  -11.8356   -2.0727   -3.3835 N   0  0  0  0  0  0  0  0  0  0  0  0
  -11.1099   -1.2039   -4.1257 C   0  0  0  0  0  0  0  0  0  0  0  0
  -11.4290    0.0543   -3.7714 N   0  0  1  0  0  0  0  0  0  0  0  0
  1  2  1  0  0  0  0
  3  1  1  1  0  0  0
  3  4  1  0  0  0  0
  3  5  1  0  0  0  0
  5  6  1  6  0  0  0
  5  7  1  0  0  0  0
  7  8  1  0  0  0  0
  8  4  1  6  0  0  0
  8 19  1  0  0  0  0
  9 15  1  0  0  0  0
  9 10  1  0  0  0  0
 10 11  1  1  0  0  0
 10 12  1  0  0  0  0
 13 12  1  1  0  0  0
 13 14  1  0  0  0  0
 13 19  1  0  0  0  0
 14 15  1  6  0  0  0
 14 17  1  0  0  0  0
 15 16  2  0  0  0  0
 17 18  1  0  0  0  0
 19 18  1  6  0  0  0
M  END
>  <CHROM.1>
-56.91558837,-167.96328091,-11.21241537,0.17302454,-3.26354005,-0.15812516
-0.63020348,-2.89948253

>  <Name>
ligand

>  <RI>
0

>  <Rbt.Current_Directory>
/home/itssahil/PROJECTS/Mol_Feturizer/New_Systems/rnas/3SKI

>  <Rbt.Executable>
rbdock ($Id: //depot/dev/client3/rdock/2013.1/src/exe/rbdock.cxx#4 $)

>  <Rbt.Library>
libRbt.so (2013.1, Build901 2013/11/27)

>  <Rbt.Parameter_File>
/export/apps/rDock/src/rDock_2013.1_src/data/scripts/dock_solv.prm

>  <Rbt.Receptor>
prm/blind_docking_80.prm

>  <SCORE>
-18.1723

>  <SCORE.INTER>
-15.1505

>  <SCORE.INTER.CONST>
1

>  <SCORE.INTER.POLAR>
0

>  <SCORE.INTER.ROT>
2

>  <SCORE.INTER.SOLV>
11.1126

>  <SCORE.INTER.VDW>
-18.7379

>  <SCORE.INTER.norm>
-0.797392

>  <SCORE.INTRA>
-3.02186

>  <SCORE.INTRA.DIHEDRAL>
-5.01945

>  <SCORE.INTRA.DIHEDRAL.0>
6.26853

>  <SCORE.INTRA.POLAR>
0

>  <SCORE.INTRA.POLAR.0>
0

>  <SCORE.INTRA.REPUL>
0

>  <SCORE.INTRA.REPUL.0>
0

>  <SCORE.INTRA.SOLV>
0.276947

>  <SCORE.INTRA.SOLV.lig_0>
-38.4926

>  <SCORE.INTRA.VDW>
-0.650608

>  <SCORE.INTRA.VDW.0>
-0.59057

>  <SCORE.INTRA.norm>
-0.159045

>  <SCORE.RESTR>
0

>  <SCORE.RESTR.CAVITY>
0

>  <SCORE.RESTR.norm>
0

>  <SCORE.SYSTEM>
0

>  <SCORE.SYSTEM.CONST>
0

>  <SCORE.SYSTEM.DIHEDRAL>
0

>  <SCORE.SYSTEM.SOLV>
0

>  <SCORE.SYSTEM.norm>
0

>  <SCORE.heavy>
19

>  <SCORE.norm>
-0.956438

>  <RMSD>
15.864

$$$$
ligand
 OpenBabel11021811483D
libRbt.so/2013.1/901 2013/11/27
 19 21  0  0  0  0  0  0  0  0999 V2000
   -8.8335    0.7746   -5.2491 C   0  0  0  0  0  0  0  0  0  0  0  0
   -7.6350    0.3088   -4.6113 O   0  0  0  0  0  0  0  0  0  0  0  0
   -9.9971   -0.1750   -4.9558 C   0  0  1  0  0  0  0  0  0  0  0  0
   -9.6882   -1.5110   -5.3972 O   0  0  0  0  0  0  0  0  0  0  0  0
  -10.2786   -0.2499   -3.4655 C   0  0  1  0  0  0  0  0  0  0  0  0
  -11.4500    0.5008   -3.1221 O   0  0  0  0  0  0  0  0  0  0  0  0
  -10.4809   -1.7178   -3.1581 C   0  0  0  0  0  0  0  0  0  0  0  0
   -9.9436   -2.4740   -4.3643 C   0  0  2  0  0  0  0  0  0  0  0  0
   -5.5198   -4.5865   -6.2513 N   0  0  0  0  0  0  0  0  0  0  0  0
   -6.5393   -3.9704   -6.9079 C   0  0  1  0  0  0  0  0  0  0  0  0
   -6.4750   -3.8463   -8.2550 N   0  0  0  0  0  0  0  0  0  0  0  0
   -7.6220   -3.4807   -6.2445 N   0  0  0  0  0  0  0  0  0  0  0  0
   -7.7371   -3.5812   -4.8924 C   0  0  2  0  0  0  0  0  0  0  0  0
   -6.7309   -4.1989   -4.1718 C   0  0  1  0  0  0  0  0  0  0  0  0
   -5.5540   -4.7271   -4.9077 C   0  0  0  0  0  0  0  0  0  0  0  0
   -4.6155   -5.2888   -4.2997 O   0  0  0  0  0  0  0  0  0  0  0  0
   -7.0761   -4.1647   -2.8729 N   0  0  0  0  0  0  0  0  0  0  0  0
   -8.2760   -3.5440   -2.7878 C   0  0  0  0  0  0  0  0  0  0  0  0
   -8.6788   -3.1891   -4.0215 N   0  0  1  0  0  0  0  0  0  0  0  0
  1  2  1  0  0  0  0
  3  1  1  1  0  0  0
  3  4  1  0  0  0  0
  3  5  1  0  0  0  0
  5  6  1  6  0  0  0
  5  7  1  0  0  0  0
  7  8  1  0  0  0  0
  8  4  1  6  0  0  0
  8 19  1  0  0  0  0
  9 15  1  0  0  0  0
  9 10  1  0  0  0  0
 10 11  1  6  0  0  0
 10 12  1  0  0  0  0
 13 12  1  6  0  0  0
 13 14  1  0  0  0  0
 13 19  1  0  0  0  0
 14 15  1  1  0  0  0
 14 17  1  0  0  0  0
 15 16  2  0  0  0  0
 17 18  1  0  0  0  0
 19 18  1  1  0  0  0
M  END
>  <CHROM.1>
-57.80647722,-39.04482291,-8.08745159,-2.51595741,-4.72725055,-3.01663327
-0.81103845,2.08471783

>  <Name>
ligand

>  <RI>
0

>  <Rbt.Current_Directory>
/home/itssahil/PROJECTS/Mol_Feturizer/New_Systems/rnas/3SKI

>  <Rbt.Executable>
rbdock ($Id: //depot/dev/client3/rdock/2013.1/src/exe/rbdock.cxx#4 $)

>  <Rbt.Library>
libRbt.so (2013.1, Build901 2013/11/27)

>  <Rbt.Parameter_File>
/export/apps/rDock/src/rDock_2013.1_src/data/scripts/dock_solv.prm

>  <Rbt.Receptor>
prm/blind_docking_60.prm

>  <SCORE>
-21.4153

>  <SCORE.INTER>
-18.8582

>  <SCORE.INTER.CONST>
1

>  <SCORE.INTER.POLAR>
0

>  <SCORE.INTER.ROT>
2

>  <SCORE.INTER.SOLV>
8.34464

>  <SCORE.INTER.VDW>
-20.287

>  <SCORE.INTER.norm>
-0.992535

>  <SCORE.INTRA>
-2.55711

>  <SCORE.INTRA.DIHEDRAL>
-5.031

>  <SCORE.INTRA.DIHEDRAL.0>
6.26853

>  <SCORE.INTRA.POLAR>
0

>  <SCORE.INTRA.POLAR.0>
0

>  <SCORE.INTRA.REPUL>
0

>  <SCORE.INTRA.REPUL.0>
0

>  <SCORE.INTRA.SOLV>
0.242391

>  <SCORE.INTRA.SOLV.lig_0>
-38.4926

>  <SCORE.INTRA.VDW>
-0.162806

>  <SCORE.INTRA.VDW.0>
-0.59057

>  <SCORE.INTRA.norm>
-0.134585

>  <SCORE.RESTR>
0

>  <SCORE.RESTR.CAVITY>
0

>  <SCORE.RESTR.norm>
0

>  <SCORE.SYSTEM>
0

>  <SCORE.SYSTEM.CONST>
0

>  <SCORE.SYSTEM.DIHEDRAL>
0

>  <SCORE.SYSTEM.SOLV>
0

>  <SCORE.SYSTEM.norm>
0

>  <SCORE.heavy>
19

>  <SCORE.norm>
-1.12712

>  <RMSD>
15.875

$$$$
ligand
 OpenBabel11021811483D
libRbt.so/2013.1/901 2013/11/27
 19 21  0  0  0  0  0  0  0  0999 V2000
   -9.0501    0.9162   -4.5250 C   0  0  0  0  0  0  0  0  0  0  0  0
   -8.6039    1.2743   -5.8414 O   0  0  0  0  0  0  0  0  0  0  0  0
  -10.1480   -0.1469   -4.6051 C   0  0  1  0  0  0  0  0  0  0  0  0
   -9.6532   -1.3438   -5.2358 O   0  0  0  0  0  0  0  0  0  0  0  0
  -10.6315   -0.5381   -3.2197 C   0  0  1  0  0  0  0  0  0  0  0  0
  -11.9061    0.0501   -2.9316 O   0  0  0  0  0  0  0  0  0  0  0  0
  -10.7349   -2.0478   -3.2310 C   0  0  0  0  0  0  0  0  0  0  0  0
   -9.9609   -2.5094   -4.4571 C   0  0  2  0  0  0  0  0  0  0  0  0
   -5.4899   -4.6743   -6.1649 N   0  0  0  0  0  0  0  0  0  0  0  0
   -6.5038   -4.1015   -6.8679 C   0  0  1  0  0  0  0  0  0  0  0  0
   -6.4188   -4.0452   -8.2183 N   0  0  0  0  0  0  0  0  0  0  0  0
   -7.6010   -3.5888   -6.2472 N   0  0  0  0  0  0  0  0  0  0  0  0
   -7.7371   -3.6217   -4.8937 C   0  0  2  0  0  0  0  0  0  0  0  0
   -6.7376   -4.1930   -4.1270 C   0  0  1  0  0  0  0  0  0  0  0  0
   -5.5446   -4.7470   -4.8166 C   0  0  0  0  0  0  0  0  0  0  0  0
   -4.6114   -5.2686   -4.1662 O   0  0  0  0  0  0  0  0  0  0  0  0
   -7.1039   -4.0962   -2.8371 N   0  0  0  0  0  0  0  0  0  0  0  0
   -8.3101   -3.4830   -2.8024 C   0  0  0  0  0  0  0  0  0  0  0  0
   -8.6960   -3.1946   -4.0587 N   0  0  1  0  0  0  0  0  0  0  0  0
  1  2  1  0  0  0  0
  3  1  1  1  0  0  0
  3  4  1  0  0  0  0
  3  5  1  0  0  0  0
  5  6  1  6  0  0  0
  5  7  1  0  0  0  0
  7  8  1  0  0  0  0
  8  4  1  6  0  0  0
  8 19  1  0  0  0  0
  9 15  1  0  0  0  0
  9 10  1  0  0  0  0
 10 11  1  6  0  0  0
 10 12  1  0  0  0  0
 13 12  1  6  0  0  0
 13 14  1  0  0  0  0
 13 19  1  0  0  0  0
 14 15  1  1  0  0  0
 14 17  1  0  0  0  0
 15 16  2  0  0  0  0
 17 18  1  0  0  0  0
 19 18  1  1  0  0  0
M  END
>  <CHROM.1>
61.06309777,-55.78936180,-8.22006723,-2.52131433,-4.69906971,-2.91886003
-0.77593380,2.20823487

>  <Name>
ligand

>  <RI>
0

>  <Rbt.Current_Directory>
/home/itssahil/PROJECTS/Mol_Feturizer/New_Systems/rnas/3SKI

>  <Rbt.Executable>
rbdock ($Id: //depot/dev/client3/rdock/2013.1/src/exe/rbdock.cxx#4 $)

>  <Rbt.Library>
libRbt.so (2013.1, Build901 2013/11/27)

>  <Rbt.Parameter_File>
/export/apps/rDock/src/rDock_2013.1_src/data/scripts/dock_solv.prm

>  <Rbt.Receptor>
prm/blind_docking_40.prm

>  <SCORE>
-21.6592

>  <SCORE.INTER>
-19.2839

>  <SCORE.INTER.CONST>
1

>  <SCORE.INTER.POLAR>
0

>  <SCORE.INTER.ROT>
2

>  <SCORE.INTER.SOLV>
8.60132

>  <SCORE.INTER.VDW>
-20.6564

>  <SCORE.INTER.norm>
-1.01494

>  <SCORE.INTRA>
-2.37529

>  <SCORE.INTRA.DIHEDRAL>
-5.05736

>  <SCORE.INTRA.DIHEDRAL.0>
6.26853

>  <SCORE.INTRA.POLAR>
0

>  <SCORE.INTRA.POLAR.0>
0

>  <SCORE.INTRA.REPUL>
0

>  <SCORE.INTRA.REPUL.0>
0

>  <SCORE.INTRA.SOLV>
-0.208394

>  <SCORE.INTRA.SOLV.lig_0>
-38.4926

>  <SCORE.INTRA.VDW>
0.257583

>  <SCORE.INTRA.VDW.0>
-0.59057

>  <SCORE.INTRA.norm>
-0.125015

>  <SCORE.RESTR>
0

>  <SCORE.RESTR.CAVITY>
0

>  <SCORE.RESTR.norm>
0

>  <SCORE.SYSTEM>
0

>  <SCORE.SYSTEM.CONST>
0

>  <SCORE.SYSTEM.DIHEDRAL>
0

>  <SCORE.SYSTEM.SOLV>
0

>  <SCORE.SYSTEM.norm>
0

>  <SCORE.heavy>
19

>  <SCORE.norm>
-1.13996

>  <RMSD>
15.882

$$$$
ligand
 OpenBabel11021811483D
libRbt.so/2013.1/901 2013/11/27
 19 21  0  0  0  0  0  0  0  0999 V2000
   -7.4721   -0.0642   -5.5763 C   0  0  0  0  0  0  0  0  0  0  0  0
   -6.1204    0.4043   -5.4597 O   0  0  0  0  0  0  0  0  0  0  0  0
   -8.4555    1.0936   -5.3918 C   0  0  1  0  0  0  0  0  0  0  0  0
   -9.8086    0.6535   -5.6167 O   0  0  0  0  0  0  0  0  0  0  0  0
   -8.3928    1.6433   -3.9776 C   0  0  1  0  0  0  0  0  0  0  0  0
   -7.6836    2.8879   -3.9375 O   0  0  0  0  0  0  0  0  0  0  0  0
   -9.8306    1.8385   -3.5479 C   0  0  0  0  0  0  0  0  0  0  0  0
  -10.6734    1.0563   -4.5446 C   0  0  2  0  0  0  0  0  0  0  0  0
  -14.1441   -0.6941   -1.0114 N   0  0  0  0  0  0  0  0  0  0  0  0
  -13.8297    0.5812   -1.3648 C   0  0  1  0  0  0  0  0  0  0  0  0
  -14.4662    1.6093   -0.7551 N   0  0  0  0  0  0  0  0  0  0  0  0
  -12.8891    0.8473   -2.3118 N   0  0  0  0  0  0  0  0  0  0  0  0
  -12.2189   -0.1484   -2.9528 C   0  0  2  0  0  0  0  0  0  0  0  0
  -12.4965   -1.4653   -2.6338 C   0  0  1  0  0  0  0  0  0  0  0  0
  -13.5264   -1.7420   -1.6001 C   0  0  0  0  0  0  0  0  0  0  0  0
  -13.8168   -2.9167   -1.2812 O   0  0  0  0  0  0  0  0  0  0  0  0
  -11.7160   -2.2466   -3.4004 N   0  0  0  0  0  0  0  0  0  0  0  0
  -10.9632   -1.4320   -4.1762 C   0  0  0  0  0  0  0  0  0  0  0  0
  -11.2705   -0.1512   -3.9014 N   0  0  1  0  0  0  0  0  0  0  0  0
  1  2  1  0  0  0  0
  3  1  1  1  0  0  0
  3  4  1  0  0  0  0
  3  5  1  0  0  0  0
  5  6  1  6  0  0  0
  5  7  1  0  0  0  0
  7  8  1  0  0  0  0
  8  4  1  6  0  0  0
  8 19  1  0  0  0  0
  9 15  1  0  0  0  0
  9 10  1  0  0  0  0
 10 11  1  1  0  0  0
 10 12  1  0  0  0  0
 13 12  1  1  0  0  0
 13 14  1  0  0  0  0
 13 19  1  0  0  0  0
 14 15  1  6  0  0  0
 14 17  1  0  0  0  0
 15 16  2  0  0  0  0
 17 18  1  0  0  0  0
 19 18  1  6  0  0  0
M  END
>  <CHROM.1>
175.24838001,-173.32403914,-10.95036556,0.11987771,-3.37720284,-0.16064155
-0.57389896,-2.92133977

>  <Name>
ligand

>  <RI>
0

>  <Rbt.Current_Directory>
/home/itssahil/PROJECTS/Mol_Feturizer/New_Systems/rnas/3SKI

>  <Rbt.Executable>
rbdock ($Id: //depot/dev/client3/rdock/2013.1/src/exe/rbdock.cxx#4 $)

>  <Rbt.Library>
libRbt.so (2013.1, Build901 2013/11/27)

>  <Rbt.Parameter_File>
/export/apps/rDock/src/rDock_2013.1_src/data/scripts/dock_solv.prm

>  <Rbt.Receptor>
prm/blind_docking_60.prm

>  <SCORE>
-18.4965

>  <SCORE.INTER>
-15.6222

>  <SCORE.INTER.CONST>
1

>  <SCORE.INTER.POLAR>
0

>  <SCORE.INTER.ROT>
2

>  <SCORE.INTER.SOLV>
12.1461

>  <SCORE.INTER.VDW>
-19.3968

>  <SCORE.INTER.norm>
-0.822218

>  <SCORE.INTRA>
-2.87439

>  <SCORE.INTRA.DIHEDRAL>
-4.97999

>  <SCORE.INTRA.DIHEDRAL.0>
6.26853

>  <SCORE.INTRA.POLAR>
0

>  <SCORE.INTRA.POLAR.0>
0

>  <SCORE.INTRA.REPUL>
0

>  <SCORE.INTRA.REPUL.0>
0

>  <SCORE.INTRA.SOLV>
-0.0375729

>  <SCORE.INTRA.SOLV.lig_0>
-38.4926

>  <SCORE.INTRA.VDW>
-0.365609

>  <SCORE.INTRA.VDW.0>
-0.59057

>  <SCORE.INTRA.norm>
-0.151284

>  <SCORE.RESTR>
0

>  <SCORE.RESTR.CAVITY>
0

>  <SCORE.RESTR.norm>
0

>  <SCORE.SYSTEM>
0

>  <SCORE.SYSTEM.CONST>
0

>  <SCORE.SYSTEM.DIHEDRAL>
0

>  <SCORE.SYSTEM.SOLV>
0

>  <SCORE.SYSTEM.norm>
0

>  <SCORE.heavy>
19

>  <SCORE.norm>
-0.973502

>  <RMSD>
15.892

$$$$
ligand
 OpenBabel11021811483D
libRbt.so/2013.1/901 2013/11/27
 19 21  0  0  0  0  0  0  0  0999 V2000
   -5.8939    1.8352   -4.8064 C   0  0  0  0  0  0  0  0  0  0  0  0
   -6.3764    3.0401   -4.1937 O   0  0  0  0  0  0  0  0  0  0  0  0
   -7.0595    0.8984   -5.1311 C   0  0  1  0  0  0  0  0  0  0  0  0
   -7.8320    0.6173   -3.9481 O   0  0  0  0  0  0  0  0  0  0  0  0
   -8.0016    1.5287   -6.1415 C   0  0  1  0  0  0  0  0  0  0  0  0
   -7.8229    0.9557   -7.4428 O   0  0  0  0  0  0  0  0  0  0  0  0
   -9.3987    1.2540   -5.6288 C   0  0  0  0  0  0  0  0  0  0  0  0
   -9.2333    0.8240   -4.1785 C   0  0  2  0  0  0  0  0  0  0  0  0
  -13.1746    2.2663   -1.0196 N   0  0  0  0  0  0  0  0  0  0  0  0
  -13.0333    1.1472   -1.7798 C   0  0  1  0  0  0  0  0  0  0  0  0
  -14.0187    0.2183   -1.7734 N   0  0  0  0  0  0  0  0  0  0  0  0
  -11.9290    0.9422   -2.5482 N   0  0  0  0  0  0  0  0  0  0  0  0
  -10.9115    1.8445   -2.5924 C   0  0  2  0  0  0  0  0  0  0  0  0
  -11.0005    3.0019   -1.8404 C   0  0  1  0  0  0  0  0  0  0  0  0
  -12.2100    3.2126   -1.0046 C   0  0  0  0  0  0  0  0  0  0  0  0
  -12.3342    4.2410   -0.3024 O   0  0  0  0  0  0  0  0  0  0  0  0
   -9.8805    3.7151   -2.0507 N   0  0  0  0  0  0  0  0  0  0  0  0
   -9.1130    3.0185   -2.9212 C   0  0  0  0  0  0  0  0  0  0  0  0
   -9.7439    1.8771   -3.2518 N   0  0  1  0  0  0  0  0  0  0  0  0
  1  2  1  0  0  0  0
  3  1  1  1  0  0  0
  3  4  1  0  0  0  0
  3  5  1  0  0  0  0
  5  6  1  6  0  0  0
  5  7  1  0  0  0  0
  7  8  1  0  0  0  0
  8  4  1  1  0  0  0
  8 19  1  0  0  0  0
  9 15  1  0  0  0  0
  9 10  1  0  0  0  0
 10 11  1  6  0  0  0
 10 12  1  0  0  0  0
 13 12  1  6  0  0  0
 13 14  1  0  0  0  0
 13 19  1  0  0  0  0
 14 15  1  1  0  0  0
 14 17  1  0  0  0  0
 15 16  2  0  0  0  0
 17 18  1  0  0  0  0
 19 18  1  1  0  0  0
M  END
>  <CHROM.1>
-56.00318266,-138.39159067,-9.87495333,1.91608361,-3.34065794,-0.54359576
0.41650256,0.78305281

>  <Name>
ligand

>  <RI>
0

>  <Rbt.Current_Directory>
/home/itssahil/PROJECTS/Mol_Feturizer/New_Systems/rnas/3SKI

>  <Rbt.Executable>
rbdock ($Id: //depot/dev/client3/rdock/2013.1/src/exe/rbdock.cxx#4 $)

>  <Rbt.Library>
libRbt.so (2013.1, Build901 2013/11/27)

>  <Rbt.Parameter_File>
/export/apps/rDock/src/rDock_2013.1_src/data/scripts/dock_solv.prm

>  <Rbt.Receptor>
prm/blind_docking_40.prm

>  <SCORE>
-13.3379

>  <SCORE.INTER>
-10.2275

>  <SCORE.INTER.CONST>
1

>  <SCORE.INTER.POLAR>
0

>  <SCORE.INTER.ROT>
2

>  <SCORE.INTER.SOLV>
11.1975

>  <SCORE.INTER.VDW>
-15.4842

>  <SCORE.INTER.norm>
-0.538288

>  <SCORE.INTRA>
-3.11047

>  <SCORE.INTRA.DIHEDRAL>
-4.99119

>  <SCORE.INTRA.DIHEDRAL.0>
6.26853

>  <SCORE.INTRA.POLAR>
0

>  <SCORE.INTRA.POLAR.0>
0

>  <SCORE.INTRA.REPUL>
0

>  <SCORE.INTRA.REPUL.0>
0

>  <SCORE.INTRA.SOLV>
0.295107

>  <SCORE.INTRA.SOLV.lig_0>
-38.4926

>  <SCORE.INTRA.VDW>
-0.762424

>  <SCORE.INTRA.VDW.0>
-0.59057

>  <SCORE.INTRA.norm>
-0.163709

>  <SCORE.RESTR>
0

>  <SCORE.RESTR.CAVITY>
0

>  <SCORE.RESTR.norm>
0

>  <SCORE.SYSTEM>
0

>  <SCORE.SYSTEM.CONST>
0

>  <SCORE.SYSTEM.DIHEDRAL>
0

>  <SCORE.SYSTEM.SOLV>
0

>  <SCORE.SYSTEM.norm>
0

>  <SCORE.heavy>
19

>  <SCORE.norm>
-0.701997

>  <RMSD>
15.915

$$$$
ligand
 OpenBabel11021811483D
libRbt.so/2013.1/901 2013/11/27
 19 21  0  0  0  0  0  0  0  0999 V2000
   -7.3905    0.0335   -5.6121 C   0  0  0  0  0  0  0  0  0  0  0  0
   -6.0368    0.4814   -5.4474 O   0  0  0  0  0  0  0  0  0  0  0  0
   -8.3660    1.1916   -5.3910 C   0  0  1  0  0  0  0  0  0  0  0  0
   -9.7220    0.7681   -5.6293 O   0  0  0  0  0  0  0  0  0  0  0  0
   -8.2994    1.6962   -3.9603 C   0  0  1  0  0  0  0  0  0  0  0  0
   -7.5817    2.9340   -3.8814 O   0  0  0  0  0  0  0  0  0  0  0  0
   -9.7358    1.8877   -3.5242 C   0  0  0  0  0  0  0  0  0  0  0  0
  -10.5839    1.1429   -4.5447 C   0  0  2  0  0  0  0  0  0  0  0  0
  -14.1153   -0.6944   -1.1174 N   0  0  0  0  0  0  0  0  0  0  0  0
  -13.7984    0.5892   -1.4368 C   0  0  1  0  0  0  0  0  0  0  0  0
  -14.4498    1.6019   -0.8170 N   0  0  0  0  0  0  0  0  0  0  0  0
  -12.8409    0.8787   -2.3596 N   0  0  0  0  0  0  0  0  0  0  0  0
  -12.1554   -0.1008   -3.0094 C   0  0  2  0  0  0  0  0  0  0  0  0
  -12.4348   -1.4251   -2.7246 C   0  0  1  0  0  0  0  0  0  0  0  0
  -13.4832   -1.7273   -1.7170 C   0  0  0  0  0  0  0  0  0  0  0  0
  -13.7759   -2.9096   -1.4294 O   0  0  0  0  0  0  0  0  0  0  0  0
  -11.6374   -2.1872   -3.4931 N   0  0  0  0  0  0  0  0  0  0  0  0
  -10.8726   -1.3537   -4.2365 C   0  0  0  0  0  0  0  0  0  0  0  0
  -11.1893   -0.0802   -3.9396 N   0  0  1  0  0  0  0  0  0  0  0  0
  1  2  1  0  0  0  0
  3  1  1  1  0  0  0
  3  4  1  0  0  0  0
  3  5  1  0  0  0  0
  5  6  1  6  0  0  0
  5  7  1  0  0  0  0
  7  8  1  0  0  0  0
  8  4  1  6  0  0  0
  8 19  1  0  0  0  0
  9 15  1  0  0  0  0
  9 10  1  0  0  0  0
 10 11  1  1  0  0  0
 10 12  1  0  0  0  0
 13 12  1  1  0  0  0
 13 14  1  0  0  0  0
 13 19  1  0  0  0  0
 14 15  1  6  0  0  0
 14 17  1  0  0  0  0
 15 16  2  0  0  0  0
 17 18  1  0  0  0  0
 19 18  1  6  0  0  0
M  END
>  <CHROM.1>
176.72964345,-171.97233649,-10.88120713,0.17155287,-3.41943275,-0.16346948
-0.56115331,-2.90393635

>  <Name>
ligand

>  <RI>
0

>  <Rbt.Current_Directory>
/home/itssahil/PROJECTS/Mol_Feturizer/New_Systems/rnas/3SKI

>  <Rbt.Executable>
rbdock ($Id: //depot/dev/client3/rdock/2013.1/src/exe/rbdock.cxx#4 $)

>  <Rbt.Library>
libRbt.so (2013.1, Build901 2013/11/27)

>  <Rbt.Parameter_File>
/export/apps/rDock/src/rDock_2013.1_src/data/scripts/dock_solv.prm

>  <Rbt.Receptor>
prm/blind_docking_40.prm

>  <SCORE>
-18.6079

>  <SCORE.INTER>
-15.7149

>  <SCORE.INTER.CONST>
1

>  <SCORE.INTER.POLAR>
0

>  <SCORE.INTER.ROT>
2

>  <SCORE.INTER.SOLV>
12.3123

>  <SCORE.INTER.VDW>
-19.514

>  <SCORE.INTER.norm>
-0.827098

>  <SCORE.INTRA>
-2.89305

>  <SCORE.INTRA.DIHEDRAL>
-5.02087

>  <SCORE.INTRA.DIHEDRAL.0>
6.26853

>  <SCORE.INTRA.POLAR>
0

>  <SCORE.INTRA.POLAR.0>
0

>  <SCORE.INTRA.REPUL>
0

>  <SCORE.INTRA.REPUL.0>
0

>  <SCORE.INTRA.SOLV>
-0.0296673

>  <SCORE.INTRA.SOLV.lig_0>
-38.4926

>  <SCORE.INTRA.VDW>
-0.367783

>  <SCORE.INTRA.VDW.0>
-0.59057

>  <SCORE.INTRA.norm>
-0.152266

>  <SCORE.RESTR>
0

>  <SCORE.RESTR.CAVITY>
0

>  <SCORE.RESTR.norm>
0

>  <SCORE.SYSTEM>
0

>  <SCORE.SYSTEM.CONST>
0

>  <SCORE.SYSTEM.DIHEDRAL>
0

>  <SCORE.SYSTEM.SOLV>
0

>  <SCORE.SYSTEM.norm>
0

>  <SCORE.heavy>
19

>  <SCORE.norm>
-0.979364

>  <RMSD>
15.926

$$$$
ligand
 OpenBabel11021811483D
libRbt.so/2013.1/901 2013/11/27
 19 21  0  0  0  0  0  0  0  0999 V2000
   -7.3843    0.0786   -5.6045 C   0  0  0  0  0  0  0  0  0  0  0  0
   -6.0341    0.5429   -5.4574 O   0  0  0  0  0  0  0  0  0  0  0  0
   -8.3702    1.2287   -5.3874 C   0  0  1  0  0  0  0  0  0  0  0  0
   -9.7223    0.7923   -5.6250 O   0  0  0  0  0  0  0  0  0  0  0  0
   -8.3089    1.7381   -3.9582 C   0  0  1  0  0  0  0  0  0  0  0  0
   -7.6024    2.9826   -3.8826 O   0  0  0  0  0  0  0  0  0  0  0  0
   -9.7472    1.9181   -3.5234 C   0  0  0  0  0  0  0  0  0  0  0  0
  -10.5881    1.1626   -4.5421 C   0  0  2  0  0  0  0  0  0  0  0  0
  -14.1027   -0.6957   -1.1088 N   0  0  0  0  0  0  0  0  0  0  0  0
  -13.7969    0.5898   -1.4317 C   0  0  1  0  0  0  0  0  0  0  0  0
  -14.4567    1.5984   -0.8144 N   0  0  0  0  0  0  0  0  0  0  0  0
  -12.8422    0.8849   -2.3556 N   0  0  0  0  0  0  0  0  0  0  0  0
  -12.1485   -0.0903   -3.0030 C   0  0  2  0  0  0  0  0  0  0  0  0
  -12.4165   -1.4163   -2.7146 C   0  0  1  0  0  0  0  0  0  0  0  0
  -13.4620   -1.7248   -1.7060 C   0  0  0  0  0  0  0  0  0  0  0  0
  -13.7444   -2.9087   -1.4151 O   0  0  0  0  0  0  0  0  0  0  0  0
  -11.6128   -2.1735   -3.4814 N   0  0  0  0  0  0  0  0  0  0  0  0
  -10.8553   -1.3355   -4.2271 C   0  0  0  0  0  0  0  0  0  0  0  0
  -11.1828   -0.0639   -3.9335 N   0  0  1  0  0  0  0  0  0  0  0  0
  1  2  1  0  0  0  0
  3  1  1  1  0  0  0
  3  4  1  0  0  0  0
  3  5  1  0  0  0  0
  5  6  1  6  0  0  0
  5  7  1  0  0  0  0
  7  8  1  0  0  0  0
  8  4  1  6  0  0  0
  8 19  1  0  0  0  0
  9 15  1  0  0  0  0
  9 10  1  0  0  0  0
 10 11  1  1  0  0  0
 10 12  1  0  0  0  0
 13 12  1  1  0  0  0
 13 14  1  0  0  0  0
 13 19  1  0  0  0  0
 14 15  1  6  0  0  0
 14 17  1  0  0  0  0
 15 16  2  0  0  0  0
 17 18  1  0  0  0  0
 19 18  1  6  0  0  0
M  END
>  <CHROM.1>
175.98746408,-172.02930675,-10.87666758,0.19236467,-3.41442145,-0.17304279
-0.56369948,-2.91127759

>  <Name>
ligand

>  <RI>
0

>  <Rbt.Current_Directory>
/home/itssahil/PROJECTS/Mol_Feturizer/New_Systems/rnas/3SKI

>  <Rbt.Executable>
rbdock ($Id: //depot/dev/client3/rdock/2013.1/src/exe/rbdock.cxx#4 $)

>  <Rbt.Library>
libRbt.so (2013.1, Build901 2013/11/27)

>  <Rbt.Parameter_File>
/export/apps/rDock/src/rDock_2013.1_src/data/scripts/dock_solv.prm

>  <Rbt.Receptor>
prm/blind_docking_60.prm

>  <SCORE>
-18.5955

>  <SCORE.INTER>
-15.7054

>  <SCORE.INTER.CONST>
1

>  <SCORE.INTER.POLAR>
0

>  <SCORE.INTER.ROT>
2

>  <SCORE.INTER.SOLV>
12.3288

>  <SCORE.INTER.VDW>
-19.5132

>  <SCORE.INTER.norm>
-0.826599

>  <SCORE.INTRA>
-2.8901

>  <SCORE.INTRA.DIHEDRAL>
-5.00176

>  <SCORE.INTRA.DIHEDRAL.0>
6.26853

>  <SCORE.INTRA.POLAR>
0

>  <SCORE.INTRA.POLAR.0>
0

>  <SCORE.INTRA.REPUL>
0

>  <SCORE.INTRA.REPUL.0>
0

>  <SCORE.INTRA.SOLV>
-0.0334184

>  <SCORE.INTRA.SOLV.lig_0>
-38.4926

>  <SCORE.INTRA.VDW>
-0.372509

>  <SCORE.INTRA.VDW.0>
-0.59057

>  <SCORE.INTRA.norm>
-0.15211

>  <SCORE.RESTR>
0

>  <SCORE.RESTR.CAVITY>
0

>  <SCORE.RESTR.norm>
0

>  <SCORE.SYSTEM>
0

>  <SCORE.SYSTEM.CONST>
0

>  <SCORE.SYSTEM.DIHEDRAL>
0

>  <SCORE.SYSTEM.SOLV>
0

>  <SCORE.SYSTEM.norm>
0

>  <SCORE.heavy>
19

>  <SCORE.norm>
-0.978709

>  <RMSD>
15.927

$$$$
ligand
 OpenBabel11021811483D
libRbt.so/2013.1/901 2013/11/27
 19 21  0  0  0  0  0  0  0  0999 V2000
   -7.5091    0.4252   -5.3370 C   0  0  0  0  0  0  0  0  0  0  0  0
   -7.4304   -0.0006   -6.7054 O   0  0  0  0  0  0  0  0  0  0  0  0
   -8.5720    1.5146   -5.1779 C   0  0  1  0  0  0  0  0  0  0  0  0
   -9.8831    0.9937   -5.4690 O   0  0  0  0  0  0  0  0  0  0  0  0
   -8.6056    2.0410   -3.7539 C   0  0  1  0  0  0  0  0  0  0  0  0
   -7.9802    3.3272   -3.6631 O   0  0  0  0  0  0  0  0  0  0  0  0
  -10.0701    2.1366   -3.3849 C   0  0  0  0  0  0  0  0  0  0  0  0
  -10.8172    1.3209   -4.4298 C   0  0  2  0  0  0  0  0  0  0  0  0
  -14.1565   -0.7024   -0.9159 N   0  0  0  0  0  0  0  0  0  0  0  0
  -13.8897    0.5974   -1.2151 C   0  0  1  0  0  0  0  0  0  0  0  0
  -14.5454    1.5750   -0.5455 N   0  0  0  0  0  0  0  0  0  0  0  0
  -12.9780    0.9373   -2.1666 N   0  0  0  0  0  0  0  0  0  0  0  0
  -12.2905   -0.0054   -2.8667 C   0  0  2  0  0  0  0  0  0  0  0  0
  -12.5200   -1.3440   -2.6044 C   0  0  1  0  0  0  0  0  0  0  0  0
  -13.5188   -1.7014   -1.5651 C   0  0  0  0  0  0  0  0  0  0  0  0
  -13.7655   -2.8984   -1.2960 O   0  0  0  0  0  0  0  0  0  0  0  0
  -11.7316   -2.0633   -3.4219 N   0  0  0  0  0  0  0  0  0  0  0  0
  -11.0210   -1.1898   -4.1731 C   0  0  0  0  0  0  0  0  0  0  0  0
  -11.3626    0.0662   -3.8326 N   0  0  1  0  0  0  0  0  0  0  0  0
  1  2  1  0  0  0  0
  3  1  1  1  0  0  0
  3  4  1  0  0  0  0
  3  5  1  0  0  0  0
  5  6  1  6  0  0  0
  5  7  1  0  0  0  0
  7  8  1  0  0  0  0
  8  4  1  6  0  0  0
  8 19  1  0  0  0  0
  9 15  1  0  0  0  0
  9 10  1  0  0  0  0
 10 11  1  1  0  0  0
 10 12  1  0  0  0  0
 13 12  1  1  0  0  0
 13 14  1  0  0  0  0
 13 19  1  0  0  0  0
 14 15  1  6  0  0  0
 14 17  1  0  0  0  0
 15 16  2  0  0  0  0
 17 18  1  0  0  0  0
 19 18  1  6  0  0  0
M  END
>  <CHROM.1>
64.80190440,-177.75157841,-11.11351321,0.29016815,-3.33878874,-0.12132747
-0.65376603,-2.81983653

>  <Name>
ligand

>  <RI>
0

>  <Rbt.Current_Directory>
/home/itssahil/PROJECTS/Mol_Feturizer/New_Systems/rnas/3SKI

>  <Rbt.Executable>
rbdock ($Id: //depot/dev/client3/rdock/2013.1/src/exe/rbdock.cxx#4 $)

>  <Rbt.Library>
libRbt.so (2013.1, Build901 2013/11/27)

>  <Rbt.Parameter_File>
/export/apps/rDock/src/rDock_2013.1_src/data/scripts/dock_solv.prm

>  <Rbt.Receptor>
prm/blind_docking_60.prm

>  <SCORE>
-18.3856

>  <SCORE.INTER>
-15.3711

>  <SCORE.INTER.CONST>
1

>  <SCORE.INTER.POLAR>
0

>  <SCORE.INTER.ROT>
2

>  <SCORE.INTER.SOLV>
11.5572

>  <SCORE.INTER.VDW>
-19.0331

>  <SCORE.INTER.norm>
-0.809003

>  <SCORE.INTRA>
-3.01452

>  <SCORE.INTRA.DIHEDRAL>
-4.9791

>  <SCORE.INTRA.DIHEDRAL.0>
6.26853

>  <SCORE.INTRA.POLAR>
0

>  <SCORE.INTRA.POLAR.0>
0

>  <SCORE.INTRA.REPUL>
0

>  <SCORE.INTRA.REPUL.0>
0

>  <SCORE.INTRA.SOLV>
-0.259022

>  <SCORE.INTRA.SOLV.lig_0>
-38.4926

>  <SCORE.INTRA.VDW>
-0.395458

>  <SCORE.INTRA.VDW.0>
-0.59057

>  <SCORE.INTRA.norm>
-0.158659

>  <SCORE.RESTR>
0

>  <SCORE.RESTR.CAVITY>
0

>  <SCORE.RESTR.norm>
0

>  <SCORE.SYSTEM>
0

>  <SCORE.SYSTEM.CONST>
0

>  <SCORE.SYSTEM.DIHEDRAL>
0

>  <SCORE.SYSTEM.SOLV>
0

>  <SCORE.SYSTEM.norm>
0

>  <SCORE.heavy>
19

>  <SCORE.norm>
-0.967662

>  <RMSD>
15.956

$$$$
ligand
 OpenBabel11021811483D
libRbt.so/2013.1/901 2013/11/27
 19 21  0  0  0  0  0  0  0  0999 V2000
   -7.3654    0.0352   -5.6072 C   0  0  0  0  0  0  0  0  0  0  0  0
   -7.4114   -0.4113   -6.9706 O   0  0  0  0  0  0  0  0  0  0  0  0
   -8.3438    1.1920   -5.3917 C   0  0  1  0  0  0  0  0  0  0  0  0
   -9.6982    0.7657   -5.6347 O   0  0  0  0  0  0  0  0  0  0  0  0
   -8.2838    1.6987   -3.9615 C   0  0  1  0  0  0  0  0  0  0  0  0
   -7.5685    2.9379   -3.8814 O   0  0  0  0  0  0  0  0  0  0  0  0
   -9.7222    1.8883   -3.5314 C   0  0  0  0  0  0  0  0  0  0  0  0
  -10.5651    1.1406   -4.5541 C   0  0  2  0  0  0  0  0  0  0  0  0
  -14.1043   -0.6977   -1.1355 N   0  0  0  0  0  0  0  0  0  0  0  0
  -13.7880    0.5860   -1.4552 C   0  0  1  0  0  0  0  0  0  0  0  0
  -14.4424    1.5984   -0.8382 N   0  0  0  0  0  0  0  0  0  0  0  0
  -12.8282    0.8757   -2.3754 N   0  0  0  0  0  0  0  0  0  0  0  0
  -12.1396   -0.1035   -3.0223 C   0  0  2  0  0  0  0  0  0  0  0  0
  -12.4182   -1.4280   -2.7371 C   0  0  1  0  0  0  0  0  0  0  0  0
  -13.4692   -1.7305   -1.7323 C   0  0  0  0  0  0  0  0  0  0  0  0
  -13.7612   -2.9128   -1.4445 O   0  0  0  0  0  0  0  0  0  0  0  0
  -11.6176   -2.1898   -3.5025 N   0  0  0  0  0  0  0  0  0  0  0  0
  -10.8516   -1.3560   -4.2444 C   0  0  0  0  0  0  0  0  0  0  0  0
  -11.1707   -0.0826   -3.9496 N   0  0  1  0  0  0  0  0  0  0  0  0
  1  2  1  0  0  0  0
  3  1  1  1  0  0  0
  3  4  1  0  0  0  0
  3  5  1  0  0  0  0
  5  6  1  6  0  0  0
  5  7  1  0  0  0  0
  7  8  1  0  0  0  0
  8  4  1  6  0  0  0
  8 19  1  0  0  0  0
  9 15  1  0  0  0  0
  9 10  1  0  0  0  0
 10 11  1  1  0  0  0
 10 12  1  0  0  0  0
 13 12  1  1  0  0  0
 13 14  1  0  0  0  0
 13 19  1  0  0  0  0
 14 15  1  6  0  0  0
 14 17  1  0  0  0  0
 15 16  2  0  0  0  0
 17 18  1  0  0  0  0
 19 18  1  6  0  0  0
M  END
>  <CHROM.1>
62.44296620,-172.04438906,-10.95004061,0.11546979,-3.52175621,-0.06672190
-0.63100871,-2.80741559

>  <Name>
ligand

>  <RI>
0

>  <Rbt.Current_Directory>
/home/itssahil/PROJECTS/Mol_Feturizer/New_Systems/rnas/3SKI

>  <Rbt.Executable>
rbdock ($Id: //depot/dev/client3/rdock/2013.1/src/exe/rbdock.cxx#4 $)

>  <Rbt.Library>
libRbt.so (2013.1, Build901 2013/11/27)

>  <Rbt.Parameter_File>
/export/apps/rDock/src/rDock_2013.1_src/data/scripts/dock_solv.prm

>  <Rbt.Receptor>
prm/blind_docking_20.prm

>  <SCORE>
-18.5918

>  <SCORE.INTER>
-15.5173

>  <SCORE.INTER.CONST>
1

>  <SCORE.INTER.POLAR>
0

>  <SCORE.INTER.ROT>
2

>  <SCORE.INTER.SOLV>
12.0236

>  <SCORE.INTER.VDW>
-19.2861

>  <SCORE.INTER.norm>
-0.8167

>  <SCORE.INTRA>
-3.07447

>  <SCORE.INTRA.DIHEDRAL>
-5.03592

>  <SCORE.INTRA.DIHEDRAL.0>
6.26853

>  <SCORE.INTRA.POLAR>
0

>  <SCORE.INTRA.POLAR.0>
0

>  <SCORE.INTRA.REPUL>
0

>  <SCORE.INTRA.REPUL.0>
0

>  <SCORE.INTRA.SOLV>
-0.248316

>  <SCORE.INTRA.SOLV.lig_0>
-38.4926

>  <SCORE.INTRA.VDW>
-0.432355

>  <SCORE.INTRA.VDW.0>
-0.59057

>  <SCORE.INTRA.norm>
-0.161814

>  <SCORE.RESTR>
0

>  <SCORE.RESTR.CAVITY>
0

>  <SCORE.RESTR.norm>
0

>  <SCORE.SYSTEM>
0

>  <SCORE.SYSTEM.CONST>
0

>  <SCORE.SYSTEM.DIHEDRAL>
0

>  <SCORE.SYSTEM.SOLV>
0

>  <SCORE.SYSTEM.norm>
0

>  <SCORE.heavy>
19

>  <SCORE.norm>
-0.978514

>  <RMSD>
16.009

$$$$
ligand
 OpenBabel11021811483D
libRbt.so/2013.1/901 2013/11/27
 19 21  0  0  0  0  0  0  0  0999 V2000
   -7.3682    0.0421   -5.6053 C   0  0  0  0  0  0  0  0  0  0  0  0
   -7.4137   -0.4081   -6.9675 O   0  0  0  0  0  0  0  0  0  0  0  0
   -8.3498    1.1966   -5.3923 C   0  0  1  0  0  0  0  0  0  0  0  0
   -9.7029    0.7660   -5.6347 O   0  0  0  0  0  0  0  0  0  0  0  0
   -8.2915    1.7063   -3.9631 C   0  0  1  0  0  0  0  0  0  0  0  0
   -7.5798    2.9477   -3.8854 O   0  0  0  0  0  0  0  0  0  0  0  0
   -9.7305    1.8927   -3.5336 C   0  0  0  0  0  0  0  0  0  0  0  0
  -10.5711    1.1406   -4.5550 C   0  0  2  0  0  0  0  0  0  0  0  0
  -14.1069   -0.7010   -1.1346 N   0  0  0  0  0  0  0  0  0  0  0  0
  -13.7943    0.5830   -1.4569 C   0  0  1  0  0  0  0  0  0  0  0  0
  -14.4522    1.5948   -0.8426 N   0  0  0  0  0  0  0  0  0  0  0  0
  -12.8348    0.8736   -2.3772 N   0  0  0  0  0  0  0  0  0  0  0  0
  -12.1428   -0.1049   -3.0214 C   0  0  2  0  0  0  0  0  0  0  0  0
  -12.4175   -1.4296   -2.7334 C   0  0  1  0  0  0  0  0  0  0  0  0
  -13.4683   -1.7331   -1.7287 C   0  0  0  0  0  0  0  0  0  0  0  0
  -13.7569   -2.9157   -1.4384 O   0  0  0  0  0  0  0  0  0  0  0  0
  -11.6141   -2.1906   -3.4967 N   0  0  0  0  0  0  0  0  0  0  0  0
  -10.8502   -1.3562   -4.2399 C   0  0  0  0  0  0  0  0  0  0  0  0
  -11.1734   -0.0831   -3.9482 N   0  0  1  0  0  0  0  0  0  0  0  0
  1  2  1  0  0  0  0
  3  1  1  1  0  0  0
  3  4  1  0  0  0  0
  3  5  1  0  0  0  0
  5  6  1  6  0  0  0
  5  7  1  0  0  0  0
  7  8  1  0  0  0  0
  8  4  1  6  0  0  0
  8 19  1  0  0  0  0
  9 15  1  0  0  0  0
  9 10  1  0  0  0  0
 10 11  1  1  0  0  0
 10 12  1  0  0  0  0
 13 12  1  1  0  0  0
 13 14  1  0  0  0  0
 13 19  1  0  0  0  0
 14 15  1  6  0  0  0
 14 17  1  0  0  0  0
 15 16  2  0  0  0  0
 17 18  1  0  0  0  0
 19 18  1  6  0  0  0
M  END
>  <CHROM.1>
62.38249970,-172.01262011,-10.95374417,0.11636798,-3.52098651,-0.07033314
-0.63154678,-2.81172265

>  <Name>
ligand

>  <RI>
0

>  <Rbt.Current_Directory>
/home/itssahil/PROJECTS/Mol_Feturizer/New_Systems/rnas/3SKI

>  <Rbt.Executable>
rbdock ($Id: //depot/dev/client3/rdock/2013.1/src/exe/rbdock.cxx#4 $)

>  <Rbt.Library>
libRbt.so (2013.1, Build901 2013/11/27)

>  <Rbt.Parameter_File>
/export/apps/rDock/src/rDock_2013.1_src/data/scripts/dock_solv.prm

>  <Rbt.Receptor>
prm/blind_docking_20.prm

>  <SCORE>
-18.5921

>  <SCORE.INTER>
-15.517

>  <SCORE.INTER.CONST>
1

>  <SCORE.INTER.POLAR>
0

>  <SCORE.INTER.ROT>
2

>  <SCORE.INTER.SOLV>
12.0612

>  <SCORE.INTER.VDW>
-19.2984

>  <SCORE.INTER.norm>
-0.816683

>  <SCORE.INTRA>
-3.07511

>  <SCORE.INTRA.DIHEDRAL>
-5.03697

>  <SCORE.INTRA.DIHEDRAL.0>
6.26853

>  <SCORE.INTRA.POLAR>
0

>  <SCORE.INTRA.POLAR.0>
0

>  <SCORE.INTRA.REPUL>
0

>  <SCORE.INTRA.REPUL.0>
0

>  <SCORE.INTRA.SOLV>
-0.24808

>  <SCORE.INTRA.SOLV.lig_0>
-38.4926

>  <SCORE.INTRA.VDW>
-0.432591

>  <SCORE.INTRA.VDW.0>
-0.59057

>  <SCORE.INTRA.norm>
-0.161848

>  <SCORE.RESTR>
0

>  <SCORE.RESTR.CAVITY>
0

>  <SCORE.RESTR.norm>
0

>  <SCORE.SYSTEM>
0

>  <SCORE.SYSTEM.CONST>
0

>  <SCORE.SYSTEM.DIHEDRAL>
0

>  <SCORE.SYSTEM.SOLV>
0

>  <SCORE.SYSTEM.norm>
0

>  <SCORE.heavy>
19

>  <SCORE.norm>
-0.978531

>  <RMSD>
16.010

$$$$
ligand
 OpenBabel11021811483D
libRbt.so/2013.1/901 2013/11/27
 19 21  0  0  0  0  0  0  0  0999 V2000
   -7.4023    0.0746   -5.6019 C   0  0  0  0  0  0  0  0  0  0  0  0
   -7.4527   -0.3581   -6.9696 O   0  0  0  0  0  0  0  0  0  0  0  0
   -8.3777    1.2312   -5.3723 C   0  0  1  0  0  0  0  0  0  0  0  0
   -9.7338    0.8095   -5.6131 O   0  0  0  0  0  0  0  0  0  0  0  0
   -8.3105    1.7257   -3.9381 C   0  0  1  0  0  0  0  0  0  0  0  0
   -7.5927    2.9628   -3.8507 O   0  0  0  0  0  0  0  0  0  0  0  0
   -9.7467    1.9142   -3.5002 C   0  0  0  0  0  0  0  0  0  0  0  0
  -10.5953    1.1767   -4.5256 C   0  0  2  0  0  0  0  0  0  0  0  0
  -14.1305   -0.6845   -1.1151 N   0  0  0  0  0  0  0  0  0  0  0  0
  -13.8142    0.6014   -1.4262 C   0  0  1  0  0  0  0  0  0  0  0  0
  -14.4674    1.6097   -0.8012 N   0  0  0  0  0  0  0  0  0  0  0  0
  -12.8555    0.8972   -2.3457 N   0  0  0  0  0  0  0  0  0  0  0  0
  -12.1682   -0.0776   -3.0004 C   0  0  2  0  0  0  0  0  0  0  0  0
  -12.4469   -1.4040   -2.7241 C   0  0  1  0  0  0  0  0  0  0  0  0
  -13.4966   -1.7132   -1.7201 C   0  0  0  0  0  0  0  0  0  0  0  0
  -13.7886   -2.8974   -1.4401 O   0  0  0  0  0  0  0  0  0  0  0  0
  -11.6476   -2.1606   -3.4960 N   0  0  0  0  0  0  0  0  0  0  0  0
  -10.8823   -1.3220   -4.2331 C   0  0  0  0  0  0  0  0  0  0  0  0
  -11.2006   -0.0505   -3.9289 N   0  0  1  0  0  0  0  0  0  0  0  0
  1  2  1  0  0  0  0
  3  1  1  1  0  0  0
  3  4  1  0  0  0  0
  3  5  1  0  0  0  0
  5  6  1  6  0  0  0
  5  7  1  0  0  0  0
  7  8  1  0  0  0  0
  8  4  1  6  0  0  0
  8 19  1  0  0  0  0
  9 15  1  0  0  0  0
  9 10  1  0  0  0  0
 10 11  1  1  0  0  0
 10 12  1  0  0  0  0
 13 12  1  1  0  0  0
 13 14  1  0  0  0  0
 13 19  1  0  0  0  0
 14 15  1  6  0  0  0
 14 17  1  0  0  0  0
 15 16  2  0  0  0  0
 17 18  1  0  0  0  0
 19 18  1  6  0  0  0
M  END
>  <CHROM.1>
62.57884737,-171.83850755,-10.97967554,0.14359553,-3.50255110,-0.06446793
-0.63313076,-2.79883762

>  <Name>
ligand

>  <RI>
0

>  <Rbt.Current_Directory>
/home/itssahil/PROJECTS/Mol_Feturizer/New_Systems/rnas/3SKI

>  <Rbt.Executable>
rbdock ($Id: //depot/dev/client3/rdock/2013.1/src/exe/rbdock.cxx#4 $)

>  <Rbt.Library>
libRbt.so (2013.1, Build901 2013/11/27)

>  <Rbt.Parameter_File>
/export/apps/rDock/src/rDock_2013.1_src/data/scripts/dock_solv.prm

>  <Rbt.Receptor>
prm/blind_docking_60.prm

>  <SCORE>
-18.5265

>  <SCORE.INTER>
-15.4512

>  <SCORE.INTER.CONST>
1

>  <SCORE.INTER.POLAR>
0

>  <SCORE.INTER.ROT>
2

>  <SCORE.INTER.SOLV>
11.9405

>  <SCORE.INTER.VDW>
-19.2143

>  <SCORE.INTER.norm>
-0.81322

>  <SCORE.INTRA>
-3.07532

>  <SCORE.INTRA.DIHEDRAL>
-5.03323

>  <SCORE.INTRA.DIHEDRAL.0>
6.26853

>  <SCORE.INTRA.POLAR>
0

>  <SCORE.INTRA.POLAR.0>
0

>  <SCORE.INTRA.REPUL>
0

>  <SCORE.INTRA.REPUL.0>
0

>  <SCORE.INTRA.SOLV>
-0.248757

>  <SCORE.INTRA.SOLV.lig_0>
-38.4926

>  <SCORE.INTRA.VDW>
-0.434324

>  <SCORE.INTRA.VDW.0>
-0.59057

>  <SCORE.INTRA.norm>
-0.161859

>  <SCORE.RESTR>
0

>  <SCORE.RESTR.CAVITY>
0

>  <SCORE.RESTR.norm>
0

>  <SCORE.SYSTEM>
0

>  <SCORE.SYSTEM.CONST>
0

>  <SCORE.SYSTEM.DIHEDRAL>
0

>  <SCORE.SYSTEM.SOLV>
0

>  <SCORE.SYSTEM.norm>
0

>  <SCORE.heavy>
19

>  <SCORE.norm>
-0.975079

>  <RMSD>
16.010

$$$$
ligand
 OpenBabel11021811483D
libRbt.so/2013.1/901 2013/11/27
 19 21  0  0  0  0  0  0  0  0999 V2000
   -8.2234   -0.9187   -6.9180 C   0  0  0  0  0  0  0  0  0  0  0  0
   -8.5353   -2.0580   -6.1025 O   0  0  0  0  0  0  0  0  0  0  0  0
   -8.6214    0.3742   -6.2025 C   0  0  1  0  0  0  0  0  0  0  0  0
  -10.0303    0.3774   -5.9025 O   0  0  0  0  0  0  0  0  0  0  0  0
   -7.8826    0.5181   -4.8836 C   0  0  1  0  0  0  0  0  0  0  0  0
   -6.8258    1.4806   -4.9853 O   0  0  0  0  0  0  0  0  0  0  0  0
   -8.9188    0.9730   -3.8790 C   0  0  0  0  0  0  0  0  0  0  0  0
  -10.2705    0.7146   -4.5284 C   0  0  2  0  0  0  0  0  0  0  0  0
  -14.1754   -0.6146   -1.2759 N   0  0  0  0  0  0  0  0  0  0  0  0
  -13.7801    0.6142   -1.7051 C   0  0  1  0  0  0  0  0  0  0  0  0
  -14.4464    1.7096   -1.2690 N   0  0  0  0  0  0  0  0  0  0  0  0
  -12.7301    0.7680   -2.5571 N   0  0  0  0  0  0  0  0  0  0  0  0
  -12.0258   -0.2988   -3.0232 C   0  0  2  0  0  0  0  0  0  0  0  0
  -12.3821   -1.5730   -2.6201 C   0  0  1  0  0  0  0  0  0  0  0  0
  -13.5309   -1.7272   -1.6917 C   0  0  0  0  0  0  0  0  0  0  0  0
  -13.8951   -2.8597   -1.3030 O   0  0  0  0  0  0  0  0  0  0  0  0
  -11.5468   -2.4409   -3.2171 N   0  0  0  0  0  0  0  0  0  0  0  0
  -10.6840   -1.7206   -3.9715 C   0  0  0  0  0  0  0  0  0  0  0  0
  -10.9770   -0.4129   -3.8515 N   0  0  1  0  0  0  0  0  0  0  0  0
  1  2  1  0  0  0  0
  3  1  1  1  0  0  0
  3  4  1  0  0  0  0
  3  5  1  0  0  0  0
  5  6  1  6  0  0  0
  5  7  1  0  0  0  0
  7  8  1  0  0  0  0
  8  4  1  6  0  0  0
  8 19  1  0  0  0  0
  9 15  1  0  0  0  0
  9 10  1  0  0  0  0
 10 11  1  1  0  0  0
 10 12  1  0  0  0  0
 13 12  1  1  0  0  0
 13 14  1  0  0  0  0
 13 19  1  0  0  0  0
 14 15  1  6  0  0  0
 14 17  1  0  0  0  0
 15 16  2  0  0  0  0
 17 18  1  0  0  0  0
 19 18  1  6  0  0  0
M  END
>  <CHROM.1>
-58.94404673,-135.59586434,-10.95648118,-0.37391165,-3.72963612,-0.00708457
-0.64237119,-2.96151910

>  <Name>
ligand

>  <RI>
0

>  <Rbt.Current_Directory>
/home/itssahil/PROJECTS/Mol_Feturizer/New_Systems/rnas/3SKI

>  <Rbt.Executable>
rbdock ($Id: //depot/dev/client3/rdock/2013.1/src/exe/rbdock.cxx#4 $)

>  <Rbt.Library>
libRbt.so (2013.1, Build901 2013/11/27)

>  <Rbt.Parameter_File>
/export/apps/rDock/src/rDock_2013.1_src/data/scripts/dock_solv.prm

>  <Rbt.Receptor>
prm/blind_docking_100.prm

>  <SCORE>
-17.6949

>  <SCORE.INTER>
-14.5755

>  <SCORE.INTER.CONST>
1

>  <SCORE.INTER.POLAR>
0

>  <SCORE.INTER.ROT>
2

>  <SCORE.INTER.SOLV>
13.6087

>  <SCORE.INTER.VDW>
-19.1865

>  <SCORE.INTER.norm>
-0.76713

>  <SCORE.INTRA>
-3.11952

>  <SCORE.INTRA.DIHEDRAL>
-5.04742

>  <SCORE.INTRA.DIHEDRAL.0>
6.26853

>  <SCORE.INTRA.POLAR>
0

>  <SCORE.INTRA.POLAR.0>
0

>  <SCORE.INTRA.REPUL>
0

>  <SCORE.INTRA.REPUL.0>
0

>  <SCORE.INTRA.SOLV>
0.298441

>  <SCORE.INTRA.SOLV.lig_0>
-38.4926

>  <SCORE.INTRA.VDW>
-0.745035

>  <SCORE.INTRA.VDW.0>
-0.59057

>  <SCORE.INTRA.norm>
-0.164186

>  <SCORE.RESTR>
9.26726e-05

>  <SCORE.RESTR.CAVITY>
9.26726e-05

>  <SCORE.RESTR.norm>
4.87751e-06

>  <SCORE.SYSTEM>
0

>  <SCORE.SYSTEM.CONST>
0

>  <SCORE.SYSTEM.DIHEDRAL>
0

>  <SCORE.SYSTEM.SOLV>
0

>  <SCORE.SYSTEM.norm>
0

>  <SCORE.heavy>
19

>  <SCORE.norm>
-0.93131

>  <RMSD>
16.013

$$$$
ligand
 OpenBabel11021811483D
libRbt.so/2013.1/901 2013/11/27
 19 21  0  0  0  0  0  0  0  0999 V2000
   -7.3638    0.0317   -5.6084 C   0  0  0  0  0  0  0  0  0  0  0  0
   -7.4046   -0.4185   -6.9707 O   0  0  0  0  0  0  0  0  0  0  0  0
   -8.3362    1.1952   -5.4020 C   0  0  1  0  0  0  0  0  0  0  0  0
   -9.6926    0.7744   -5.6430 O   0  0  0  0  0  0  0  0  0  0  0  0
   -8.2746    1.7119   -3.9754 C   0  0  1  0  0  0  0  0  0  0  0  0
   -7.5528    2.9478   -3.9037 O   0  0  0  0  0  0  0  0  0  0  0  0
   -9.7123    1.9122   -3.5479 C   0  0  0  0  0  0  0  0  0  0  0  0
  -10.5583    1.1616   -4.5659 C   0  0  2  0  0  0  0  0  0  0  0  0
  -14.1544   -0.6347   -1.1845 N   0  0  0  0  0  0  0  0  0  0  0  0
  -13.8366    0.6448   -1.5189 C   0  0  1  0  0  0  0  0  0  0  0  0
  -14.5059    1.6646   -0.9307 N   0  0  0  0  0  0  0  0  0  0  0  0
  -12.8608    0.9233   -2.4257 N   0  0  0  0  0  0  0  0  0  0  0  0
  -12.1568   -0.0636   -3.0438 C   0  0  2  0  0  0  0  0  0  0  0  0
  -12.4362   -1.3843   -2.7424 C   0  0  1  0  0  0  0  0  0  0  0  0
  -13.5047   -1.6746   -1.7526 C   0  0  0  0  0  0  0  0  0  0  0  0
  -13.7980   -2.8532   -1.4512 O   0  0  0  0  0  0  0  0  0  0  0  0
  -11.6188   -2.1553   -3.4805 N   0  0  0  0  0  0  0  0  0  0  0  0
  -10.8420   -1.3307   -4.2213 C   0  0  0  0  0  0  0  0  0  0  0  0
  -11.1709   -0.0539   -3.9531 N   0  0  1  0  0  0  0  0  0  0  0  0
  1  2  1  0  0  0  0
  3  1  1  1  0  0  0
  3  4  1  0  0  0  0
  3  5  1  0  0  0  0
  5  6  1  6  0  0  0
  5  7  1  0  0  0  0
  7  8  1  0  0  0  0
  8  4  1  6  0  0  0
  8 19  1  0  0  0  0
  9 15  1  0  0  0  0
  9 10  1  0  0  0  0
 10 11  1  1  0  0  0
 10 12  1  0  0  0  0
 13 12  1  1  0  0  0
 13 14  1  0  0  0  0
 13 19  1  0  0  0  0
 14 15  1  6  0  0  0
 14 17  1  0  0  0  0
 15 16  2  0  0  0  0
 17 18  1  0  0  0  0
 19 18  1  6  0  0  0
M  END
>  <CHROM.1>
62.82766749,-170.79346300,-10.96172774,0.14593242,-3.54012328,-0.07053786
-0.62016240,-2.82444216

>  <Name>
ligand

>  <RI>
0

>  <Rbt.Current_Directory>
/home/itssahil/PROJECTS/Mol_Feturizer/New_Systems/rnas/3SKI

>  <Rbt.Executable>
rbdock ($Id: //depot/dev/client3/rdock/2013.1/src/exe/rbdock.cxx#4 $)

>  <Rbt.Library>
libRbt.so (2013.1, Build901 2013/11/27)

>  <Rbt.Parameter_File>
/export/apps/rDock/src/rDock_2013.1_src/data/scripts/dock_solv.prm

>  <Rbt.Receptor>
prm/blind_docking_100.prm

>  <SCORE>
-18.4539

>  <SCORE.INTER>
-15.3835

>  <SCORE.INTER.CONST>
1

>  <SCORE.INTER.POLAR>
0

>  <SCORE.INTER.ROT>
2

>  <SCORE.INTER.SOLV>
12.4587

>  <SCORE.INTER.VDW>
-19.3419

>  <SCORE.INTER.norm>
-0.809658

>  <SCORE.INTRA>
-3.08212

>  <SCORE.INTRA.DIHEDRAL>
-5.02737

>  <SCORE.INTRA.DIHEDRAL.0>
6.26853

>  <SCORE.INTRA.POLAR>
0

>  <SCORE.INTRA.POLAR.0>
0

>  <SCORE.INTRA.REPUL>
0

>  <SCORE.INTRA.REPUL.0>
0

>  <SCORE.INTRA.SOLV>
-0.249349

>  <SCORE.INTRA.SOLV.lig_0>
-38.4926

>  <SCORE.INTRA.VDW>
-0.44376

>  <SCORE.INTRA.VDW.0>
-0.59057

>  <SCORE.INTRA.norm>
-0.162217

>  <SCORE.RESTR>
0.0116758

>  <SCORE.RESTR.CAVITY>
0.0116758

>  <SCORE.RESTR.norm>
0.000614516

>  <SCORE.SYSTEM>
0

>  <SCORE.SYSTEM.CONST>
0

>  <SCORE.SYSTEM.DIHEDRAL>
0

>  <SCORE.SYSTEM.SOLV>
0

>  <SCORE.SYSTEM.norm>
0

>  <SCORE.heavy>
19

>  <SCORE.norm>
-0.97126

>  <RMSD>
16.035

$$$$
ligand
 OpenBabel11021811483D
libRbt.so/2013.1/901 2013/11/27
 19 21  0  0  0  0  0  0  0  0999 V2000
   -9.0326    1.0125   -4.7854 C   0  0  0  0  0  0  0  0  0  0  0  0
   -8.7678    1.2647   -6.1734 O   0  0  0  0  0  0  0  0  0  0  0  0
  -10.1922    0.0253   -4.6346 C   0  0  1  0  0  0  0  0  0  0  0  0
   -9.8899   -1.2200   -5.2925 O   0  0  0  0  0  0  0  0  0  0  0  0
  -10.4523   -0.2923   -3.1727 C   0  0  1  0  0  0  0  0  0  0  0  0
  -11.6185    0.3897   -2.6948 O   0  0  0  0  0  0  0  0  0  0  0  0
  -10.6505   -1.7911   -3.1061 C   0  0  0  0  0  0  0  0  0  0  0  0
  -10.1307   -2.3392   -4.4271 C   0  0  2  0  0  0  0  0  0  0  0  0
   -6.0333   -4.6293   -6.7850 N   0  0  0  0  0  0  0  0  0  0  0  0
   -7.0990   -3.9809   -7.3274 C   0  0  1  0  0  0  0  0  0  0  0  0
   -7.1863   -3.8701   -8.6743 N   0  0  0  0  0  0  0  0  0  0  0  0
   -8.0794   -3.4462   -6.5497 N   0  0  0  0  0  0  0  0  0  0  0  0
   -8.0412   -3.5317   -5.1922 C   0  0  2  0  0  0  0  0  0  0  0  0
   -6.9814   -4.1805   -4.5848 C   0  0  1  0  0  0  0  0  0  0  0  0
   -5.9171   -4.7578   -5.4448 C   0  0  0  0  0  0  0  0  0  0  0  0
   -4.9354   -5.3491   -4.9421 O   0  0  0  0  0  0  0  0  0  0  0  0
   -7.1727   -4.1232   -3.2554 N   0  0  0  0  0  0  0  0  0  0  0  0
   -8.3317   -3.4579   -3.0402 C   0  0  0  0  0  0  0  0  0  0  0  0
   -8.8613   -3.0980   -4.2235 N   0  0  1  0  0  0  0  0  0  0  0  0
  1  2  1  0  0  0  0
  3  1  1  1  0  0  0
  3  4  1  0  0  0  0
  3  5  1  0  0  0  0
  5  6  1  6  0  0  0
  5  7  1  0  0  0  0
  7  8  1  0  0  0  0
  8  4  1  6  0  0  0
  8 19  1  0  0  0  0
  9 15  1  0  0  0  0
  9 10  1  0  0  0  0
 10 11  1  6  0  0  0
 10 12  1  0  0  0  0
 13 12  1  6  0  0  0
 13 14  1  0  0  0  0
 13 19  1  0  0  0  0
 14 15  1  1  0  0  0
 14 17  1  0  0  0  0
 15 16  2  0  0  0  0
 17 18  1  0  0  0  0
 19 18  1  1  0  0  0
M  END
>  <CHROM.1>
58.98888993,-50.77537849,-8.42229095,-2.41607284,-4.96173851,-3.03921509
-0.88888485,2.12505966

>  <Name>
ligand

>  <RI>
0

>  <Rbt.Current_Directory>
/home/itssahil/PROJECTS/Mol_Feturizer/New_Systems/rnas/3SKI

>  <Rbt.Executable>
rbdock ($Id: //depot/dev/client3/rdock/2013.1/src/exe/rbdock.cxx#4 $)

>  <Rbt.Library>
libRbt.so (2013.1, Build901 2013/11/27)

>  <Rbt.Parameter_File>
/export/apps/rDock/src/rDock_2013.1_src/data/scripts/dock_solv.prm

>  <Rbt.Receptor>
prm/blind_docking_20.prm

>  <SCORE>
-19.0765

>  <SCORE.INTER>
-16.6982

>  <SCORE.INTER.CONST>
1

>  <SCORE.INTER.POLAR>
0

>  <SCORE.INTER.ROT>
2

>  <SCORE.INTER.SOLV>
7.95212

>  <SCORE.INTER.VDW>
-18.7162

>  <SCORE.INTER.norm>
-0.878855

>  <SCORE.INTRA>
-2.37821

>  <SCORE.INTRA.DIHEDRAL>
-5.05388

>  <SCORE.INTRA.DIHEDRAL.0>
6.26853

>  <SCORE.INTRA.POLAR>
0

>  <SCORE.INTRA.POLAR.0>
0

>  <SCORE.INTRA.REPUL>
0

>  <SCORE.INTRA.REPUL.0>
0

>  <SCORE.INTRA.SOLV>
-0.196996

>  <SCORE.INTRA.SOLV.lig_0>
-38.4926

>  <SCORE.INTRA.VDW>
0.247226

>  <SCORE.INTRA.VDW.0>
-0.59057

>  <SCORE.INTRA.norm>
-0.125169

>  <SCORE.RESTR>
0

>  <SCORE.RESTR.CAVITY>
0

>  <SCORE.RESTR.norm>
0

>  <SCORE.SYSTEM>
0

>  <SCORE.SYSTEM.CONST>
0

>  <SCORE.SYSTEM.DIHEDRAL>
0

>  <SCORE.SYSTEM.SOLV>
0

>  <SCORE.SYSTEM.norm>
0

>  <SCORE.heavy>
19

>  <SCORE.norm>
-1.00402

>  <RMSD>
16.178

$$$$
ligand
 OpenBabel11021811483D
libRbt.so/2013.1/901 2013/11/27
 19 21  0  0  0  0  0  0  0  0999 V2000
   -9.9325    2.8259   -3.6857 C   0  0  0  0  0  0  0  0  0  0  0  0
  -10.4479    3.1900   -2.3965 O   0  0  0  0  0  0  0  0  0  0  0  0
  -10.7271    1.6539   -4.2660 C   0  0  1  0  0  0  0  0  0  0  0  0
  -10.2569    1.3240   -5.5870 O   0  0  0  0  0  0  0  0  0  0  0  0
  -10.5681    0.4094   -3.4105 C   0  0  1  0  0  0  0  0  0  0  0  0
  -11.7397    0.1719   -2.6204 O   0  0  0  0  0  0  0  0  0  0  0  0
  -10.3426   -0.7304   -4.3800 C   0  0  0  0  0  0  0  0  0  0  0  0
   -9.9976   -0.0819   -5.7127 C   0  0  2  0  0  0  0  0  0  0  0  0
   -5.0743    1.5818   -4.9472 N   0  0  0  0  0  0  0  0  0  0  0  0
   -6.2430    2.0587   -4.4403 C   0  0  1  0  0  0  0  0  0  0  0  0
   -6.2120    3.1236   -3.6043 N   0  0  0  0  0  0  0  0  0  0  0  0
   -7.4403    1.4942   -4.7566 N   0  0  0  0  0  0  0  0  0  0  0  0
   -7.5273    0.4246   -5.5930 C   0  0  2  0  0  0  0  0  0  0  0  0
   -6.3712   -0.1028   -6.1395 C   0  0  1  0  0  0  0  0  0  0  0  0
   -5.0711    0.5212   -5.7847 C   0  0  0  0  0  0  0  0  0  0  0  0
   -3.9974    0.0766   -6.2488 O   0  0  0  0  0  0  0  0  0  0  0  0
   -6.7216   -1.1430   -6.9156 N   0  0  0  0  0  0  0  0  0  0  0  0
   -8.0692   -1.2566   -6.8584 C   0  0  0  0  0  0  0  0  0  0  0  0
   -8.5600   -0.2984   -6.0513 N   0  0  1  0  0  0  0  0  0  0  0  0
  1  2  1  0  0  0  0
  3  1  1  1  0  0  0
  3  4  1  0  0  0  0
  3  5  1  0  0  0  0
  5  6  1  6  0  0  0
  5  7  1  0  0  0  0
  7  8  1  0  0  0  0
  8  4  1  1  0  0  0
  8 19  1  0  0  0  0
  9 15  1  0  0  0  0
  9 10  1  0  0  0  0
 10 11  1  6  0  0  0
 10 12  1  0  0  0  0
 13 12  1  6  0  0  0
 13 14  1  0  0  0  0
 13 19  1  0  0  0  0
 14 15  1  1  0  0  0
 14 17  1  0  0  0  0
 15 16  2  0  0  0  0
 17 18  1  0  0  0  0
 19 18  1  1  0  0  0
M  END
>  <CHROM.1>
177.26195577,36.24360639,-8.23492442,0.83382392,-4.86688044,-2.77012611,-0.24061916
-2.47912027

>  <Name>
ligand

>  <RI>
0

>  <Rbt.Current_Directory>
/home/itssahil/PROJECTS/Mol_Feturizer/New_Systems/rnas/3SKI

>  <Rbt.Executable>
rbdock ($Id: //depot/dev/client3/rdock/2013.1/src/exe/rbdock.cxx#4 $)

>  <Rbt.Library>
libRbt.so (2013.1, Build901 2013/11/27)

>  <Rbt.Parameter_File>
/export/apps/rDock/src/rDock_2013.1_src/data/scripts/dock_solv.prm

>  <Rbt.Receptor>
prm/blind_docking_100.prm

>  <SCORE>
-15.8792

>  <SCORE.INTER>
-12.7381

>  <SCORE.INTER.CONST>
1

>  <SCORE.INTER.POLAR>
0

>  <SCORE.INTER.ROT>
2

>  <SCORE.INTER.SOLV>
9.12414

>  <SCORE.INTER.VDW>
-16.4668

>  <SCORE.INTER.norm>
-0.670425

>  <SCORE.INTRA>
-3.14108

>  <SCORE.INTRA.DIHEDRAL>
-5.05729

>  <SCORE.INTRA.DIHEDRAL.0>
6.26853

>  <SCORE.INTRA.POLAR>
0

>  <SCORE.INTRA.POLAR.0>
0

>  <SCORE.INTRA.REPUL>
0

>  <SCORE.INTRA.REPUL.0>
0

>  <SCORE.INTRA.SOLV>
1.2015

>  <SCORE.INTRA.SOLV.lig_0>
-38.4926

>  <SCORE.INTRA.VDW>
-1.21318

>  <SCORE.INTRA.VDW.0>
-0.59057

>  <SCORE.INTRA.norm>
-0.16532

>  <SCORE.RESTR>
0

>  <SCORE.RESTR.CAVITY>
0

>  <SCORE.RESTR.norm>
0

>  <SCORE.SYSTEM>
0

>  <SCORE.SYSTEM.CONST>
0

>  <SCORE.SYSTEM.DIHEDRAL>
0

>  <SCORE.SYSTEM.SOLV>
0

>  <SCORE.SYSTEM.norm>
0

>  <SCORE.heavy>
19

>  <SCORE.norm>
-0.835745

>  <RMSD>
16.240

$$$$
ligand
 OpenBabel11021811483D
libRbt.so/2013.1/901 2013/11/27
 19 21  0  0  0  0  0  0  0  0999 V2000
   -7.4394    1.0525   -7.1048 C   0  0  0  0  0  0  0  0  0  0  0  0
   -7.3951    0.7682   -8.5110 O   0  0  0  0  0  0  0  0  0  0  0  0
   -7.6431   -0.2370   -6.3063 C   0  0  1  0  0  0  0  0  0  0  0  0
   -7.6401    0.0340   -4.8916 O   0  0  0  0  0  0  0  0  0  0  0  0
   -8.9793   -0.8784   -6.6364 C   0  0  1  0  0  0  0  0  0  0  0  0
   -8.8097   -2.0165   -7.4906 O   0  0  0  0  0  0  0  0  0  0  0  0
   -9.5744   -1.2959   -5.3092 C   0  0  0  0  0  0  0  0  0  0  0  0
   -8.7745   -0.5604   -4.2440 C   0  0  2  0  0  0  0  0  0  0  0  0
   -8.9730    4.4919   -2.8202 N   0  0  0  0  0  0  0  0  0  0  0  0
   -7.9752    3.7983   -3.4312 C   0  0  1  0  0  0  0  0  0  0  0  0
   -6.8269    4.4411   -3.7510 N   0  0  0  0  0  0  0  0  0  0  0  0
   -8.1022    2.4754   -3.7240 N   0  0  0  0  0  0  0  0  0  0  0  0
   -9.2335    1.7821   -3.4222 C   0  0  2  0  0  0  0  0  0  0  0  0
  -10.2815    2.4355   -2.7994 C   0  0  1  0  0  0  0  0  0  0  0  0
  -10.1308    3.8796   -2.4872 C   0  0  0  0  0  0  0  0  0  0  0  0
  -11.0530    4.5158   -1.9296 O   0  0  0  0  0  0  0  0  0  0  0  0
  -11.2710    1.5438   -2.6177 N   0  0  0  0  0  0  0  0  0  0  0  0
  -10.8447    0.3578   -3.1116 C   0  0  0  0  0  0  0  0  0  0  0  0
   -9.6003    0.5045   -3.6018 N   0  0  1  0  0  0  0  0  0  0  0  0
  1  2  1  0  0  0  0
  3  1  1  6  0  0  0
  3  4  1  0  0  0  0
  3  5  1  0  0  0  0
  5  6  1  6  0  0  0
  5  7  1  0  0  0  0
  7  8  1  0  0  0  0
  8  4  1  6  0  0  0
  8 19  1  0  0  0  0
  9 15  1  0  0  0  0
  9 10  1  0  0  0  0
 10 11  1  1  0  0  0
 10 12  1  0  0  0  0
 13 12  1  1  0  0  0
 13 14  1  0  0  0  0
 13 19  1  0  0  0  0
 14 15  1  6  0  0  0
 14 17  1  0  0  0  0
 15 16  2  0  0  0  0
 17 18  1  0  0  0  0
 19 18  1  6  0  0  0
M  END
>  <CHROM.1>
177.91764862,-11.84809240,-8.94682975,1.39069443,-4.50825218,-1.24959970
0.73453528,0.55989674

>  <Name>
ligand

>  <RI>
0

>  <Rbt.Current_Directory>
/home/itssahil/PROJECTS/Mol_Feturizer/New_Systems/rnas/3SKI

>  <Rbt.Executable>
rbdock ($Id: //depot/dev/client3/rdock/2013.1/src/exe/rbdock.cxx#4 $)

>  <Rbt.Library>
libRbt.so (2013.1, Build901 2013/11/27)

>  <Rbt.Parameter_File>
/export/apps/rDock/src/rDock_2013.1_src/data/scripts/dock_solv.prm

>  <Rbt.Receptor>
prm/blind_docking_100.prm

>  <SCORE>
-16.1234

>  <SCORE.INTER>
-13.2149

>  <SCORE.INTER.CONST>
1

>  <SCORE.INTER.POLAR>
0

>  <SCORE.INTER.ROT>
2

>  <SCORE.INTER.SOLV>
11.8072

>  <SCORE.INTER.VDW>
-17.679

>  <SCORE.INTER.norm>
-0.695519

>  <SCORE.INTRA>
-2.9085

>  <SCORE.INTRA.DIHEDRAL>
-5.03962

>  <SCORE.INTRA.DIHEDRAL.0>
6.26853

>  <SCORE.INTRA.POLAR>
0

>  <SCORE.INTRA.POLAR.0>
0

>  <SCORE.INTRA.REPUL>
0

>  <SCORE.INTRA.REPUL.0>
0

>  <SCORE.INTRA.SOLV>
0.0500223

>  <SCORE.INTRA.SOLV.lig_0>
-38.4926

>  <SCORE.INTRA.VDW>
-0.413702

>  <SCORE.INTRA.VDW.0>
-0.59057

>  <SCORE.INTRA.norm>
-0.153079

>  <SCORE.RESTR>
0

>  <SCORE.RESTR.CAVITY>
0

>  <SCORE.RESTR.norm>
0

>  <SCORE.SYSTEM>
0

>  <SCORE.SYSTEM.CONST>
0

>  <SCORE.SYSTEM.DIHEDRAL>
0

>  <SCORE.SYSTEM.SOLV>
0

>  <SCORE.SYSTEM.norm>
0

>  <SCORE.heavy>
19

>  <SCORE.norm>
-0.848598

>  <RMSD>
16.249

$$$$
ligand
 OpenBabel11021811483D
libRbt.so/2013.1/901 2013/11/27
 19 21  0  0  0  0  0  0  0  0999 V2000
   -7.9325   -0.1484   -7.3531 C   0  0  0  0  0  0  0  0  0  0  0  0
   -8.7372   -1.1110   -6.6561 O   0  0  0  0  0  0  0  0  0  0  0  0
   -7.6909    1.0810   -6.4744 C   0  0  1  0  0  0  0  0  0  0  0  0
   -8.9381    1.6113   -5.9862 O   0  0  0  0  0  0  0  0  0  0  0  0
   -6.8491    0.7280   -5.2609 C   0  0  1  0  0  0  0  0  0  0  0  0
   -5.4999    1.1852   -5.4167 O   0  0  0  0  0  0  0  0  0  0  0  0
   -7.5099    1.4173   -4.0869 C   0  0  0  0  0  0  0  0  0  0  0  0
   -8.8964    1.8207   -4.5670 C   0  0  2  0  0  0  0  0  0  0  0  0
  -10.2385   -3.0012   -2.9732 N   0  0  0  0  0  0  0  0  0  0  0  0
   -9.1084   -2.5742   -3.5983 C   0  0  1  0  0  0  0  0  0  0  0  0
   -8.1368   -3.4720   -3.8878 N   0  0  0  0  0  0  0  0  0  0  0  0
   -8.9340   -1.2692   -3.9427 N   0  0  0  0  0  0  0  0  0  0  0  0
   -9.8796   -0.3274   -3.6771 C   0  0  2  0  0  0  0  0  0  0  0  0
  -11.0501   -0.7039   -3.0436 C   0  0  1  0  0  0  0  0  0  0  0  0
  -11.2270   -2.1307   -2.6713 C   0  0  0  0  0  0  0  0  0  0  0  0
  -12.2658   -2.5192   -2.0916 O   0  0  0  0  0  0  0  0  0  0  0  0
  -11.8072    0.3966   -2.8926 N   0  0  0  0  0  0  0  0  0  0  0  0
  -11.1244    1.4358   -3.4274 C   0  0  0  0  0  0  0  0  0  0  0  0
   -9.9480    0.9923   -3.9067 N   0  0  1  0  0  0  0  0  0  0  0  0
  1  2  1  0  0  0  0
  3  1  1  1  0  0  0
  3  4  1  0  0  0  0
  3  5  1  0  0  0  0
  5  6  1  6  0  0  0
  5  7  1  0  0  0  0
  7  8  1  0  0  0  0
  8  4  1  6  0  0  0
  8 19  1  0  0  0  0
  9 15  1  0  0  0  0
  9 10  1  0  0  0  0
 10 11  1  6  0  0  0
 10 12  1  0  0  0  0
 13 12  1  6  0  0  0
 13 14  1  0  0  0  0
 13 19  1  0  0  0  0
 14 15  1  1  0  0  0
 14 17  1  0  0  0  0
 15 16  2  0  0  0  0
 17 18  1  0  0  0  0
 19 18  1  1  0  0  0
M  END
>  <CHROM.1>
-53.10614161,77.16268222,-9.20856005,-0.34048166,-4.36014875,-0.63042496
-0.59776201,2.97164674

>  <Name>
ligand

>  <RI>
0

>  <Rbt.Current_Directory>
/home/itssahil/PROJECTS/Mol_Feturizer/New_Systems/rnas/3SKI

>  <Rbt.Executable>
rbdock ($Id: //depot/dev/client3/rdock/2013.1/src/exe/rbdock.cxx#4 $)

>  <Rbt.Library>
libRbt.so (2013.1, Build901 2013/11/27)

>  <Rbt.Parameter_File>
/export/apps/rDock/src/rDock_2013.1_src/data/scripts/dock_solv.prm

>  <Rbt.Receptor>
prm/blind_docking_100.prm

>  <SCORE>
-17.7461

>  <SCORE.INTER>
-14.6629

>  <SCORE.INTER.CONST>
1

>  <SCORE.INTER.POLAR>
0

>  <SCORE.INTER.ROT>
2

>  <SCORE.INTER.SOLV>
10.9644

>  <SCORE.INTER.VDW>
-18.3634

>  <SCORE.INTER.norm>
-0.771733

>  <SCORE.INTRA>
-3.08317

>  <SCORE.INTRA.DIHEDRAL>
-4.87886

>  <SCORE.INTRA.DIHEDRAL.0>
6.26853

>  <SCORE.INTRA.POLAR>
0

>  <SCORE.INTRA.POLAR.0>
0

>  <SCORE.INTRA.REPUL>
0

>  <SCORE.INTRA.REPUL.0>
0

>  <SCORE.INTRA.SOLV>
1.22241

>  <SCORE.INTRA.SOLV.lig_0>
-38.4926

>  <SCORE.INTRA.VDW>
-1.25494

>  <SCORE.INTRA.VDW.0>
-0.59057

>  <SCORE.INTRA.norm>
-0.162272

>  <SCORE.RESTR>
0

>  <SCORE.RESTR.CAVITY>
0

>  <SCORE.RESTR.norm>
0

>  <SCORE.SYSTEM>
0

>  <SCORE.SYSTEM.CONST>
0

>  <SCORE.SYSTEM.DIHEDRAL>
0

>  <SCORE.SYSTEM.SOLV>
0

>  <SCORE.SYSTEM.norm>
0

>  <SCORE.heavy>
19

>  <SCORE.norm>
-0.934005

>  <RMSD>
16.265

$$$$
ligand
 OpenBabel11021811483D
libRbt.so/2013.1/901 2013/11/27
 19 21  0  0  0  0  0  0  0  0999 V2000
   -7.1261   -0.4635   -6.4603 C   0  0  0  0  0  0  0  0  0  0  0  0
   -7.6547   -0.6975   -7.7741 O   0  0  0  0  0  0  0  0  0  0  0  0
   -7.3717    0.9865   -6.0373 C   0  0  1  0  0  0  0  0  0  0  0  0
   -8.7833    1.2640   -5.9648 O   0  0  0  0  0  0  0  0  0  0  0  0
   -6.7905    1.2598   -4.6612 C   0  0  1  0  0  0  0  0  0  0  0  0
   -5.5735    2.0108   -4.7537 O   0  0  0  0  0  0  0  0  0  0  0  0
   -7.8457    2.0502   -3.9184 C   0  0  0  0  0  0  0  0  0  0  0  0
   -9.1295    1.8865   -4.7188 C   0  0  2  0  0  0  0  0  0  0  0  0
  -10.2281   -2.9745   -3.0583 N   0  0  0  0  0  0  0  0  0  0  0  0
   -9.1606   -2.5169   -3.7664 C   0  0  1  0  0  0  0  0  0  0  0  0
   -8.1932   -3.3895   -4.1365 N   0  0  0  0  0  0  0  0  0  0  0  0
   -9.0447   -1.2064   -4.1145 N   0  0  0  0  0  0  0  0  0  0  0  0
   -9.9889   -0.2893   -3.7699 C   0  0  2  0  0  0  0  0  0  0  0  0
  -11.0973   -0.6973   -3.0500 C   0  0  1  0  0  0  0  0  0  0  0  0
  -11.2107   -2.1298   -2.6748 C   0  0  0  0  0  0  0  0  0  0  0  0
  -12.1917   -2.5462   -2.0188 O   0  0  0  0  0  0  0  0  0  0  0  0
  -11.8665    0.3838   -2.8332 N   0  0  0  0  0  0  0  0  0  0  0  0
  -11.2523    1.4419   -3.4123 C   0  0  0  0  0  0  0  0  0  0  0  0
  -10.1065    1.0295   -3.9845 N   0  0  1  0  0  0  0  0  0  0  0  0
  1  2  1  0  0  0  0
  3  1  1  1  0  0  0
  3  4  1  0  0  0  0
  3  5  1  0  0  0  0
  5  6  1  6  0  0  0
  5  7  1  0  0  0  0
  7  8  1  0  0  0  0
  8  4  1  6  0  0  0
  8 19  1  0  0  0  0
  9 15  1  0  0  0  0
  9 10  1  0  0  0  0
 10 11  1  6  0  0  0
 10 12  1  0  0  0  0
 13 12  1  6  0  0  0
 13 14  1  0  0  0  0
 13 19  1  0  0  0  0
 14 15  1  1  0  0  0
 14 17  1  0  0  0  0
 15 16  2  0  0  0  0
 17 18  1  0  0  0  0
 19 18  1  1  0  0  0
M  END
>  <CHROM.1>
62.36881055,48.53655402,-9.13504651,-0.22980115,-4.32100208,-0.51345533,-0.63390847
-3.11792546

>  <Name>
ligand

>  <RI>
0

>  <Rbt.Current_Directory>
/home/itssahil/PROJECTS/Mol_Feturizer/New_Systems/rnas/3SKI

>  <Rbt.Executable>
rbdock ($Id: //depot/dev/client3/rdock/2013.1/src/exe/rbdock.cxx#4 $)

>  <Rbt.Library>
libRbt.so (2013.1, Build901 2013/11/27)

>  <Rbt.Parameter_File>
/export/apps/rDock/src/rDock_2013.1_src/data/scripts/dock_solv.prm

>  <Rbt.Receptor>
prm/blind_docking_40.prm

>  <SCORE>
-17.3539

>  <SCORE.INTER>
-13.8382

>  <SCORE.INTER.CONST>
1

>  <SCORE.INTER.POLAR>
0

>  <SCORE.INTER.ROT>
2

>  <SCORE.INTER.SOLV>
9.88516

>  <SCORE.INTER.VDW>
-17.4539

>  <SCORE.INTER.norm>
-0.728328

>  <SCORE.INTRA>
-3.51569

>  <SCORE.INTRA.DIHEDRAL>
-5.05529

>  <SCORE.INTRA.DIHEDRAL.0>
6.26853

>  <SCORE.INTRA.POLAR>
0

>  <SCORE.INTRA.POLAR.0>
0

>  <SCORE.INTRA.REPUL>
0

>  <SCORE.INTRA.REPUL.0>
0

>  <SCORE.INTRA.SOLV>
0.789935

>  <SCORE.INTRA.SOLV.lig_0>
-38.4926

>  <SCORE.INTRA.VDW>
-1.38301

>  <SCORE.INTRA.VDW.0>
-0.59057

>  <SCORE.INTRA.norm>
-0.185036

>  <SCORE.RESTR>
0

>  <SCORE.RESTR.CAVITY>
0

>  <SCORE.RESTR.norm>
0

>  <SCORE.SYSTEM>
0

>  <SCORE.SYSTEM.CONST>
0

>  <SCORE.SYSTEM.DIHEDRAL>
0

>  <SCORE.SYSTEM.SOLV>
0

>  <SCORE.SYSTEM.norm>
0

>  <SCORE.heavy>
19

>  <SCORE.norm>
-0.913364

>  <RMSD>
16.270

$$$$
ligand
 OpenBabel11021811483D
libRbt.so/2013.1/901 2013/11/27
 19 21  0  0  0  0  0  0  0  0999 V2000
   -6.9855   -0.7365   -6.3809 C   0  0  0  0  0  0  0  0  0  0  0  0
   -7.3968   -1.0837   -7.7115 O   0  0  0  0  0  0  0  0  0  0  0  0
   -7.2721    0.7407   -6.1026 C   0  0  1  0  0  0  0  0  0  0  0  0
   -8.6871    1.0045   -6.1587 O   0  0  0  0  0  0  0  0  0  0  0  0
   -6.7975    1.1372   -4.7157 C   0  0  1  0  0  0  0  0  0  0  0  0
   -5.5822    1.8938   -4.7816 O   0  0  0  0  0  0  0  0  0  0  0  0
   -7.9109    1.9735   -4.1232 C   0  0  0  0  0  0  0  0  0  0  0  0
   -9.1299    1.7255   -4.9995 C   0  0  2  0  0  0  0  0  0  0  0  0
  -10.2157   -2.9157   -2.7921 N   0  0  0  0  0  0  0  0  0  0  0  0
   -9.0887   -2.4967   -3.4281 C   0  0  1  0  0  0  0  0  0  0  0  0
   -8.0456   -3.3516   -3.5507 N   0  0  0  0  0  0  0  0  0  0  0  0
   -8.9872   -1.2426   -3.9466 N   0  0  0  0  0  0  0  0  0  0  0  0
  -10.0062   -0.3458   -3.8528 C   0  0  2  0  0  0  0  0  0  0  0  0
  -11.1774   -0.7167   -3.2171 C   0  0  1  0  0  0  0  0  0  0  0  0
  -11.2745   -2.0874   -2.6539 C   0  0  0  0  0  0  0  0  0  0  0  0
  -12.3110   -2.4678   -2.0649 O   0  0  0  0  0  0  0  0  0  0  0  0
  -12.0140    0.3351   -3.2520 N   0  0  0  0  0  0  0  0  0  0  0  0
  -11.3786    1.3381   -3.9020 C   0  0  0  0  0  0  0  0  0  0  0  0
  -10.1532    0.9208   -4.2690 N   0  0  1  0  0  0  0  0  0  0  0  0
  1  2  1  0  0  0  0
  3  1  1  1  0  0  0
  3  4  1  0  0  0  0
  3  5  1  0  0  0  0
  5  6  1  6  0  0  0
  5  7  1  0  0  0  0
  7  8  1  0  0  0  0
  8  4  1  6  0  0  0
  8 19  1  0  0  0  0
  9 15  1  0  0  0  0
  9 10  1  0  0  0  0
 10 11  1  6  0  0  0
 10 12  1  0  0  0  0
 13 12  1  6  0  0  0
 13 14  1  0  0  0  0
 13 19  1  0  0  0  0
 14 15  1  1  0  0  0
 14 17  1  0  0  0  0
 15 16  2  0  0  0  0
 17 18  1  0  0  0  0
 19 18  1  1  0  0  0
M  END
>  <CHROM.1>
63.11079818,53.47415812,-9.12122162,-0.32747547,-4.36079387,-0.56722496,-0.53834708
2.97285451

>  <Name>
ligand

>  <RI>
0

>  <Rbt.Current_Directory>
/home/itssahil/PROJECTS/Mol_Feturizer/New_Systems/rnas/3SKI

>  <Rbt.Executable>
rbdock ($Id: //depot/dev/client3/rdock/2013.1/src/exe/rbdock.cxx#4 $)

>  <Rbt.Library>
libRbt.so (2013.1, Build901 2013/11/27)

>  <Rbt.Parameter_File>
/export/apps/rDock/src/rDock_2013.1_src/data/scripts/dock_solv.prm

>  <Rbt.Receptor>
prm/blind_docking_60.prm

>  <SCORE>
-16.985

>  <SCORE.INTER>
-13.4454

>  <SCORE.INTER.CONST>
1

>  <SCORE.INTER.POLAR>
0

>  <SCORE.INTER.ROT>
2

>  <SCORE.INTER.SOLV>
11.1538

>  <SCORE.INTER.VDW>
-17.6148

>  <SCORE.INTER.norm>
-0.70765

>  <SCORE.INTRA>
-3.5396

>  <SCORE.INTRA.DIHEDRAL>
-5.03613

>  <SCORE.INTRA.DIHEDRAL.0>
6.26853

>  <SCORE.INTRA.POLAR>
0

>  <SCORE.INTRA.POLAR.0>
0

>  <SCORE.INTRA.REPUL>
0

>  <SCORE.INTRA.REPUL.0>
0

>  <SCORE.INTRA.SOLV>
0.65165

>  <SCORE.INTRA.SOLV.lig_0>
-38.4926

>  <SCORE.INTRA.VDW>
-1.34737

>  <SCORE.INTRA.VDW.0>
-0.59057

>  <SCORE.INTRA.norm>
-0.186295

>  <SCORE.RESTR>
0

>  <SCORE.RESTR.CAVITY>
0

>  <SCORE.RESTR.norm>
0

>  <SCORE.SYSTEM>
0

>  <SCORE.SYSTEM.CONST>
0

>  <SCORE.SYSTEM.DIHEDRAL>
0

>  <SCORE.SYSTEM.SOLV>
0

>  <SCORE.SYSTEM.norm>
0

>  <SCORE.heavy>
19

>  <SCORE.norm>
-0.893945

>  <RMSD>
16.270

$$$$
ligand
 OpenBabel11021811483D
libRbt.so/2013.1/901 2013/11/27
 19 21  0  0  0  0  0  0  0  0999 V2000
   -7.9461   -0.0636   -7.3563 C   0  0  0  0  0  0  0  0  0  0  0  0
   -8.7108   -1.0574   -6.6580 O   0  0  0  0  0  0  0  0  0  0  0  0
   -7.7219    1.1601   -6.4652 C   0  0  1  0  0  0  0  0  0  0  0  0
   -8.9760    1.6639   -5.9666 O   0  0  0  0  0  0  0  0  0  0  0  0
   -6.8694    0.8084   -5.2588 C   0  0  1  0  0  0  0  0  0  0  0  0
   -5.5288    1.2900   -5.4148 O   0  0  0  0  0  0  0  0  0  0  0  0
   -7.5371    1.4737   -4.0749 C   0  0  0  0  0  0  0  0  0  0  0  0
   -8.9321    1.8587   -4.5454 C   0  0  2  0  0  0  0  0  0  0  0  0
  -10.1931   -3.0051   -3.0136 N   0  0  0  0  0  0  0  0  0  0  0  0
   -9.0738   -2.5525   -3.6401 C   0  0  1  0  0  0  0  0  0  0  0  0
   -8.0914   -3.4318   -3.9495 N   0  0  0  0  0  0  0  0  0  0  0  0
   -8.9207   -1.2402   -3.9665 N   0  0  0  0  0  0  0  0  0  0  0  0
   -9.8778   -0.3163   -3.6805 C   0  0  2  0  0  0  0  0  0  0  0  0
  -11.0383   -0.7190   -3.0445 C   0  0  1  0  0  0  0  0  0  0  0  0
  -11.1920   -2.1535   -2.6922 C   0  0  0  0  0  0  0  0  0  0  0  0
  -12.2209   -2.5655   -2.1111 O   0  0  0  0  0  0  0  0  0  0  0  0
  -11.8101    0.3681   -2.8721 N   0  0  0  0  0  0  0  0  0  0  0  0
  -11.1462    1.4248   -3.3962 C   0  0  0  0  0  0  0  0  0  0  0  0
   -9.9670    1.0055   -3.8901 N   0  0  1  0  0  0  0  0  0  0  0  0
  1  2  1  0  0  0  0
  3  1  1  6  0  0  0
  3  4  1  0  0  0  0
  3  5  1  0  0  0  0
  5  6  1  6  0  0  0
  5  7  1  0  0  0  0
  7  8  1  0  0  0  0
  8  4  1  6  0  0  0
  8 19  1  0  0  0  0
  9 15  1  0  0  0  0
  9 10  1  0  0  0  0
 10 11  1  6  0  0  0
 10 12  1  0  0  0  0
 13 12  1  6  0  0  0
 13 14  1  0  0  0  0
 13 19  1  0  0  0  0
 14 15  1  1  0  0  0
 14 17  1  0  0  0  0
 15 16  2  0  0  0  0
 17 18  1  0  0  0  0
 19 18  1  1  0  0  0
M  END
>  <CHROM.1>
-54.16503394,76.84539455,-9.20756470,-0.31101581,-4.36444816,-0.64649587
-0.60105683,2.97857963

>  <Name>
ligand

>  <RI>
0

>  <Rbt.Current_Directory>
/home/itssahil/PROJECTS/Mol_Feturizer/New_Systems/rnas/3SKI

>  <Rbt.Executable>
rbdock ($Id: //depot/dev/client3/rdock/2013.1/src/exe/rbdock.cxx#4 $)

>  <Rbt.Library>
libRbt.so (2013.1, Build901 2013/11/27)

>  <Rbt.Parameter_File>
/export/apps/rDock/src/rDock_2013.1_src/data/scripts/dock_solv.prm

>  <Rbt.Receptor>
prm/blind_docking_100.prm

>  <SCORE>
-17.7524

>  <SCORE.INTER>
-14.6759

>  <SCORE.INTER.CONST>
1

>  <SCORE.INTER.POLAR>
0

>  <SCORE.INTER.ROT>
2

>  <SCORE.INTER.SOLV>
10.7362

>  <SCORE.INTER.VDW>
-18.296

>  <SCORE.INTER.norm>
-0.772413

>  <SCORE.INTRA>
-3.0765

>  <SCORE.INTRA.DIHEDRAL>
-4.92723

>  <SCORE.INTRA.DIHEDRAL.0>
6.26853

>  <SCORE.INTRA.POLAR>
0

>  <SCORE.INTRA.POLAR.0>
0

>  <SCORE.INTRA.REPUL>
0

>  <SCORE.INTRA.REPUL.0>
0

>  <SCORE.INTRA.SOLV>
1.26796

>  <SCORE.INTRA.SOLV.lig_0>
-38.4926

>  <SCORE.INTRA.VDW>
-1.24686

>  <SCORE.INTRA.VDW.0>
-0.59057

>  <SCORE.INTRA.norm>
-0.161921

>  <SCORE.RESTR>
0

>  <SCORE.RESTR.CAVITY>
0

>  <SCORE.RESTR.norm>
0

>  <SCORE.SYSTEM>
0

>  <SCORE.SYSTEM.CONST>
0

>  <SCORE.SYSTEM.DIHEDRAL>
0

>  <SCORE.SYSTEM.SOLV>
0

>  <SCORE.SYSTEM.norm>
0

>  <SCORE.heavy>
19

>  <SCORE.norm>
-0.934334

>  <RMSD>
16.277

$$$$
ligand
 OpenBabel11021811483D
libRbt.so/2013.1/901 2013/11/27
 19 21  0  0  0  0  0  0  0  0999 V2000
   -7.1888   -0.7516   -6.5911 C   0  0  0  0  0  0  0  0  0  0  0  0
   -7.7103   -1.0084   -7.9035 O   0  0  0  0  0  0  0  0  0  0  0  0
   -7.4040    0.7146   -6.2093 C   0  0  1  0  0  0  0  0  0  0  0  0
   -8.8093    1.0272   -6.1597 O   0  0  0  0  0  0  0  0  0  0  0  0
   -6.8307    1.0108   -4.8347 C   0  0  1  0  0  0  0  0  0  0  0  0
   -5.5952    1.7301   -4.9337 O   0  0  0  0  0  0  0  0  0  0  0  0
   -7.8744    1.8454   -4.1247 C   0  0  0  0  0  0  0  0  0  0  0  0
   -9.1534    1.6907   -4.9346 C   0  0  2  0  0  0  0  0  0  0  0  0
  -10.2026   -2.9921   -2.7985 N   0  0  0  0  0  0  0  0  0  0  0  0
   -9.0941   -2.5669   -3.4624 C   0  0  1  0  0  0  0  0  0  0  0  0
   -8.0627   -3.4264   -3.6396 N   0  0  0  0  0  0  0  0  0  0  0  0
   -8.9998   -1.3019   -3.9553 N   0  0  0  0  0  0  0  0  0  0  0  0
  -10.0077   -0.4000   -3.8066 C   0  0  2  0  0  0  0  0  0  0  0  0
  -11.1599   -0.7768   -3.1405 C   0  0  1  0  0  0  0  0  0  0  0  0
  -11.2493   -2.1594   -2.6059 C   0  0  0  0  0  0  0  0  0  0  0  0
  -12.2686   -2.5456   -1.9911 O   0  0  0  0  0  0  0  0  0  0  0  0
  -11.9885    0.2817   -3.1231 N   0  0  0  0  0  0  0  0  0  0  0  0
  -11.3671    1.2947   -3.7711 C   0  0  0  0  0  0  0  0  0  0  0  0
  -10.1582    0.8769   -4.1886 N   0  0  1  0  0  0  0  0  0  0  0  0
  1  2  1  0  0  0  0
  3  1  1  1  0  0  0
  3  4  1  0  0  0  0
  3  5  1  0  0  0  0
  5  6  1  6  0  0  0
  5  7  1  0  0  0  0
  7  8  1  0  0  0  0
  8  4  1  6  0  0  0
  8 19  1  0  0  0  0
  9 15  1  0  0  0  0
  9 10  1  0  0  0  0
 10 11  1  6  0  0  0
 10 12  1  0  0  0  0
 13 12  1  6  0  0  0
 13 14  1  0  0  0  0
 13 19  1  0  0  0  0
 14 15  1  1  0  0  0
 14 17  1  0  0  0  0
 15 16  2  0  0  0  0
 17 18  1  0  0  0  0
 19 18  1  1  0  0  0
M  END
>  <CHROM.1>
62.31366433,56.55526528,-9.16207858,-0.38357986,-4.37885572,-0.57179185,-0.58902226
2.97936614

>  <Name>
ligand

>  <RI>
0

>  <Rbt.Current_Directory>
/home/itssahil/PROJECTS/Mol_Feturizer/New_Systems/rnas/3SKI

>  <Rbt.Executable>
rbdock ($Id: //depot/dev/client3/rdock/2013.1/src/exe/rbdock.cxx#4 $)

>  <Rbt.Library>
libRbt.so (2013.1, Build901 2013/11/27)

>  <Rbt.Parameter_File>
/export/apps/rDock/src/rDock_2013.1_src/data/scripts/dock_solv.prm

>  <Rbt.Receptor>
prm/blind_docking_100.prm

>  <SCORE>
-17.0633

>  <SCORE.INTER>
-13.5149

>  <SCORE.INTER.CONST>
1

>  <SCORE.INTER.POLAR>
0

>  <SCORE.INTER.ROT>
2

>  <SCORE.INTER.SOLV>
11.4214

>  <SCORE.INTER.VDW>
-17.7504

>  <SCORE.INTER.norm>
-0.711312

>  <SCORE.INTRA>
-3.54833

>  <SCORE.INTRA.DIHEDRAL>
-5.0491

>  <SCORE.INTRA.DIHEDRAL.0>
6.26853

>  <SCORE.INTRA.POLAR>
0

>  <SCORE.INTRA.POLAR.0>
0

>  <SCORE.INTRA.REPUL>
0

>  <SCORE.INTRA.REPUL.0>
0

>  <SCORE.INTRA.SOLV>
0.555267

>  <SCORE.INTRA.SOLV.lig_0>
-38.4926

>  <SCORE.INTRA.VDW>
-1.30142

>  <SCORE.INTRA.VDW.0>
-0.59057

>  <SCORE.INTRA.norm>
-0.186754

>  <SCORE.RESTR>
0

>  <SCORE.RESTR.CAVITY>
0

>  <SCORE.RESTR.norm>
0

>  <SCORE.SYSTEM>
0

>  <SCORE.SYSTEM.CONST>
0

>  <SCORE.SYSTEM.DIHEDRAL>
0

>  <SCORE.SYSTEM.SOLV>
0

>  <SCORE.SYSTEM.norm>
0

>  <SCORE.heavy>
19

>  <SCORE.norm>
-0.898067

>  <RMSD>
16.281

$$$$
ligand
 OpenBabel11021811483D
libRbt.so/2013.1/901 2013/11/27
 19 21  0  0  0  0  0  0  0  0999 V2000
   -7.1504   -0.4835   -6.5951 C   0  0  0  0  0  0  0  0  0  0  0  0
   -7.7816   -0.6911   -7.8674 O   0  0  0  0  0  0  0  0  0  0  0  0
   -7.3515    0.9604   -6.1295 C   0  0  1  0  0  0  0  0  0  0  0  0
   -8.7540    1.2664   -6.0096 O   0  0  0  0  0  0  0  0  0  0  0  0
   -6.7258    1.1861   -4.7645 C   0  0  1  0  0  0  0  0  0  0  0  0
   -5.4954    1.9127   -4.8733 O   0  0  0  0  0  0  0  0  0  0  0  0
   -7.7417    1.9800   -3.9723 C   0  0  0  0  0  0  0  0  0  0  0  0
   -9.0509    1.8645   -4.7393 C   0  0  2  0  0  0  0  0  0  0  0  0
  -10.1655   -2.9975   -3.0924 N   0  0  0  0  0  0  0  0  0  0  0  0
   -9.1028   -2.5437   -3.8100 C   0  0  1  0  0  0  0  0  0  0  0  0
   -8.1460   -3.4211   -4.1957 N   0  0  0  0  0  0  0  0  0  0  0  0
   -8.9814   -1.2322   -4.1524 N   0  0  0  0  0  0  0  0  0  0  0  0
   -9.9152   -0.3103   -3.7923 C   0  0  2  0  0  0  0  0  0  0  0  0
  -11.0182   -0.7143   -3.0621 C   0  0  1  0  0  0  0  0  0  0  0  0
  -11.1376   -2.1479   -2.6933 C   0  0  0  0  0  0  0  0  0  0  0  0
  -12.1142   -2.5609   -2.0285 O   0  0  0  0  0  0  0  0  0  0  0  0
  -11.7772    0.3710   -2.8309 N   0  0  0  0  0  0  0  0  0  0  0  0
  -11.1620    1.4279   -3.4112 C   0  0  0  0  0  0  0  0  0  0  0  0
  -10.0257    1.0104   -3.9985 N   0  0  1  0  0  0  0  0  0  0  0  0
  1  2  1  0  0  0  0
  3  1  1  1  0  0  0
  3  4  1  0  0  0  0
  3  5  1  0  0  0  0
  5  6  1  6  0  0  0
  5  7  1  0  0  0  0
  7  8  1  0  0  0  0
  8  4  1  6  0  0  0
  8 19  1  0  0  0  0
  9 15  1  0  0  0  0
  9 10  1  0  0  0  0
 10 11  1  6  0  0  0
 10 12  1  0  0  0  0
 13 12  1  6  0  0  0
 13 14  1  0  0  0  0
 13 19  1  0  0  0  0
 14 15  1  1  0  0  0
 14 17  1  0  0  0  0
 15 16  2  0  0  0  0
 17 18  1  0  0  0  0
 19 18  1  1  0  0  0
M  END
>  <CHROM.1>
59.35820921,50.25815023,-9.08346620,-0.25756900,-4.37034147,-0.50703220,-0.65465009
-3.11249290

>  <Name>
ligand

>  <RI>
0

>  <Rbt.Current_Directory>
/home/itssahil/PROJECTS/Mol_Feturizer/New_Systems/rnas/3SKI

>  <Rbt.Executable>
rbdock ($Id: //depot/dev/client3/rdock/2013.1/src/exe/rbdock.cxx#4 $)

>  <Rbt.Library>
libRbt.so (2013.1, Build901 2013/11/27)

>  <Rbt.Parameter_File>
/export/apps/rDock/src/rDock_2013.1_src/data/scripts/dock_solv.prm

>  <Rbt.Receptor>
prm/blind_docking_60.prm

>  <SCORE>
-17.4574

>  <SCORE.INTER>
-13.9378

>  <SCORE.INTER.CONST>
1

>  <SCORE.INTER.POLAR>
0

>  <SCORE.INTER.ROT>
2

>  <SCORE.INTER.SOLV>
9.95756

>  <SCORE.INTER.VDW>
-17.5444

>  <SCORE.INTER.norm>
-0.73357

>  <SCORE.INTRA>
-3.51959

>  <SCORE.INTRA.DIHEDRAL>
-5.07371

>  <SCORE.INTRA.DIHEDRAL.0>
6.26853

>  <SCORE.INTRA.POLAR>
0

>  <SCORE.INTRA.POLAR.0>
0

>  <SCORE.INTRA.REPUL>
0

>  <SCORE.INTRA.REPUL.0>
0

>  <SCORE.INTRA.SOLV>
0.757472

>  <SCORE.INTRA.SOLV.lig_0>
-38.4926

>  <SCORE.INTRA.VDW>
-1.36147

>  <SCORE.INTRA.VDW.0>
-0.59057

>  <SCORE.INTRA.norm>
-0.185242

>  <SCORE.RESTR>
0

>  <SCORE.RESTR.CAVITY>
0

>  <SCORE.RESTR.norm>
0

>  <SCORE.SYSTEM>
0

>  <SCORE.SYSTEM.CONST>
0

>  <SCORE.SYSTEM.DIHEDRAL>
0

>  <SCORE.SYSTEM.SOLV>
0

>  <SCORE.SYSTEM.norm>
0

>  <SCORE.heavy>
19

>  <SCORE.norm>
-0.918812

>  <RMSD>
16.296

$$$$
ligand
 OpenBabel11021811483D
libRbt.so/2013.1/901 2013/11/27
 19 21  0  0  0  0  0  0  0  0999 V2000
   -7.1377   -0.6390   -6.5442 C   0  0  0  0  0  0  0  0  0  0  0  0
   -7.7002   -0.9007   -7.8385 O   0  0  0  0  0  0  0  0  0  0  0  0
   -7.3747    0.8192   -6.1447 C   0  0  1  0  0  0  0  0  0  0  0  0
   -8.7840    1.1150   -6.1091 O   0  0  0  0  0  0  0  0  0  0  0  0
   -6.8227    1.1023   -4.7587 C   0  0  1  0  0  0  0  0  0  0  0  0
   -5.5944    1.8369   -4.8314 O   0  0  0  0  0  0  0  0  0  0  0  0
   -7.8850    1.9148   -4.0507 C   0  0  0  0  0  0  0  0  0  0  0  0
   -9.1515    1.7571   -4.8793 C   0  0  2  0  0  0  0  0  0  0  0  0
  -10.2347   -3.0099   -2.9571 N   0  0  0  0  0  0  0  0  0  0  0  0
   -9.1305   -2.5677   -3.6170 C   0  0  1  0  0  0  0  0  0  0  0  0
   -8.1142   -3.4314   -3.8520 N   0  0  0  0  0  0  0  0  0  0  0  0
   -9.0257   -1.2816   -4.0492 N   0  0  0  0  0  0  0  0  0  0  0  0
  -10.0183   -0.3745   -3.8410 C   0  0  2  0  0  0  0  0  0  0  0  0
  -11.1655   -0.7678   -3.1759 C   0  0  1  0  0  0  0  0  0  0  0  0
  -11.2665   -2.1736   -2.7077 C   0  0  0  0  0  0  0  0  0  0  0  0
  -12.2817   -2.5756   -2.0964 O   0  0  0  0  0  0  0  0  0  0  0  0
  -11.9787    0.2995   -3.0940 N   0  0  0  0  0  0  0  0  0  0  0  0
  -11.3528    1.3345   -3.7016 C   0  0  0  0  0  0  0  0  0  0  0  0
  -10.1564    0.9214   -4.1580 N   0  0  1  0  0  0  0  0  0  0  0  0
  1  2  1  0  0  0  0
  3  1  1  1  0  0  0
  3  4  1  0  0  0  0
  3  5  1  0  0  0  0
  5  6  1  6  0  0  0
  5  7  1  0  0  0  0
  7  8  1  0  0  0  0
  8  4  1  6  0  0  0
  8 19  1  0  0  0  0
  9 15  1  0  0  0  0
  9 10  1  0  0  0  0
 10 11  1  6  0  0  0
 10 12  1  0  0  0  0
 13 12  1  6  0  0  0
 13 14  1  0  0  0  0
 13 19  1  0  0  0  0
 14 15  1  1  0  0  0
 14 17  1  0  0  0  0
 15 16  2  0  0  0  0
 17 18  1  0  0  0  0
 19 18  1  1  0  0  0
M  END
>  <CHROM.1>
59.35453223,53.60696689,-9.16435128,-0.33810591,-4.38923166,-0.55379822,-0.58868956
3.05363588

>  <Name>
ligand

>  <RI>
0

>  <Rbt.Current_Directory>
/home/itssahil/PROJECTS/Mol_Feturizer/New_Systems/rnas/3SKI

>  <Rbt.Executable>
rbdock ($Id: //depot/dev/client3/rdock/2013.1/src/exe/rbdock.cxx#4 $)

>  <Rbt.Library>
libRbt.so (2013.1, Build901 2013/11/27)

>  <Rbt.Parameter_File>
/export/apps/rDock/src/rDock_2013.1_src/data/scripts/dock_solv.prm

>  <Rbt.Receptor>
prm/blind_docking_40.prm

>  <SCORE>
-17.292

>  <SCORE.INTER>
-13.7604

>  <SCORE.INTER.CONST>
1

>  <SCORE.INTER.POLAR>
0

>  <SCORE.INTER.ROT>
2

>  <SCORE.INTER.SOLV>
10.6006

>  <SCORE.INTER.VDW>
-17.6405

>  <SCORE.INTER.norm>
-0.724233

>  <SCORE.INTRA>
-3.53156

>  <SCORE.INTRA.DIHEDRAL>
-5.07074

>  <SCORE.INTRA.DIHEDRAL.0>
6.26853

>  <SCORE.INTRA.POLAR>
0

>  <SCORE.INTRA.POLAR.0>
0

>  <SCORE.INTRA.REPUL>
0

>  <SCORE.INTRA.REPUL.0>
0

>  <SCORE.INTRA.SOLV>
0.66165

>  <SCORE.INTRA.SOLV.lig_0>
-38.4926

>  <SCORE.INTRA.VDW>
-1.32702

>  <SCORE.INTRA.VDW.0>
-0.59057

>  <SCORE.INTRA.norm>
-0.185872

>  <SCORE.RESTR>
0

>  <SCORE.RESTR.CAVITY>
0

>  <SCORE.RESTR.norm>
0

>  <SCORE.SYSTEM>
0

>  <SCORE.SYSTEM.CONST>
0

>  <SCORE.SYSTEM.DIHEDRAL>
0

>  <SCORE.SYSTEM.SOLV>
0

>  <SCORE.SYSTEM.norm>
0

>  <SCORE.heavy>
19

>  <SCORE.norm>
-0.910105

>  <RMSD>
16.307

$$$$
ligand
 OpenBabel11021811483D
libRbt.so/2013.1/901 2013/11/27
 19 21  0  0  0  0  0  0  0  0999 V2000
   -7.3333    0.6261   -7.4204 C   0  0  0  0  0  0  0  0  0  0  0  0
   -7.3867    0.1997   -8.7900 O   0  0  0  0  0  0  0  0  0  0  0  0
   -7.6031   -0.5536   -6.4838 C   0  0  1  0  0  0  0  0  0  0  0  0
   -7.4885   -0.1473   -5.1066 O   0  0  0  0  0  0  0  0  0  0  0  0
   -9.0095   -1.0930   -6.6759 C   0  0  1  0  0  0  0  0  0  0  0  0
   -8.9963   -2.3201   -7.4160 O   0  0  0  0  0  0  0  0  0  0  0  0
   -9.5571   -1.3197   -5.2835 C   0  0  0  0  0  0  0  0  0  0  0  0
   -8.6300   -0.5639   -4.3429 C   0  0  2  0  0  0  0  0  0  0  0  0
   -8.1609    4.5291   -3.1454 N   0  0  0  0  0  0  0  0  0  0  0  0
   -7.2548    3.6775   -3.6967 C   0  0  1  0  0  0  0  0  0  0  0  0
   -6.0217    4.1412   -4.0105 N   0  0  0  0  0  0  0  0  0  0  0  0
   -7.5567    2.3722   -3.9355 N   0  0  0  0  0  0  0  0  0  0  0  0
   -8.7795    1.8553   -3.6370 C   0  0  2  0  0  0  0  0  0  0  0  0
   -9.7411    2.6746   -3.0737 C   0  0  1  0  0  0  0  0  0  0  0  0
   -9.3995    4.0975   -2.8200 C   0  0  0  0  0  0  0  0  0  0  0  0
  -10.2374    4.8794   -2.3175 O   0  0  0  0  0  0  0  0  0  0  0  0
  -10.8482    1.9364   -2.8824 N   0  0  0  0  0  0  0  0  0  0  0  0
  -10.5787    0.6813   -3.3120 C   0  0  0  0  0  0  0  0  0  0  0  0
   -9.3151    0.6330   -3.7716 N   0  0  1  0  0  0  0  0  0  0  0  0
  1  2  1  0  0  0  0
  3  1  1  6  0  0  0
  3  4  1  0  0  0  0
  3  5  1  0  0  0  0
  5  6  1  6  0  0  0
  5  7  1  0  0  0  0
  7  8  1  0  0  0  0
  8  4  1  6  0  0  0
  8 19  1  0  0  0  0
  9 15  1  0  0  0  0
  9 10  1  0  0  0  0
 10 11  1  1  0  0  0
 10 12  1  0  0  0  0
 13 12  1  1  0  0  0
 13 14  1  0  0  0  0
 13 19  1  0  0  0  0
 14 15  1  6  0  0  0
 14 17  1  0  0  0  0
 15 16  2  0  0  0  0
 17 18  1  0  0  0  0
 19 18  1  6  0  0  0
M  END
>  <CHROM.1>
177.27282799,-18.11329382,-8.60553006,1.33965487,-4.71422969,-1.43619829
0.66210016,0.61812168

>  <Name>
ligand

>  <RI>
0

>  <Rbt.Current_Directory>
/home/itssahil/PROJECTS/Mol_Feturizer/New_Systems/rnas/3SKI

>  <Rbt.Executable>
rbdock ($Id: //depot/dev/client3/rdock/2013.1/src/exe/rbdock.cxx#4 $)

>  <Rbt.Library>
libRbt.so (2013.1, Build901 2013/11/27)

>  <Rbt.Parameter_File>
/export/apps/rDock/src/rDock_2013.1_src/data/scripts/dock_solv.prm

>  <Rbt.Receptor>
prm/blind_docking_20.prm

>  <SCORE>
-16.0615

>  <SCORE.INTER>
-13.2748

>  <SCORE.INTER.CONST>
1

>  <SCORE.INTER.POLAR>
0

>  <SCORE.INTER.ROT>
2

>  <SCORE.INTER.SOLV>
9.4633

>  <SCORE.INTER.VDW>
-16.9376

>  <SCORE.INTER.norm>
-0.698673

>  <SCORE.INTRA>
-2.78676

>  <SCORE.INTRA.DIHEDRAL>
-5.02443

>  <SCORE.INTRA.DIHEDRAL.0>
6.26853

>  <SCORE.INTRA.POLAR>
0

>  <SCORE.INTRA.POLAR.0>
0

>  <SCORE.INTRA.REPUL>
0

>  <SCORE.INTRA.REPUL.0>
0

>  <SCORE.INTRA.SOLV>
0.0414249

>  <SCORE.INTRA.SOLV.lig_0>
-38.4926

>  <SCORE.INTRA.VDW>
-0.295262

>  <SCORE.INTRA.VDW.0>
-0.59057

>  <SCORE.INTRA.norm>
-0.146672

>  <SCORE.RESTR>
0

>  <SCORE.RESTR.CAVITY>
0

>  <SCORE.RESTR.norm>
0

>  <SCORE.SYSTEM>
0

>  <SCORE.SYSTEM.CONST>
0

>  <SCORE.SYSTEM.DIHEDRAL>
0

>  <SCORE.SYSTEM.SOLV>
0

>  <SCORE.SYSTEM.norm>
0

>  <SCORE.heavy>
19

>  <SCORE.norm>
-0.845345

>  <RMSD>
16.331

$$$$
ligand
 OpenBabel11021811483D
libRbt.so/2013.1/901 2013/11/27
 19 21  0  0  0  0  0  0  0  0999 V2000
   -7.3800   -0.3315   -6.9381 C   0  0  0  0  0  0  0  0  0  0  0  0
   -8.0161   -0.2737   -8.2235 O   0  0  0  0  0  0  0  0  0  0  0  0
   -7.4065    1.0439   -6.2677 C   0  0  1  0  0  0  0  0  0  0  0  0
   -8.7607    1.4507   -5.9930 O   0  0  0  0  0  0  0  0  0  0  0  0
   -6.6687    1.0189   -4.9407 C   0  0  1  0  0  0  0  0  0  0  0  0
   -5.3838    1.6436   -5.0514 O   0  0  0  0  0  0  0  0  0  0  0  0
   -7.5451    1.7781   -3.9682 C   0  0  0  0  0  0  0  0  0  0  0  0
   -8.9092    1.8866   -4.6338 C   0  0  2  0  0  0  0  0  0  0  0  0
  -10.0738   -2.9913   -3.0706 N   0  0  0  0  0  0  0  0  0  0  0  0
   -8.9860   -2.5294   -3.7443 C   0  0  1  0  0  0  0  0  0  0  0  0
   -8.0136   -3.4017   -4.1013 N   0  0  0  0  0  0  0  0  0  0  0  0
   -8.8549   -1.2148   -4.0708 N   0  0  0  0  0  0  0  0  0  0  0  0
   -9.8034   -0.2977   -3.7380 C   0  0  2  0  0  0  0  0  0  0  0  0
  -10.9320   -0.7100   -3.0528 C   0  0  1  0  0  0  0  0  0  0  0  0
  -11.0620   -2.1469   -2.7008 C   0  0  0  0  0  0  0  0  0  0  0  0
  -12.0616   -2.5674   -2.0764 O   0  0  0  0  0  0  0  0  0  0  0  0
  -11.7015    0.3719   -2.8410 N   0  0  0  0  0  0  0  0  0  0  0  0
  -11.0674    1.4348   -3.3890 C   0  0  0  0  0  0  0  0  0  0  0  0
   -9.9091    1.0245   -3.9371 N   0  0  1  0  0  0  0  0  0  0  0  0
  1  2  1  0  0  0  0
  3  1  1  1  0  0  0
  3  4  1  0  0  0  0
  3  5  1  0  0  0  0
  5  6  1  6  0  0  0
  5  7  1  0  0  0  0
  7  8  1  0  0  0  0
  8  4  1  6  0  0  0
  8 19  1  0  0  0  0
  9 15  1  0  0  0  0
  9 10  1  0  0  0  0
 10 11  1  6  0  0  0
 10 12  1  0  0  0  0
 13 12  1  6  0  0  0
 13 14  1  0  0  0  0
 13 19  1  0  0  0  0
 14 15  1  1  0  0  0
 14 17  1  0  0  0  0
 15 16  2  0  0  0  0
 17 18  1  0  0  0  0
 19 18  1  1  0  0  0
M  END
>  <CHROM.1>
64.27821678,61.54581645,-9.03137133,-0.23844706,-4.41361859,-0.54068608,-0.68083084
3.10451897

>  <Name>
ligand

>  <RI>
0

>  <Rbt.Current_Directory>
/home/itssahil/PROJECTS/Mol_Feturizer/New_Systems/rnas/3SKI

>  <Rbt.Executable>
rbdock ($Id: //depot/dev/client3/rdock/2013.1/src/exe/rbdock.cxx#4 $)

>  <Rbt.Library>
libRbt.so (2013.1, Build901 2013/11/27)

>  <Rbt.Parameter_File>
/export/apps/rDock/src/rDock_2013.1_src/data/scripts/dock_solv.prm

>  <Rbt.Receptor>
prm/blind_docking_60.prm

>  <SCORE>
-17.4555

>  <SCORE.INTER>
-13.895

>  <SCORE.INTER.CONST>
1

>  <SCORE.INTER.POLAR>
0

>  <SCORE.INTER.ROT>
2

>  <SCORE.INTER.SOLV>
10.4695

>  <SCORE.INTER.VDW>
-17.6865

>  <SCORE.INTER.norm>
-0.731316

>  <SCORE.INTRA>
-3.5605

>  <SCORE.INTRA.DIHEDRAL>
-4.99699

>  <SCORE.INTRA.DIHEDRAL.0>
6.26853

>  <SCORE.INTRA.POLAR>
0

>  <SCORE.INTRA.POLAR.0>
0

>  <SCORE.INTRA.REPUL>
0

>  <SCORE.INTRA.REPUL.0>
0

>  <SCORE.INTRA.SOLV>
0.366019

>  <SCORE.INTRA.SOLV.lig_0>
-38.4926

>  <SCORE.INTRA.VDW>
-1.24501

>  <SCORE.INTRA.VDW.0>
-0.59057

>  <SCORE.INTRA.norm>
-0.187395

>  <SCORE.RESTR>
0

>  <SCORE.RESTR.CAVITY>
0

>  <SCORE.RESTR.norm>
0

>  <SCORE.SYSTEM>
0

>  <SCORE.SYSTEM.CONST>
0

>  <SCORE.SYSTEM.DIHEDRAL>
0

>  <SCORE.SYSTEM.SOLV>
0

>  <SCORE.SYSTEM.norm>
0

>  <SCORE.heavy>
19

>  <SCORE.norm>
-0.918711

>  <RMSD>
16.331

$$$$
ligand
 OpenBabel11021811483D
libRbt.so/2013.1/901 2013/11/27
 19 21  0  0  0  0  0  0  0  0999 V2000
   -7.9287   -3.2308   -8.6663 C   0  0  0  0  0  0  0  0  0  0  0  0
   -9.1191   -3.2782   -7.8658 O   0  0  0  0  0  0  0  0  0  0  0  0
   -6.6937   -3.4921   -7.8011 C   0  0  1  0  0  0  0  0  0  0  0  0
   -6.6639   -2.5977   -6.6723 O   0  0  0  0  0  0  0  0  0  0  0  0
   -6.7019   -4.9073   -7.2508 C   0  0  1  0  0  0  0  0  0  0  0  0
   -5.7758   -5.7422   -7.9570 O   0  0  0  0  0  0  0  0  0  0  0  0
   -6.3030   -4.7856   -5.7962 C   0  0  0  0  0  0  0  0  0  0  0  0
   -6.4473   -3.3117   -5.4464 C   0  0  2  0  0  0  0  0  0  0  0  0
  -10.3738   -0.0836   -4.1215 N   0  0  0  0  0  0  0  0  0  0  0  0
   -9.4245    0.0506   -5.0863 C   0  0  1  0  0  0  0  0  0  0  0  0
   -9.4276    1.1600   -5.8630 N   0  0  0  0  0  0  0  0  0  0  0  0
   -8.4712   -0.8999   -5.2858 N   0  0  0  0  0  0  0  0  0  0  0  0
   -8.4219   -2.0317   -4.5320 C   0  0  2  0  0  0  0  0  0  0  0  0
   -9.3616   -2.2221   -3.5351 C   0  0  1  0  0  0  0  0  0  0  0  0
  -10.3976   -1.1781   -3.3291 C   0  0  0  0  0  0  0  0  0  0  0  0
  -11.2726   -1.3074   -2.4439 O   0  0  0  0  0  0  0  0  0  0  0  0
   -9.1030   -3.4033   -2.9476 N   0  0  0  0  0  0  0  0  0  0  0  0
   -8.0202   -3.9342   -3.5623 C   0  0  0  0  0  0  0  0  0  0  0  0
   -7.6048   -3.0954   -4.5289 N   0  0  1  0  0  0  0  0  0  0  0  0
  1  2  1  0  0  0  0
  3  1  1  1  0  0  0
  3  4  1  0  0  0  0
  3  5  1  0  0  0  0
  5  6  1  6  0  0  0
  5  7  1  0  0  0  0
  7  8  1  0  0  0  0
  8  4  1  6  0  0  0
  8 19  1  0  0  0  0
  9 15  1  0  0  0  0
  9 10  1  0  0  0  0
 10 11  1  1  0  0  0
 10 12  1  0  0  0  0
 13 12  1  1  0  0  0
 13 14  1  0  0  0  0
 13 19  1  0  0  0  0
 14 15  1  6  0  0  0
 14 17  1  0  0  0  0
 15 16  2  0  0  0  0
 17 18  1  0  0  0  0
 19 18  1  6  0  0  0
M  END
>  <CHROM.1>
-53.41355641,-26.14005031,-8.27454700,-2.57335061,-5.46753750,0.22349532
0.95899549,-1.04630034

>  <Name>
ligand

>  <RI>
0

>  <Rbt.Current_Directory>
/home/itssahil/PROJECTS/Mol_Feturizer/New_Systems/rnas/3SKI

>  <Rbt.Executable>
rbdock ($Id: //depot/dev/client3/rdock/2013.1/src/exe/rbdock.cxx#4 $)

>  <Rbt.Library>
libRbt.so (2013.1, Build901 2013/11/27)

>  <Rbt.Parameter_File>
/export/apps/rDock/src/rDock_2013.1_src/data/scripts/dock_solv.prm

>  <Rbt.Receptor>
prm/blind_docking_60.prm

>  <SCORE>
-10.8103

>  <SCORE.INTER>
-8.01585

>  <SCORE.INTER.CONST>
1

>  <SCORE.INTER.POLAR>
0

>  <SCORE.INTER.ROT>
2

>  <SCORE.INTER.SOLV>
10.8569

>  <SCORE.INTER.VDW>
-13.8962

>  <SCORE.INTER.norm>
-0.421887

>  <SCORE.INTRA>
-2.79449

>  <SCORE.INTRA.DIHEDRAL>
-4.88971

>  <SCORE.INTRA.DIHEDRAL.0>
6.26853

>  <SCORE.INTRA.POLAR>
0

>  <SCORE.INTRA.POLAR.0>
0

>  <SCORE.INTRA.REPUL>
0

>  <SCORE.INTRA.REPUL.0>
0

>  <SCORE.INTRA.SOLV>
0.313508

>  <SCORE.INTRA.SOLV.lig_0>
-38.4926

>  <SCORE.INTRA.VDW>
-0.506389

>  <SCORE.INTRA.VDW.0>
-0.59057

>  <SCORE.INTRA.norm>
-0.147079

>  <SCORE.RESTR>
0

>  <SCORE.RESTR.CAVITY>
0

>  <SCORE.RESTR.norm>
0

>  <SCORE.SYSTEM>
0

>  <SCORE.SYSTEM.CONST>
0

>  <SCORE.SYSTEM.DIHEDRAL>
0

>  <SCORE.SYSTEM.SOLV>
0

>  <SCORE.SYSTEM.norm>
0

>  <SCORE.heavy>
19

>  <SCORE.norm>
-0.568965

>  <RMSD>
16.353

$$$$
ligand
 OpenBabel11021811483D
libRbt.so/2013.1/901 2013/11/27
 19 21  0  0  0  0  0  0  0  0999 V2000
   -7.8625   -0.1891   -7.2166 C   0  0  0  0  0  0  0  0  0  0  0  0
   -6.5926   -0.6719   -7.6797 O   0  0  0  0  0  0  0  0  0  0  0  0
   -7.6818    1.1009   -6.4135 C   0  0  1  0  0  0  0  0  0  0  0  0
   -8.9558    1.6118   -5.9766 O   0  0  0  0  0  0  0  0  0  0  0  0
   -6.8467    0.8570   -5.1689 C   0  0  1  0  0  0  0  0  0  0  0  0
   -5.5135    1.3556   -5.3348 O   0  0  0  0  0  0  0  0  0  0  0  0
   -7.5518    1.5918   -4.0496 C   0  0  0  0  0  0  0  0  0  0  0  0
   -8.9447    1.9105   -4.5729 C   0  0  2  0  0  0  0  0  0  0  0  0
  -10.3552   -2.9427   -3.1412 N   0  0  0  0  0  0  0  0  0  0  0  0
   -9.2609   -2.5221   -3.8310 C   0  0  1  0  0  0  0  0  0  0  0  0
   -8.3527   -3.4368   -4.2461 N   0  0  0  0  0  0  0  0  0  0  0  0
   -9.0605   -1.2067   -4.1168 N   0  0  0  0  0  0  0  0  0  0  0  0
   -9.9428   -0.2478   -3.7251 C   0  0  2  0  0  0  0  0  0  0  0  0
  -11.0747   -0.6169   -3.0210 C   0  0  1  0  0  0  0  0  0  0  0  0
  -11.2805   -2.0553   -2.7139 C   0  0  0  0  0  0  0  0  0  0  0  0
  -12.2859   -2.4381   -2.0746 O   0  0  0  0  0  0  0  0  0  0  0  0
  -11.7718    0.5001   -2.7499 N   0  0  0  0  0  0  0  0  0  0  0  0
  -11.0907    1.5427   -3.2804 C   0  0  0  0  0  0  0  0  0  0  0  0
   -9.9747    1.0846   -3.8763 N   0  0  1  0  0  0  0  0  0  0  0  0
  1  2  1  0  0  0  0
  3  1  1  1  0  0  0
  3  4  1  0  0  0  0
  3  5  1  0  0  0  0
  5  6  1  6  0  0  0
  5  7  1  0  0  0  0
  7  8  1  0  0  0  0
  8  4  1  6  0  0  0
  8 19  1  0  0  0  0
  9 15  1  0  0  0  0
  9 10  1  0  0  0  0
 10 11  1  6  0  0  0
 10 12  1  0  0  0  0
 13 12  1  6  0  0  0
 13 14  1  0  0  0  0
 13 19  1  0  0  0  0
 14 15  1  1  0  0  0
 14 17  1  0  0  0  0
 15 16  2  0  0  0  0
 17 18  1  0  0  0  0
 19 18  1  1  0  0  0
M  END
>  <CHROM.1>
178.40894111,67.41776056,-9.11676576,-0.24175432,-4.43488553,-0.44763484
-0.66210427,3.10657796

>  <Name>
ligand

>  <RI>
0

>  <Rbt.Current_Directory>
/home/itssahil/PROJECTS/Mol_Feturizer/New_Systems/rnas/3SKI

>  <Rbt.Executable>
rbdock ($Id: //depot/dev/client3/rdock/2013.1/src/exe/rbdock.cxx#4 $)

>  <Rbt.Library>
libRbt.so (2013.1, Build901 2013/11/27)

>  <Rbt.Parameter_File>
/export/apps/rDock/src/rDock_2013.1_src/data/scripts/dock_solv.prm

>  <Rbt.Receptor>
prm/blind_docking_80.prm

>  <SCORE>
-18.0721

>  <SCORE.INTER>
-14.6422

>  <SCORE.INTER.CONST>
1

>  <SCORE.INTER.POLAR>
0

>  <SCORE.INTER.ROT>
2

>  <SCORE.INTER.SOLV>
9.63784

>  <SCORE.INTER.VDW>
-17.9074

>  <SCORE.INTER.norm>
-0.77064

>  <SCORE.INTRA>
-3.42994

>  <SCORE.INTRA.DIHEDRAL>
-5.05025

>  <SCORE.INTRA.DIHEDRAL.0>
6.26853

>  <SCORE.INTRA.POLAR>
0

>  <SCORE.INTRA.POLAR.0>
0

>  <SCORE.INTRA.REPUL>
0

>  <SCORE.INTRA.REPUL.0>
0

>  <SCORE.INTRA.SOLV>
0.357951

>  <SCORE.INTRA.SOLV.lig_0>
-38.4926

>  <SCORE.INTRA.VDW>
-1.08379

>  <SCORE.INTRA.VDW.0>
-0.59057

>  <SCORE.INTRA.norm>
-0.180523

>  <SCORE.RESTR>
0

>  <SCORE.RESTR.CAVITY>
0

>  <SCORE.RESTR.norm>
0

>  <SCORE.SYSTEM>
0

>  <SCORE.SYSTEM.CONST>
0

>  <SCORE.SYSTEM.DIHEDRAL>
0

>  <SCORE.SYSTEM.SOLV>
0

>  <SCORE.SYSTEM.norm>
0

>  <SCORE.heavy>
19

>  <SCORE.norm>
-0.951163

>  <RMSD>
16.361

$$$$
ligand
 OpenBabel11021811483D
libRbt.so/2013.1/901 2013/11/27
 19 21  0  0  0  0  0  0  0  0999 V2000
   -7.8910   -0.1902   -7.2619 C   0  0  0  0  0  0  0  0  0  0  0  0
   -6.6250   -0.6714   -7.7373 O   0  0  0  0  0  0  0  0  0  0  0  0
   -7.7021    1.0898   -6.4448 C   0  0  1  0  0  0  0  0  0  0  0  0
   -8.9730    1.6046   -6.0033 O   0  0  0  0  0  0  0  0  0  0  0  0
   -6.8698    0.8267   -5.2023 C   0  0  1  0  0  0  0  0  0  0  0  0
   -5.5330    1.3179   -5.3617 O   0  0  0  0  0  0  0  0  0  0  0  0
   -7.5708    1.5541   -4.0756 C   0  0  0  0  0  0  0  0  0  0  0  0
   -8.9610    1.8880   -4.5965 C   0  0  2  0  0  0  0  0  0  0  0  0
  -10.3223   -2.9494   -3.0668 N   0  0  0  0  0  0  0  0  0  0  0  0
   -9.2140   -2.5265   -3.7325 C   0  0  1  0  0  0  0  0  0  0  0  0
   -8.2744   -3.4340   -4.0898 N   0  0  0  0  0  0  0  0  0  0  0  0
   -9.0302   -1.2162   -4.0509 N   0  0  0  0  0  0  0  0  0  0  0  0
   -9.9440   -0.2648   -3.7175 C   0  0  2  0  0  0  0  0  0  0  0  0
  -11.0913   -0.6365   -3.0402 C   0  0  1  0  0  0  0  0  0  0  0  0
  -11.2788   -2.0693   -2.6971 C   0  0  0  0  0  0  0  0  0  0  0  0
  -12.2972   -2.4539   -2.0799 O   0  0  0  0  0  0  0  0  0  0  0  0
  -11.8191    0.4733   -2.8260 N   0  0  0  0  0  0  0  0  0  0  0  0
  -11.1414    1.5137   -3.3649 C   0  0  0  0  0  0  0  0  0  0  0  0
   -9.9972    1.0616   -3.9096 N   0  0  1  0  0  0  0  0  0  0  0  0
  1  2  1  0  0  0  0
  3  1  1  1  0  0  0
  3  4  1  0  0  0  0
  3  5  1  0  0  0  0
  5  6  1  6  0  0  0
  5  7  1  0  0  0  0
  7  8  1  0  0  0  0
  8  4  1  6  0  0  0
  8 19  1  0  0  0  0
  9 15  1  0  0  0  0
  9 10  1  0  0  0  0
 10 11  1  6  0  0  0
 10 12  1  0  0  0  0
 13 12  1  6  0  0  0
 13 14  1  0  0  0  0
 13 19  1  0  0  0  0
 14 15  1  1  0  0  0
 14 17  1  0  0  0  0
 15 16  2  0  0  0  0
 17 18  1  0  0  0  0
 19 18  1  1  0  0  0
M  END
>  <CHROM.1>
177.99862588,70.77552898,-9.12429668,-0.25793426,-4.43934155,-0.48373648
-0.65106302,3.04841199

>  <Name>
ligand

>  <RI>
0

>  <Rbt.Current_Directory>
/home/itssahil/PROJECTS/Mol_Feturizer/New_Systems/rnas/3SKI

>  <Rbt.Executable>
rbdock ($Id: //depot/dev/client3/rdock/2013.1/src/exe/rbdock.cxx#4 $)

>  <Rbt.Library>
libRbt.so (2013.1, Build901 2013/11/27)

>  <Rbt.Parameter_File>
/export/apps/rDock/src/rDock_2013.1_src/data/scripts/dock_solv.prm

>  <Rbt.Receptor>
prm/blind_docking_100.prm

>  <SCORE>
-18.0812

>  <SCORE.INTER>
-14.6705

>  <SCORE.INTER.CONST>
1

>  <SCORE.INTER.POLAR>
0

>  <SCORE.INTER.ROT>
2

>  <SCORE.INTER.SOLV>
9.92711

>  <SCORE.INTER.VDW>
-18.0227

>  <SCORE.INTER.norm>
-0.772132

>  <SCORE.INTRA>
-3.41065

>  <SCORE.INTRA.DIHEDRAL>
-5.04214

>  <SCORE.INTRA.DIHEDRAL.0>
6.26853

>  <SCORE.INTRA.POLAR>
0

>  <SCORE.INTRA.POLAR.0>
0

>  <SCORE.INTRA.REPUL>
0

>  <SCORE.INTRA.REPUL.0>
0

>  <SCORE.INTRA.SOLV>
0.206589

>  <SCORE.INTRA.SOLV.lig_0>
-38.4926

>  <SCORE.INTRA.VDW>
-0.992876

>  <SCORE.INTRA.VDW.0>
-0.59057

>  <SCORE.INTRA.norm>
-0.179508

>  <SCORE.RESTR>
0

>  <SCORE.RESTR.CAVITY>
0

>  <SCORE.RESTR.norm>
0

>  <SCORE.SYSTEM>
0

>  <SCORE.SYSTEM.CONST>
0

>  <SCORE.SYSTEM.DIHEDRAL>
0

>  <SCORE.SYSTEM.SOLV>
0

>  <SCORE.SYSTEM.norm>
0

>  <SCORE.heavy>
19

>  <SCORE.norm>
-0.95164

>  <RMSD>
16.362

$$$$
ligand
 OpenBabel11021811483D
libRbt.so/2013.1/901 2013/11/27
 19 21  0  0  0  0  0  0  0  0999 V2000
   -7.8870   -0.1667   -7.2407 C   0  0  0  0  0  0  0  0  0  0  0  0
   -6.6255   -0.6458   -7.7298 O   0  0  0  0  0  0  0  0  0  0  0  0
   -7.6909    1.1113   -6.4221 C   0  0  1  0  0  0  0  0  0  0  0  0
   -8.9580    1.6271   -5.9712 O   0  0  0  0  0  0  0  0  0  0  0  0
   -6.8507    0.8444   -5.1857 C   0  0  1  0  0  0  0  0  0  0  0  0
   -5.5143    1.3340   -5.3529 O   0  0  0  0  0  0  0  0  0  0  0  0
   -7.5432    1.5705   -4.0529 C   0  0  0  0  0  0  0  0  0  0  0  0
   -8.9363    1.9075   -4.5639 C   0  0  2  0  0  0  0  0  0  0  0  0
  -10.3485   -2.9454   -3.1329 N   0  0  0  0  0  0  0  0  0  0  0  0
   -9.2508   -2.5243   -3.8170 C   0  0  1  0  0  0  0  0  0  0  0  0
   -8.3390   -3.4385   -4.2255 N   0  0  0  0  0  0  0  0  0  0  0  0
   -9.0505   -1.2091   -4.1037 N   0  0  0  0  0  0  0  0  0  0  0  0
   -9.9364   -0.2508   -3.7185 C   0  0  2  0  0  0  0  0  0  0  0  0
  -11.0718   -0.6204   -3.0203 C   0  0  1  0  0  0  0  0  0  0  0  0
  -11.2775   -2.0586   -2.7123 C   0  0  0  0  0  0  0  0  0  0  0  0
  -12.2860   -2.4418   -2.0782 O   0  0  0  0  0  0  0  0  0  0  0  0
  -11.7720    0.4961   -2.7550 N   0  0  0  0  0  0  0  0  0  0  0  0
  -11.0893    1.5388   -3.2832 C   0  0  0  0  0  0  0  0  0  0  0  0
   -9.9692    1.0813   -3.8719 N   0  0  1  0  0  0  0  0  0  0  0  0
  1  2  1  0  0  0  0
  3  1  1  1  0  0  0
  3  4  1  0  0  0  0
  3  5  1  0  0  0  0
  5  6  1  6  0  0  0
  5  7  1  0  0  0  0
  7  8  1  0  0  0  0
  8  4  1  6  0  0  0
  8 19  1  0  0  0  0
  9 15  1  0  0  0  0
  9 10  1  0  0  0  0
 10 11  1  6  0  0  0
 10 12  1  0  0  0  0
 13 12  1  6  0  0  0
 13 14  1  0  0  0  0
 13 19  1  0  0  0  0
 14 15  1  1  0  0  0
 14 17  1  0  0  0  0
 15 16  2  0  0  0  0
 17 18  1  0  0  0  0
 19 18  1  1  0  0  0
M  END
>  <CHROM.1>
177.77273541,68.61400541,-9.11704804,-0.24244513,-4.43810999,-0.45312822
-0.66535610,3.09967947

>  <Name>
ligand

>  <RI>
0

>  <Rbt.Current_Directory>
/home/itssahil/PROJECTS/Mol_Feturizer/New_Systems/rnas/3SKI

>  <Rbt.Executable>
rbdock ($Id: //depot/dev/client3/rdock/2013.1/src/exe/rbdock.cxx#4 $)

>  <Rbt.Library>
libRbt.so (2013.1, Build901 2013/11/27)

>  <Rbt.Parameter_File>
/export/apps/rDock/src/rDock_2013.1_src/data/scripts/dock_solv.prm

>  <Rbt.Receptor>
prm/blind_docking_40.prm

>  <SCORE>
-18.1514

>  <SCORE.INTER>
-14.7255

>  <SCORE.INTER.CONST>
1

>  <SCORE.INTER.POLAR>
0

>  <SCORE.INTER.ROT>
2

>  <SCORE.INTER.SOLV>
9.72425

>  <SCORE.INTER.VDW>
-17.9918

>  <SCORE.INTER.norm>
-0.775028

>  <SCORE.INTRA>
-3.42589

>  <SCORE.INTRA.DIHEDRAL>
-5.04063

>  <SCORE.INTRA.DIHEDRAL.0>
6.26853

>  <SCORE.INTRA.POLAR>
0

>  <SCORE.INTRA.POLAR.0>
0

>  <SCORE.INTRA.REPUL>
0

>  <SCORE.INTRA.REPUL.0>
0

>  <SCORE.INTRA.SOLV>
0.302429

>  <SCORE.INTRA.SOLV.lig_0>
-38.4926

>  <SCORE.INTRA.VDW>
-1.05679

>  <SCORE.INTRA.VDW.0>
-0.59057

>  <SCORE.INTRA.norm>
-0.18031

>  <SCORE.RESTR>
0

>  <SCORE.RESTR.CAVITY>
0

>  <SCORE.RESTR.norm>
0

>  <SCORE.SYSTEM>
0

>  <SCORE.SYSTEM.CONST>
0

>  <SCORE.SYSTEM.DIHEDRAL>
0

>  <SCORE.SYSTEM.SOLV>
0

>  <SCORE.SYSTEM.norm>
0

>  <SCORE.heavy>
19

>  <SCORE.norm>
-0.955338

>  <RMSD>
16.364

$$$$
ligand
 OpenBabel11021811483D
libRbt.so/2013.1/901 2013/11/27
 19 21  0  0  0  0  0  0  0  0999 V2000
   -7.8649   -0.1922   -7.2753 C   0  0  0  0  0  0  0  0  0  0  0  0
   -6.5948   -0.6430   -7.7691 O   0  0  0  0  0  0  0  0  0  0  0  0
   -7.6953    1.0941   -6.4637 C   0  0  1  0  0  0  0  0  0  0  0  0
   -8.9739    1.5917   -6.0247 O   0  0  0  0  0  0  0  0  0  0  0  0
   -6.8594    0.8489   -5.2200 C   0  0  1  0  0  0  0  0  0  0  0  0
   -5.5301    1.3594   -5.3814 O   0  0  0  0  0  0  0  0  0  0  0  0
   -7.5715    1.5707   -4.0966 C   0  0  0  0  0  0  0  0  0  0  0  0
   -8.9664    1.8815   -4.6192 C   0  0  2  0  0  0  0  0  0  0  0  0
  -10.2499   -2.9670   -3.0577 N   0  0  0  0  0  0  0  0  0  0  0  0
   -9.1472   -2.5303   -3.7238 C   0  0  1  0  0  0  0  0  0  0  0  0
   -8.1916   -3.4244   -4.0723 N   0  0  0  0  0  0  0  0  0  0  0  0
   -8.9847   -1.2194   -4.0513 N   0  0  0  0  0  0  0  0  0  0  0  0
   -9.9152   -0.2812   -3.7270 C   0  0  2  0  0  0  0  0  0  0  0  0
  -11.0578   -0.6673   -3.0498 C   0  0  1  0  0  0  0  0  0  0  0  0
  -11.2220   -2.1005   -2.6967 C   0  0  0  0  0  0  0  0  0  0  0  0
  -12.2353   -2.4978   -2.0792 O   0  0  0  0  0  0  0  0  0  0  0  0
  -11.8048    0.4316   -2.8453 N   0  0  0  0  0  0  0  0  0  0  0  0
  -11.1433    1.4794   -3.3901 C   0  0  0  0  0  0  0  0  0  0  0  0
   -9.9903    1.0427   -3.9288 N   0  0  1  0  0  0  0  0  0  0  0  0
  1  2  1  0  0  0  0
  3  1  1  1  0  0  0
  3  4  1  0  0  0  0
  3  5  1  0  0  0  0
  5  6  1  6  0  0  0
  5  7  1  0  0  0  0
  7  8  1  0  0  0  0
  8  4  1  6  0  0  0
  8 19  1  0  0  0  0
  9 15  1  0  0  0  0
  9 10  1  0  0  0  0
 10 11  1  6  0  0  0
 10 12  1  0  0  0  0
 13 12  1  6  0  0  0
 13 14  1  0  0  0  0
 13 19  1  0  0  0  0
 14 15  1  1  0  0  0
 14 17  1  0  0  0  0
 15 16  2  0  0  0  0
 17 18  1  0  0  0  0
 19 18  1  1  0  0  0
M  END
>  <CHROM.1>
176.93676303,71.00942207,-9.09620669,-0.26457870,-4.45083756,-0.50534472
-0.64958704,3.02788171

>  <Name>
ligand

>  <RI>
0

>  <Rbt.Current_Directory>
/home/itssahil/PROJECTS/Mol_Feturizer/New_Systems/rnas/3SKI

>  <Rbt.Executable>
rbdock ($Id: //depot/dev/client3/rdock/2013.1/src/exe/rbdock.cxx#4 $)

>  <Rbt.Library>
libRbt.so (2013.1, Build901 2013/11/27)

>  <Rbt.Parameter_File>
/export/apps/rDock/src/rDock_2013.1_src/data/scripts/dock_solv.prm

>  <Rbt.Receptor>
prm/blind_docking_40.prm

>  <SCORE>
-17.9879

>  <SCORE.INTER>
-14.5784

>  <SCORE.INTER.CONST>
1

>  <SCORE.INTER.POLAR>
0

>  <SCORE.INTER.ROT>
2

>  <SCORE.INTER.SOLV>
9.93153

>  <SCORE.INTER.VDW>
-17.9627

>  <SCORE.INTER.norm>
-0.767282

>  <SCORE.INTRA>
-3.40957

>  <SCORE.INTRA.DIHEDRAL>
-5.02294

>  <SCORE.INTRA.DIHEDRAL.0>
6.26853

>  <SCORE.INTRA.POLAR>
0

>  <SCORE.INTRA.POLAR.0>
0

>  <SCORE.INTRA.REPUL>
0

>  <SCORE.INTRA.REPUL.0>
0

>  <SCORE.INTRA.SOLV>
0.190634

>  <SCORE.INTRA.SOLV.lig_0>
-38.4926

>  <SCORE.INTRA.VDW>
-0.993413

>  <SCORE.INTRA.VDW.0>
-0.59057

>  <SCORE.INTRA.norm>
-0.179451

>  <SCORE.RESTR>
0

>  <SCORE.RESTR.CAVITY>
0

>  <SCORE.RESTR.norm>
0

>  <SCORE.SYSTEM>
0

>  <SCORE.SYSTEM.CONST>
0

>  <SCORE.SYSTEM.DIHEDRAL>
0

>  <SCORE.SYSTEM.SOLV>
0

>  <SCORE.SYSTEM.norm>
0

>  <SCORE.heavy>
19

>  <SCORE.norm>
-0.946733

>  <RMSD>
16.366

$$$$
ligand
 OpenBabel11021811483D
libRbt.so/2013.1/901 2013/11/27
 19 21  0  0  0  0  0  0  0  0999 V2000
   -7.9190   -0.1767   -7.2674 C   0  0  0  0  0  0  0  0  0  0  0  0
   -6.6708   -0.6313   -7.8110 O   0  0  0  0  0  0  0  0  0  0  0  0
   -7.7105    1.0979   -6.4467 C   0  0  1  0  0  0  0  0  0  0  0  0
   -8.9720    1.6204   -5.9878 O   0  0  0  0  0  0  0  0  0  0  0  0
   -6.8655    0.8225   -5.2155 C   0  0  1  0  0  0  0  0  0  0  0  0
   -5.5270    1.3042   -5.3886 O   0  0  0  0  0  0  0  0  0  0  0  0
   -7.5474    1.5500   -4.0772 C   0  0  0  0  0  0  0  0  0  0  0  0
   -8.9411    1.8971   -4.5799 C   0  0  2  0  0  0  0  0  0  0  0  0
  -10.3390   -2.9416   -3.0880 N   0  0  0  0  0  0  0  0  0  0  0  0
   -9.2377   -2.5247   -3.7689 C   0  0  1  0  0  0  0  0  0  0  0  0
   -8.3172   -3.4398   -4.1555 N   0  0  0  0  0  0  0  0  0  0  0  0
   -9.0421   -1.2129   -4.0736 N   0  0  0  0  0  0  0  0  0  0  0  0
   -9.9366   -0.2539   -3.7107 C   0  0  2  0  0  0  0  0  0  0  0  0
  -11.0760   -0.6194   -3.0169 C   0  0  1  0  0  0  0  0  0  0  0  0
  -11.2764   -2.0539   -2.6890 C   0  0  0  0  0  0  0  0  0  0  0  0
  -12.2884   -2.4332   -2.0579 O   0  0  0  0  0  0  0  0  0  0  0  0
  -11.7847    0.4971   -2.7746 N   0  0  0  0  0  0  0  0  0  0  0  0
  -11.1031    1.5355   -3.3126 C   0  0  0  0  0  0  0  0  0  0  0  0
   -9.9754    1.0755   -3.8845 N   0  0  1  0  0  0  0  0  0  0  0  0
  1  2  1  0  0  0  0
  3  1  1  1  0  0  0
  3  4  1  0  0  0  0
  3  5  1  0  0  0  0
  5  6  1  6  0  0  0
  5  7  1  0  0  0  0
  7  8  1  0  0  0  0
  8  4  1  6  0  0  0
  8 19  1  0  0  0  0
  9 15  1  0  0  0  0
  9 10  1  0  0  0  0
 10 11  1  6  0  0  0
 10 12  1  0  0  0  0
 13 12  1  6  0  0  0
 13 14  1  0  0  0  0
 13 19  1  0  0  0  0
 14 15  1  1  0  0  0
 14 17  1  0  0  0  0
 15 16  2  0  0  0  0
 17 18  1  0  0  0  0
 19 18  1  1  0  0  0
M  END
>  <CHROM.1>
175.36533796,70.07449819,-9.12458299,-0.24754893,-4.44279127,-0.46495570
-0.66899333,3.07529050

>  <Name>
ligand

>  <RI>
0

>  <Rbt.Current_Directory>
/home/itssahil/PROJECTS/Mol_Feturizer/New_Systems/rnas/3SKI

>  <Rbt.Executable>
rbdock ($Id: //depot/dev/client3/rdock/2013.1/src/exe/rbdock.cxx#4 $)

>  <Rbt.Library>
libRbt.so (2013.1, Build901 2013/11/27)

>  <Rbt.Parameter_File>
/export/apps/rDock/src/rDock_2013.1_src/data/scripts/dock_solv.prm

>  <Rbt.Receptor>
prm/blind_docking_40.prm

>  <SCORE>
-18.0877

>  <SCORE.INTER>
-14.6783

>  <SCORE.INTER.CONST>
1

>  <SCORE.INTER.POLAR>
0

>  <SCORE.INTER.ROT>
2

>  <SCORE.INTER.SOLV>
9.88772

>  <SCORE.INTER.VDW>
-18.0147

>  <SCORE.INTER.norm>
-0.77254

>  <SCORE.INTRA>
-3.40944

>  <SCORE.INTRA.DIHEDRAL>
-4.98085

>  <SCORE.INTRA.DIHEDRAL.0>
6.26853

>  <SCORE.INTRA.POLAR>
0

>  <SCORE.INTRA.POLAR.0>
0

>  <SCORE.INTRA.REPUL>
0

>  <SCORE.INTRA.REPUL.0>
0

>  <SCORE.INTRA.SOLV>
0.225158

>  <SCORE.INTRA.SOLV.lig_0>
-38.4926

>  <SCORE.INTRA.VDW>
-1.0316

>  <SCORE.INTRA.VDW.0>
-0.59057

>  <SCORE.INTRA.norm>
-0.179444

>  <SCORE.RESTR>
0

>  <SCORE.RESTR.CAVITY>
0

>  <SCORE.RESTR.norm>
0

>  <SCORE.SYSTEM>
0

>  <SCORE.SYSTEM.CONST>
0

>  <SCORE.SYSTEM.DIHEDRAL>
0

>  <SCORE.SYSTEM.SOLV>
0

>  <SCORE.SYSTEM.norm>
0

>  <SCORE.heavy>
19

>  <SCORE.norm>
-0.951985

>  <RMSD>
16.367

$$$$
ligand
 OpenBabel11021811483D
libRbt.so/2013.1/901 2013/11/27
 19 21  0  0  0  0  0  0  0  0999 V2000
  -12.1114    0.3211   -2.9941 C   0  0  0  0  0  0  0  0  0  0  0  0
  -12.0756   -1.0444   -3.4349 O   0  0  0  0  0  0  0  0  0  0  0  0
  -10.8512    1.0611   -3.4479 C   0  0  1  0  0  0  0  0  0  0  0  0
   -9.6675    0.3464   -3.0441 O   0  0  0  0  0  0  0  0  0  0  0  0
  -10.8054    1.1846   -4.9607 C   0  0  1  0  0  0  0  0  0  0  0  0
  -11.1409    2.5127   -5.3816 O   0  0  0  0  0  0  0  0  0  0  0  0
   -9.3852    0.8456   -5.3585 C   0  0  0  0  0  0  0  0  0  0  0  0
   -8.7609    0.1751   -4.1434 C   0  0  2  0  0  0  0  0  0  0  0  0
   -6.0801   -3.3873   -6.9211 N   0  0  0  0  0  0  0  0  0  0  0  0
   -6.0208   -2.0289   -6.9599 C   0  0  1  0  0  0  0  0  0  0  0  0
   -5.1642   -1.4317   -7.8222 N   0  0  0  0  0  0  0  0  0  0  0  0
   -6.8039   -1.2579   -6.1571 N   0  0  0  0  0  0  0  0  0  0  0  0
   -7.6825   -1.8071   -5.2752 C   0  0  2  0  0  0  0  0  0  0  0  0
   -7.7865   -3.1839   -5.1925 C   0  0  1  0  0  0  0  0  0  0  0  0
   -6.9249   -4.0138   -6.0727 C   0  0  0  0  0  0  0  0  0  0  0  0
   -6.9784   -5.2633   -6.0306 O   0  0  0  0  0  0  0  0  0  0  0  0
   -8.7069   -3.4703   -4.2554 N   0  0  0  0  0  0  0  0  0  0  0  0
   -9.1709   -2.2953   -3.7694 C   0  0  0  0  0  0  0  0  0  0  0  0
   -8.5453   -1.2807   -4.3935 N   0  0  1  0  0  0  0  0  0  0  0  0
  1  2  1  0  0  0  0
  3  1  1  6  0  0  0
  3  4  1  0  0  0  0
  3  5  1  0  0  0  0
  5  6  1  1  0  0  0
  5  7  1  0  0  0  0
  7  8  1  0  0  0  0
  8  4  1  1  0  0  0
  8 19  1  0  0  0  0
  9 15  1  0  0  0  0
  9 10  1  0  0  0  0
 10 11  1  6  0  0  0
 10 12  1  0  0  0  0
 13 12  1  6  0  0  0
 13 14  1  0  0  0  0
 13 19  1  0  0  0  0
 14 15  1  1  0  0  0
 14 17  1  0  0  0  0
 15 16  2  0  0  0  0
 17 18  1  0  0  0  0
 19 18  1  1  0  0  0
M  END
>  <CHROM.1>
-52.83436786,-174.57897543,-8.73361427,-1.22150811,-5.00866135,2.63562948
0.65855312,-0.28612588

>  <Name>
ligand

>  <RI>
0

>  <Rbt.Current_Directory>
/home/itssahil/PROJECTS/Mol_Feturizer/New_Systems/rnas/3SKI

>  <Rbt.Executable>
rbdock ($Id: //depot/dev/client3/rdock/2013.1/src/exe/rbdock.cxx#4 $)

>  <Rbt.Library>
libRbt.so (2013.1, Build901 2013/11/27)

>  <Rbt.Parameter_File>
/export/apps/rDock/src/rDock_2013.1_src/data/scripts/dock_solv.prm

>  <Rbt.Receptor>
prm/blind_docking_20.prm

>  <SCORE>
-15.8312

>  <SCORE.INTER>
-12.893

>  <SCORE.INTER.CONST>
1

>  <SCORE.INTER.POLAR>
0

>  <SCORE.INTER.ROT>
2

>  <SCORE.INTER.SOLV>
7.95092

>  <SCORE.INTER.VDW>
-16.179

>  <SCORE.INTER.norm>
-0.67858

>  <SCORE.INTRA>
-2.93819

>  <SCORE.INTRA.DIHEDRAL>
-4.87473

>  <SCORE.INTRA.DIHEDRAL.0>
6.26853

>  <SCORE.INTRA.POLAR>
0

>  <SCORE.INTRA.POLAR.0>
0

>  <SCORE.INTRA.REPUL>
0

>  <SCORE.INTRA.REPUL.0>
0

>  <SCORE.INTRA.SOLV>
0.262853

>  <SCORE.INTRA.SOLV.lig_0>
-38.4926

>  <SCORE.INTRA.VDW>
-0.632251

>  <SCORE.INTRA.VDW.0>
-0.59057

>  <SCORE.INTRA.norm>
-0.154642

>  <SCORE.RESTR>
0

>  <SCORE.RESTR.CAVITY>
0

>  <SCORE.RESTR.norm>
0

>  <SCORE.SYSTEM>
0

>  <SCORE.SYSTEM.CONST>
0

>  <SCORE.SYSTEM.DIHEDRAL>
0

>  <SCORE.SYSTEM.SOLV>
0

>  <SCORE.SYSTEM.norm>
0

>  <SCORE.heavy>
19

>  <SCORE.norm>
-0.833222

>  <RMSD>
16.371

$$$$
ligand
 OpenBabel11021811483D
libRbt.so/2013.1/901 2013/11/27
 19 21  0  0  0  0  0  0  0  0999 V2000
   -7.8801   -0.1546   -7.2345 C   0  0  0  0  0  0  0  0  0  0  0  0
   -6.6198   -0.6384   -7.7222 O   0  0  0  0  0  0  0  0  0  0  0  0
   -7.6806    1.1246   -6.4186 C   0  0  1  0  0  0  0  0  0  0  0  0
   -8.9456    1.6388   -5.9599 O   0  0  0  0  0  0  0  0  0  0  0  0
   -6.8318    0.8604   -5.1875 C   0  0  1  0  0  0  0  0  0  0  0  0
   -5.4974    1.3519   -5.3642 O   0  0  0  0  0  0  0  0  0  0  0  0
   -7.5180    1.5866   -4.0510 C   0  0  0  0  0  0  0  0  0  0  0  0
   -8.9150    1.9208   -4.5531 C   0  0  2  0  0  0  0  0  0  0  0  0
  -10.3582   -2.9425   -3.1899 N   0  0  0  0  0  0  0  0  0  0  0  0
   -9.2719   -2.5214   -3.8919 C   0  0  1  0  0  0  0  0  0  0  0  0
   -8.3828   -3.4386   -4.3418 N   0  0  0  0  0  0  0  0  0  0  0  0
   -9.0606   -1.2032   -4.1557 N   0  0  0  0  0  0  0  0  0  0  0  0
   -9.9236   -0.2417   -3.7288 C   0  0  2  0  0  0  0  0  0  0  0  0
  -11.0466   -0.6111   -3.0108 C   0  0  1  0  0  0  0  0  0  0  0  0
  -11.2644   -2.0528   -2.7281 C   0  0  0  0  0  0  0  0  0  0  0  0
  -12.2623   -2.4360   -2.0774 O   0  0  0  0  0  0  0  0  0  0  0  0
  -11.7248    0.5086   -2.7049 N   0  0  0  0  0  0  0  0  0  0  0  0
  -11.0410    1.5532   -3.2278 C   0  0  0  0  0  0  0  0  0  0  0  0
   -9.9420    1.0937   -3.8534 N   0  0  1  0  0  0  0  0  0  0  0  0
  1  2  1  0  0  0  0
  3  1  1  1  0  0  0
  3  4  1  0  0  0  0
  3  5  1  0  0  0  0
  5  6  1  6  0  0  0
  5  7  1  0  0  0  0
  7  8  1  0  0  0  0
  8  4  1  6  0  0  0
  8 19  1  0  0  0  0
  9 15  1  0  0  0  0
  9 10  1  0  0  0  0
 10 11  1  6  0  0  0
 10 12  1  0  0  0  0
 13 12  1  6  0  0  0
 13 14  1  0  0  0  0
 13 19  1  0  0  0  0
 14 15  1  1  0  0  0
 14 17  1  0  0  0  0
 15 16  2  0  0  0  0
 17 18  1  0  0  0  0
 19 18  1  1  0  0  0
M  END
>  <CHROM.1>
178.24934708,66.76568575,-9.10505010,-0.23246810,-4.44659688,-0.43043853
-0.67665242,3.13806441

>  <Name>
ligand

>  <RI>
0

>  <Rbt.Current_Directory>
/home/itssahil/PROJECTS/Mol_Feturizer/New_Systems/rnas/3SKI

>  <Rbt.Executable>
rbdock ($Id: //depot/dev/client3/rdock/2013.1/src/exe/rbdock.cxx#4 $)

>  <Rbt.Library>
libRbt.so (2013.1, Build901 2013/11/27)

>  <Rbt.Parameter_File>
/export/apps/rDock/src/rDock_2013.1_src/data/scripts/dock_solv.prm

>  <Rbt.Receptor>
prm/blind_docking_20.prm

>  <SCORE>
-18.139

>  <SCORE.INTER>
-14.7057

>  <SCORE.INTER.CONST>
1

>  <SCORE.INTER.POLAR>
0

>  <SCORE.INTER.ROT>
2

>  <SCORE.INTER.SOLV>
9.51301

>  <SCORE.INTER.VDW>
-17.9081

>  <SCORE.INTER.norm>
-0.773985

>  <SCORE.INTRA>
-3.43333

>  <SCORE.INTRA.DIHEDRAL>
-5.04897

>  <SCORE.INTRA.DIHEDRAL.0>
6.26853

>  <SCORE.INTRA.POLAR>
0

>  <SCORE.INTRA.POLAR.0>
0

>  <SCORE.INTRA.REPUL>
0

>  <SCORE.INTRA.REPUL.0>
0

>  <SCORE.INTRA.SOLV>
0.385291

>  <SCORE.INTRA.SOLV.lig_0>
-38.4926

>  <SCORE.INTRA.VDW>
-1.10149

>  <SCORE.INTRA.VDW.0>
-0.59057

>  <SCORE.INTRA.norm>
-0.180702

>  <SCORE.RESTR>
0

>  <SCORE.RESTR.CAVITY>
0

>  <SCORE.RESTR.norm>
0

>  <SCORE.SYSTEM>
0

>  <SCORE.SYSTEM.CONST>
0

>  <SCORE.SYSTEM.DIHEDRAL>
0

>  <SCORE.SYSTEM.SOLV>
0

>  <SCORE.SYSTEM.norm>
0

>  <SCORE.heavy>
19

>  <SCORE.norm>
-0.954686

>  <RMSD>
16.371

$$$$
ligand
 OpenBabel11021811483D
libRbt.so/2013.1/901 2013/11/27
 19 21  0  0  0  0  0  0  0  0999 V2000
   -7.3588   -0.3181   -6.9258 C   0  0  0  0  0  0  0  0  0  0  0  0
   -7.9708   -0.2703   -8.2233 O   0  0  0  0  0  0  0  0  0  0  0  0
   -7.4046    1.0607   -6.2636 C   0  0  1  0  0  0  0  0  0  0  0  0
   -8.7650    1.4548   -6.0007 O   0  0  0  0  0  0  0  0  0  0  0  0
   -6.6759    1.0512   -4.9313 C   0  0  1  0  0  0  0  0  0  0  0  0
   -5.3970    1.6889   -5.0368 O   0  0  0  0  0  0  0  0  0  0  0  0
   -7.5671    1.8066   -3.9695 C   0  0  0  0  0  0  0  0  0  0  0  0
   -8.9276    1.8968   -4.6451 C   0  0  2  0  0  0  0  0  0  0  0  0
  -10.1218   -3.0081   -3.1927 N   0  0  0  0  0  0  0  0  0  0  0  0
   -9.0432   -2.5412   -3.8775 C   0  0  1  0  0  0  0  0  0  0  0  0
   -8.0906   -3.4153   -4.2805 N   0  0  0  0  0  0  0  0  0  0  0  0
   -8.9019   -1.2197   -4.1701 N   0  0  0  0  0  0  0  0  0  0  0  0
   -9.8306   -0.3004   -3.7906 C   0  0  2  0  0  0  0  0  0  0  0  0
  -10.9492   -0.7175   -3.0921 C   0  0  1  0  0  0  0  0  0  0  0  0
  -11.0903   -2.1621   -2.7774 C   0  0  0  0  0  0  0  0  0  0  0  0
  -12.0814   -2.5873   -2.1427 O   0  0  0  0  0  0  0  0  0  0  0  0
  -11.6993    0.3676   -2.8329 N   0  0  0  0  0  0  0  0  0  0  0  0
  -11.0635    1.4374   -3.3652 C   0  0  0  0  0  0  0  0  0  0  0  0
   -9.9232    1.0281   -3.9504 N   0  0  1  0  0  0  0  0  0  0  0  0
  1  2  1  0  0  0  0
  3  1  1  1  0  0  0
  3  4  1  0  0  0  0
  3  5  1  0  0  0  0
  5  6  1  6  0  0  0
  5  7  1  0  0  0  0
  7  8  1  0  0  0  0
  8  4  1  6  0  0  0
  8 19  1  0  0  0  0
  9 15  1  0  0  0  0
  9 10  1  0  0  0  0
 10 11  1  6  0  0  0
 10 12  1  0  0  0  0
 13 12  1  6  0  0  0
 13 14  1  0  0  0  0
 13 19  1  0  0  0  0
 14 15  1  1  0  0  0
 14 17  1  0  0  0  0
 15 16  2  0  0  0  0
 17 18  1  0  0  0  0
 19 18  1  1  0  0  0
M  END
>  <CHROM.1>
65.03463480,58.65150756,-9.04776762,-0.23474529,-4.45108702,-0.50734724,-0.69013624
-3.11494223

>  <Name>
ligand

>  <RI>
0

>  <Rbt.Current_Directory>
/home/itssahil/PROJECTS/Mol_Feturizer/New_Systems/rnas/3SKI

>  <Rbt.Executable>
rbdock ($Id: //depot/dev/client3/rdock/2013.1/src/exe/rbdock.cxx#4 $)

>  <Rbt.Library>
libRbt.so (2013.1, Build901 2013/11/27)

>  <Rbt.Parameter_File>
/export/apps/rDock/src/rDock_2013.1_src/data/scripts/dock_solv.prm

>  <Rbt.Receptor>
prm/blind_docking_40.prm

>  <SCORE>
-17.5521

>  <SCORE.INTER>
-14.0251

>  <SCORE.INTER.CONST>
1

>  <SCORE.INTER.POLAR>
0

>  <SCORE.INTER.ROT>
2

>  <SCORE.INTER.SOLV>
10.1124

>  <SCORE.INTER.VDW>
-17.6542

>  <SCORE.INTER.norm>
-0.738164

>  <SCORE.INTRA>
-3.52696

>  <SCORE.INTRA.DIHEDRAL>
-4.97434

>  <SCORE.INTRA.DIHEDRAL.0>
6.26853

>  <SCORE.INTRA.POLAR>
0

>  <SCORE.INTRA.POLAR.0>
0

>  <SCORE.INTRA.REPUL>
0

>  <SCORE.INTRA.REPUL.0>
0

>  <SCORE.INTRA.SOLV>
0.471773

>  <SCORE.INTRA.SOLV.lig_0>
-38.4926

>  <SCORE.INTRA.VDW>
-1.27567

>  <SCORE.INTRA.VDW.0>
-0.59057

>  <SCORE.INTRA.norm>
-0.18563

>  <SCORE.RESTR>
0

>  <SCORE.RESTR.CAVITY>
0

>  <SCORE.RESTR.norm>
0

>  <SCORE.SYSTEM>
0

>  <SCORE.SYSTEM.CONST>
0

>  <SCORE.SYSTEM.DIHEDRAL>
0

>  <SCORE.SYSTEM.SOLV>
0

>  <SCORE.SYSTEM.norm>
0

>  <SCORE.heavy>
19

>  <SCORE.norm>
-0.923793

>  <RMSD>
16.371

$$$$
ligand
 OpenBabel11021811483D
libRbt.so/2013.1/901 2013/11/27
 19 21  0  0  0  0  0  0  0  0999 V2000
   -7.4526   -0.3161   -6.8757 C   0  0  0  0  0  0  0  0  0  0  0  0
   -8.0252   -0.2597   -8.1907 O   0  0  0  0  0  0  0  0  0  0  0  0
   -7.4741    1.0688   -6.2250 C   0  0  1  0  0  0  0  0  0  0  0  0
   -8.8269    1.4850   -5.9573 O   0  0  0  0  0  0  0  0  0  0  0  0
   -6.7375    1.0598   -4.8971 C   0  0  1  0  0  0  0  0  0  0  0  0
   -5.4500    1.6777   -5.0158 O   0  0  0  0  0  0  0  0  0  0  0  0
   -7.6115    1.8363   -3.9364 C   0  0  0  0  0  0  0  0  0  0  0  0
   -8.9747    1.9408   -4.6045 C   0  0  2  0  0  0  0  0  0  0  0  0
  -10.2976   -2.9494   -3.2155 N   0  0  0  0  0  0  0  0  0  0  0  0
   -9.2248   -2.5060   -3.9246 C   0  0  1  0  0  0  0  0  0  0  0  0
   -8.3170   -3.4040   -4.3755 N   0  0  0  0  0  0  0  0  0  0  0  0
   -9.0456   -1.1842   -4.1945 N   0  0  0  0  0  0  0  0  0  0  0  0
   -9.9286   -0.2414   -3.7669 C   0  0  2  0  0  0  0  0  0  0  0  0
  -11.0391   -0.6340   -3.0418 C   0  0  1  0  0  0  0  0  0  0  0  0
  -11.2219   -2.0791   -2.7524 C   0  0  0  0  0  0  0  0  0  0  0  0
  -12.2074   -2.4829   -2.0953 O   0  0  0  0  0  0  0  0  0  0  0  0
  -11.7416    0.4709   -2.7368 N   0  0  0  0  0  0  0  0  0  0  0  0
  -11.0849    1.5290   -3.2671 C   0  0  0  0  0  0  0  0  0  0  0  0
   -9.9786    1.0927   -3.8964 N   0  0  1  0  0  0  0  0  0  0  0  0
  1  2  1  0  0  0  0
  3  1  1  1  0  0  0
  3  4  1  0  0  0  0
  3  5  1  0  0  0  0
  5  6  1  6  0  0  0
  5  7  1  0  0  0  0
  7  8  1  0  0  0  0
  8  4  1  6  0  0  0
  8 19  1  0  0  0  0
  9 15  1  0  0  0  0
  9 10  1  0  0  0  0
 10 11  1  6  0  0  0
 10 12  1  0  0  0  0
 13 12  1  6  0  0  0
 13 14  1  0  0  0  0
 13 19  1  0  0  0  0
 14 15  1  1  0  0  0
 14 17  1  0  0  0  0
 15 16  2  0  0  0  0
 17 18  1  0  0  0  0
 19 18  1  1  0  0  0
M  END
>  <CHROM.1>
67.25938347,56.12549555,-9.14070336,-0.19093594,-4.42479469,-0.44678566,-0.70635953
-3.04535661

>  <Name>
ligand

>  <RI>
0

>  <Rbt.Current_Directory>
/home/itssahil/PROJECTS/Mol_Feturizer/New_Systems/rnas/3SKI

>  <Rbt.Executable>
rbdock ($Id: //depot/dev/client3/rdock/2013.1/src/exe/rbdock.cxx#4 $)

>  <Rbt.Library>
libRbt.so (2013.1, Build901 2013/11/27)

>  <Rbt.Parameter_File>
/export/apps/rDock/src/rDock_2013.1_src/data/scripts/dock_solv.prm

>  <Rbt.Receptor>
prm/blind_docking_60.prm

>  <SCORE>
-17.6057

>  <SCORE.INTER>
-14.1352

>  <SCORE.INTER.CONST>
1

>  <SCORE.INTER.POLAR>
0

>  <SCORE.INTER.ROT>
2

>  <SCORE.INTER.SOLV>
10.0156

>  <SCORE.INTER.VDW>
-17.6953

>  <SCORE.INTER.norm>
-0.743957

>  <SCORE.INTRA>
-3.47049

>  <SCORE.INTRA.DIHEDRAL>
-4.87891

>  <SCORE.INTRA.DIHEDRAL.0>
6.26853

>  <SCORE.INTRA.POLAR>
0

>  <SCORE.INTRA.POLAR.0>
0

>  <SCORE.INTRA.REPUL>
0

>  <SCORE.INTRA.REPUL.0>
0

>  <SCORE.INTRA.SOLV>
0.551634

>  <SCORE.INTRA.SOLV.lig_0>
-38.4926

>  <SCORE.INTRA.VDW>
-1.30685

>  <SCORE.INTRA.VDW.0>
-0.59057

>  <SCORE.INTRA.norm>
-0.182657

>  <SCORE.RESTR>
0

>  <SCORE.RESTR.CAVITY>
0

>  <SCORE.RESTR.norm>
0

>  <SCORE.SYSTEM>
0

>  <SCORE.SYSTEM.CONST>
0

>  <SCORE.SYSTEM.DIHEDRAL>
0

>  <SCORE.SYSTEM.SOLV>
0

>  <SCORE.SYSTEM.norm>
0

>  <SCORE.heavy>
19

>  <SCORE.norm>
-0.926615

>  <RMSD>
16.373

$$$$
ligand
 OpenBabel11021811483D
libRbt.so/2013.1/901 2013/11/27
 19 21  0  0  0  0  0  0  0  0999 V2000
   -6.6256    2.3976   -4.5813 C   0  0  0  0  0  0  0  0  0  0  0  0
   -5.5144    2.3838   -3.6729 O   0  0  0  0  0  0  0  0  0  0  0  0
   -6.3313    1.5160   -5.7971 C   0  0  1  0  0  0  0  0  0  0  0  0
   -6.1279    0.1473   -5.3966 O   0  0  0  0  0  0  0  0  0  0  0  0
   -7.4932    1.5284   -6.7747 C   0  0  1  0  0  0  0  0  0  0  0  0
   -7.2012    2.3462   -7.9147 O   0  0  0  0  0  0  0  0  0  0  0  0
   -7.6944    0.0882   -7.1932 C   0  0  0  0  0  0  0  0  0  0  0  0
   -6.9238   -0.7505   -6.1840 C   0  0  2  0  0  0  0  0  0  0  0  0
  -11.0363   -0.3899   -2.9359 N   0  0  0  0  0  0  0  0  0  0  0  0
  -10.3847    0.5840   -3.6267 C   0  0  1  0  0  0  0  0  0  0  0  0
  -10.8021    1.8668   -3.5082 N   0  0  0  0  0  0  0  0  0  0  0  0
   -9.3227    0.3001   -4.4290 N   0  0  0  0  0  0  0  0  0  0  0  0
   -8.8619   -0.9711   -4.5813 C   0  0  2  0  0  0  0  0  0  0  0  0
   -9.4851   -2.0026   -3.9024 C   0  0  1  0  0  0  0  0  0  0  0  0
  -10.6440   -1.6795   -3.0317 C   0  0  0  0  0  0  0  0  0  0  0  0
  -11.2444   -2.5787   -2.4016 O   0  0  0  0  0  0  0  0  0  0  0  0
   -8.8531   -3.1452   -4.2223 N   0  0  0  0  0  0  0  0  0  0  0  0
   -7.8527   -2.8302   -5.0780 C   0  0  0  0  0  0  0  0  0  0  0  0
   -7.8587   -1.5024   -5.2957 N   0  0  1  0  0  0  0  0  0  0  0  0
  1  2  1  0  0  0  0
  3  1  1  1  0  0  0
  3  4  1  0  0  0  0
  3  5  1  0  0  0  0
  5  6  1  6  0  0  0
  5  7  1  0  0  0  0
  7  8  1  0  0  0  0
  8  4  1  1  0  0  0
  8 19  1  0  0  0  0
  9 15  1  0  0  0  0
  9 10  1  0  0  0  0
 10 11  1  1  0  0  0
 10 12  1  0  0  0  0
 13 12  1  1  0  0  0
 13 14  1  0  0  0  0
 13 19  1  0  0  0  0
 14 15  1  6  0  0  0
 14 17  1  0  0  0  0
 15 16  2  0  0  0  0
 17 18  1  0  0  0  0
 19 18  1  6  0  0  0
M  END
>  <CHROM.1>
61.55493889,65.04902671,-8.38515198,-0.08256727,-4.77792199,0.53658390,0.69176887
0.12091240

>  <Name>
ligand

>  <RI>
0

>  <Rbt.Current_Directory>
/home/itssahil/PROJECTS/Mol_Feturizer/New_Systems/rnas/3SKI

>  <Rbt.Executable>
rbdock ($Id: //depot/dev/client3/rdock/2013.1/src/exe/rbdock.cxx#4 $)

>  <Rbt.Library>
libRbt.so (2013.1, Build901 2013/11/27)

>  <Rbt.Parameter_File>
/export/apps/rDock/src/rDock_2013.1_src/data/scripts/dock_solv.prm

>  <Rbt.Receptor>
prm/blind_docking_80.prm

>  <SCORE>
-15.8571

>  <SCORE.INTER>
-12.2623

>  <SCORE.INTER.CONST>
1

>  <SCORE.INTER.POLAR>
0

>  <SCORE.INTER.ROT>
2

>  <SCORE.INTER.SOLV>
10.5216

>  <SCORE.INTER.VDW>
-16.6154

>  <SCORE.INTER.norm>
-0.645384

>  <SCORE.INTRA>
-3.59476

>  <SCORE.INTRA.DIHEDRAL>
-5.05173

>  <SCORE.INTRA.DIHEDRAL.0>
6.26853

>  <SCORE.INTRA.POLAR>
0

>  <SCORE.INTRA.POLAR.0>
0

>  <SCORE.INTRA.REPUL>
0

>  <SCORE.INTRA.REPUL.0>
0

>  <SCORE.INTRA.SOLV>
0.234791

>  <SCORE.INTRA.SOLV.lig_0>
-38.4926

>  <SCORE.INTRA.VDW>
-1.18629

>  <SCORE.INTRA.VDW.0>
-0.59057

>  <SCORE.INTRA.norm>
-0.189198

>  <SCORE.RESTR>
0

>  <SCORE.RESTR.CAVITY>
0

>  <SCORE.RESTR.norm>
0

>  <SCORE.SYSTEM>
0

>  <SCORE.SYSTEM.CONST>
0

>  <SCORE.SYSTEM.DIHEDRAL>
0

>  <SCORE.SYSTEM.SOLV>
0

>  <SCORE.SYSTEM.norm>
0

>  <SCORE.heavy>
19

>  <SCORE.norm>
-0.834582

>  <RMSD>
16.374

$$$$
ligand
 OpenBabel11021811483D
libRbt.so/2013.1/901 2013/11/27
 19 21  0  0  0  0  0  0  0  0999 V2000
   -7.4062   -0.3014   -6.8960 C   0  0  0  0  0  0  0  0  0  0  0  0
   -8.0197   -0.2535   -8.1927 O   0  0  0  0  0  0  0  0  0  0  0  0
   -7.4431    1.0795   -6.2374 C   0  0  1  0  0  0  0  0  0  0  0  0
   -8.8007    1.4817   -5.9730 O   0  0  0  0  0  0  0  0  0  0  0  0
   -6.7118    1.0696   -4.9066 C   0  0  1  0  0  0  0  0  0  0  0  0
   -5.4296    1.6999   -5.0163 O   0  0  0  0  0  0  0  0  0  0  0  0
   -7.5969    1.8325   -3.9450 C   0  0  0  0  0  0  0  0  0  0  0  0
   -8.9582    1.9283   -4.6182 C   0  0  2  0  0  0  0  0  0  0  0  0
  -10.2173   -2.9764   -3.2212 N   0  0  0  0  0  0  0  0  0  0  0  0
   -9.1427   -2.5185   -3.9182 C   0  0  1  0  0  0  0  0  0  0  0  0
   -8.2138   -3.4033   -4.3521 N   0  0  0  0  0  0  0  0  0  0  0  0
   -8.9821   -1.1953   -4.1926 N   0  0  0  0  0  0  0  0  0  0  0  0
   -9.8865   -0.2653   -3.7819 C   0  0  2  0  0  0  0  0  0  0  0  0
  -11.0000   -0.6730   -3.0697 C   0  0  1  0  0  0  0  0  0  0  0  0
  -11.1623   -2.1195   -2.7752 C   0  0  0  0  0  0  0  0  0  0  0  0
  -12.1496   -2.5366   -2.1292 O   0  0  0  0  0  0  0  0  0  0  0  0
  -11.7250    0.4214   -2.7800 N   0  0  0  0  0  0  0  0  0  0  0  0
  -11.0791    1.4878   -3.3070 C   0  0  0  0  0  0  0  0  0  0  0  0
   -9.9572    1.0670   -3.9192 N   0  0  1  0  0  0  0  0  0  0  0  0
  1  2  1  0  0  0  0
  3  1  1  1  0  0  0
  3  4  1  0  0  0  0
  3  5  1  0  0  0  0
  5  6  1  6  0  0  0
  5  7  1  0  0  0  0
  7  8  1  0  0  0  0
  8  4  1  6  0  0  0
  8 19  1  0  0  0  0
  9 15  1  0  0  0  0
  9 10  1  0  0  0  0
 10 11  1  6  0  0  0
 10 12  1  0  0  0  0
 13 12  1  6  0  0  0
 13 14  1  0  0  0  0
 13 19  1  0  0  0  0
 14 15  1  1  0  0  0
 14 17  1  0  0  0  0
 15 16  2  0  0  0  0
 17 18  1  0  0  0  0
 19 18  1  1  0  0  0
M  END
>  <CHROM.1>
65.07314582,57.06055290,-9.10124008,-0.20495660,-4.43837512,-0.47546396,-0.69884525
-3.07149280

>  <Name>
ligand

>  <RI>
0

>  <Rbt.Current_Directory>
/home/itssahil/PROJECTS/Mol_Feturizer/New_Systems/rnas/3SKI

>  <Rbt.Executable>
rbdock ($Id: //depot/dev/client3/rdock/2013.1/src/exe/rbdock.cxx#4 $)

>  <Rbt.Library>
libRbt.so (2013.1, Build901 2013/11/27)

>  <Rbt.Parameter_File>
/export/apps/rDock/src/rDock_2013.1_src/data/scripts/dock_solv.prm

>  <Rbt.Receptor>
prm/blind_docking_80.prm

>  <SCORE>
-17.5485

>  <SCORE.INTER>
-14.0287

>  <SCORE.INTER.CONST>
1

>  <SCORE.INTER.POLAR>
0

>  <SCORE.INTER.ROT>
2

>  <SCORE.INTER.SOLV>
10.0139

>  <SCORE.INTER.VDW>
-17.6238

>  <SCORE.INTER.norm>
-0.738353

>  <SCORE.INTRA>
-3.51983

>  <SCORE.INTRA.DIHEDRAL>
-4.97448

>  <SCORE.INTRA.DIHEDRAL.0>
6.26853

>  <SCORE.INTRA.POLAR>
0

>  <SCORE.INTRA.POLAR.0>
0

>  <SCORE.INTRA.REPUL>
0

>  <SCORE.INTRA.REPUL.0>
0

>  <SCORE.INTRA.SOLV>
0.527794

>  <SCORE.INTRA.SOLV.lig_0>
-38.4926

>  <SCORE.INTRA.VDW>
-1.29649

>  <SCORE.INTRA.VDW.0>
-0.59057

>  <SCORE.INTRA.norm>
-0.185254

>  <SCORE.RESTR>
0

>  <SCORE.RESTR.CAVITY>
0

>  <SCORE.RESTR.norm>
0

>  <SCORE.SYSTEM>
0

>  <SCORE.SYSTEM.CONST>
0

>  <SCORE.SYSTEM.DIHEDRAL>
0

>  <SCORE.SYSTEM.SOLV>
0

>  <SCORE.SYSTEM.norm>
0

>  <SCORE.heavy>
19

>  <SCORE.norm>
-0.923607

>  <RMSD>
16.376

$$$$
ligand
 OpenBabel11021811483D
libRbt.so/2013.1/901 2013/11/27
 19 21  0  0  0  0  0  0  0  0999 V2000
   -7.9201   -0.1257   -7.2626 C   0  0  0  0  0  0  0  0  0  0  0  0
   -6.6739   -0.5964   -7.7970 O   0  0  0  0  0  0  0  0  0  0  0  0
   -7.6994    1.1393   -6.4301 C   0  0  1  0  0  0  0  0  0  0  0  0
   -8.9546    1.6607   -5.9531 O   0  0  0  0  0  0  0  0  0  0  0  0
   -6.8433    0.8477   -5.2102 C   0  0  1  0  0  0  0  0  0  0  0  0
   -5.5049    1.3270   -5.3912 O   0  0  0  0  0  0  0  0  0  0  0  0
   -7.5117    1.5649   -4.0575 C   0  0  0  0  0  0  0  0  0  0  0  0
   -8.9090    1.9219   -4.5427 C   0  0  2  0  0  0  0  0  0  0  0  0
  -10.3580   -2.9387   -3.1760 N   0  0  0  0  0  0  0  0  0  0  0  0
   -9.2683   -2.5190   -3.8735 C   0  0  1  0  0  0  0  0  0  0  0  0
   -8.3769   -3.4369   -4.3169 N   0  0  0  0  0  0  0  0  0  0  0  0
   -9.0560   -1.2012   -4.1391 N   0  0  0  0  0  0  0  0  0  0  0  0
   -9.9213   -0.2390   -3.7187 C   0  0  2  0  0  0  0  0  0  0  0  0
  -11.0478   -0.6071   -3.0054 C   0  0  1  0  0  0  0  0  0  0  0  0
  -11.2667   -2.0481   -2.7206 C   0  0  0  0  0  0  0  0  0  0  0  0
  -12.2677   -2.4302   -2.0740 O   0  0  0  0  0  0  0  0  0  0  0  0
  -11.7277    0.5132   -2.7054 N   0  0  0  0  0  0  0  0  0  0  0  0
  -11.0415    1.5568   -3.2272 C   0  0  0  0  0  0  0  0  0  0  0  0
   -9.9393    1.0961   -3.8463 N   0  0  1  0  0  0  0  0  0  0  0  0
  1  2  1  0  0  0  0
  3  1  1  1  0  0  0
  3  4  1  0  0  0  0
  3  5  1  0  0  0  0
  5  6  1  6  0  0  0
  5  7  1  0  0  0  0
  7  8  1  0  0  0  0
  8  4  1  6  0  0  0
  8 19  1  0  0  0  0
  9 15  1  0  0  0  0
  9 10  1  0  0  0  0
 10 11  1  6  0  0  0
 10 12  1  0  0  0  0
 13 12  1  6  0  0  0
 13 14  1  0  0  0  0
 13 19  1  0  0  0  0
 14 15  1  1  0  0  0
 14 17  1  0  0  0  0
 15 16  2  0  0  0  0
 17 18  1  0  0  0  0
 19 18  1  1  0  0  0
M  END
>  <CHROM.1>
176.73908077,68.15567947,-9.11205694,-0.22759997,-4.44999492,-0.43476954
-0.68322389,3.13131416

>  <Name>
ligand

>  <RI>
0

>  <Rbt.Current_Directory>
/home/itssahil/PROJECTS/Mol_Feturizer/New_Systems/rnas/3SKI

>  <Rbt.Executable>
rbdock ($Id: //depot/dev/client3/rdock/2013.1/src/exe/rbdock.cxx#4 $)

>  <Rbt.Library>
libRbt.so (2013.1, Build901 2013/11/27)

>  <Rbt.Parameter_File>
/export/apps/rDock/src/rDock_2013.1_src/data/scripts/dock_solv.prm

>  <Rbt.Receptor>
prm/blind_docking_60.prm

>  <SCORE>
-18.1487

>  <SCORE.INTER>
-14.7205

>  <SCORE.INTER.CONST>
1

>  <SCORE.INTER.POLAR>
0

>  <SCORE.INTER.ROT>
2

>  <SCORE.INTER.SOLV>
9.61369

>  <SCORE.INTER.VDW>
-17.9516

>  <SCORE.INTER.norm>
-0.774762

>  <SCORE.INTRA>
-3.42824

>  <SCORE.INTRA.DIHEDRAL>
-5.02097

>  <SCORE.INTRA.DIHEDRAL.0>
6.26853

>  <SCORE.INTRA.POLAR>
0

>  <SCORE.INTRA.POLAR.0>
0

>  <SCORE.INTRA.REPUL>
0

>  <SCORE.INTRA.REPUL.0>
0

>  <SCORE.INTRA.SOLV>
0.317446

>  <SCORE.INTRA.SOLV.lig_0>
-38.4926

>  <SCORE.INTRA.VDW>
-1.07648

>  <SCORE.INTRA.VDW.0>
-0.59057

>  <SCORE.INTRA.norm>
-0.180434

>  <SCORE.RESTR>
0

>  <SCORE.RESTR.CAVITY>
0

>  <SCORE.RESTR.norm>
0

>  <SCORE.SYSTEM>
0

>  <SCORE.SYSTEM.CONST>
0

>  <SCORE.SYSTEM.DIHEDRAL>
0

>  <SCORE.SYSTEM.SOLV>
0

>  <SCORE.SYSTEM.norm>
0

>  <SCORE.heavy>
19

>  <SCORE.norm>
-0.955196

>  <RMSD>
16.377

$$$$
ligand
 OpenBabel11021811483D
libRbt.so/2013.1/901 2013/11/27
 19 21  0  0  0  0  0  0  0  0999 V2000
   -7.9190   -0.1277   -7.2792 C   0  0  0  0  0  0  0  0  0  0  0  0
   -6.6694   -0.6012   -7.8031 O   0  0  0  0  0  0  0  0  0  0  0  0
   -7.7019    1.1336   -6.4403 C   0  0  1  0  0  0  0  0  0  0  0  0
   -8.9594    1.6555   -5.9700 O   0  0  0  0  0  0  0  0  0  0  0  0
   -6.8548    0.8357   -5.2156 C   0  0  1  0  0  0  0  0  0  0  0  0
   -5.5144    1.3132   -5.3854 O   0  0  0  0  0  0  0  0  0  0  0  0
   -7.5299    1.5496   -4.0647 C   0  0  0  0  0  0  0  0  0  0  0  0
   -8.9232    1.9111   -4.5583 C   0  0  2  0  0  0  0  0  0  0  0  0
  -10.3447   -2.9431   -3.1406 N   0  0  0  0  0  0  0  0  0  0  0  0
   -9.2436   -2.5217   -3.8190 C   0  0  1  0  0  0  0  0  0  0  0  0
   -8.3304   -3.4358   -4.2245 N   0  0  0  0  0  0  0  0  0  0  0  0
   -9.0413   -1.2062   -4.1029 N   0  0  0  0  0  0  0  0  0  0  0  0
   -9.9284   -0.2479   -3.7206 C   0  0  2  0  0  0  0  0  0  0  0  0
  -11.0672   -0.6179   -3.0282 C   0  0  1  0  0  0  0  0  0  0  0  0
  -11.2751   -2.0564   -2.7231 C   0  0  0  0  0  0  0  0  0  0  0  0
  -12.2867   -2.4399   -2.0942 O   0  0  0  0  0  0  0  0  0  0  0  0
  -11.7680    0.4987   -2.7645 N   0  0  0  0  0  0  0  0  0  0  0  0
  -11.0823    1.5417   -3.2881 C   0  0  0  0  0  0  0  0  0  0  0  0
   -9.9598    1.0844   -3.8722 N   0  0  1  0  0  0  0  0  0  0  0  0
  1  2  1  0  0  0  0
  3  1  1  1  0  0  0
  3  4  1  0  0  0  0
  3  5  1  0  0  0  0
  5  6  1  6  0  0  0
  5  7  1  0  0  0  0
  7  8  1  0  0  0  0
  8  4  1  6  0  0  0
  8 19  1  0  0  0  0
  9 15  1  0  0  0  0
  9 10  1  0  0  0  0
 10 11  1  6  0  0  0
 10 12  1  0  0  0  0
 13 12  1  6  0  0  0
 13 14  1  0  0  0  0
 13 19  1  0  0  0  0
 14 15  1  1  0  0  0
 14 17  1  0  0  0  0
 15 16  2  0  0  0  0
 17 18  1  0  0  0  0
 19 18  1  1  0  0  0
M  END
>  <CHROM.1>
176.93296889,69.93828260,-9.11777004,-0.23595921,-4.45243637,-0.45727518
-0.67076340,3.09630164

>  <Name>
ligand

>  <RI>
0

>  <Rbt.Current_Directory>
/home/itssahil/PROJECTS/Mol_Feturizer/New_Systems/rnas/3SKI

>  <Rbt.Executable>
rbdock ($Id: //depot/dev/client3/rdock/2013.1/src/exe/rbdock.cxx#4 $)

>  <Rbt.Library>
libRbt.so (2013.1, Build901 2013/11/27)

>  <Rbt.Parameter_File>
/export/apps/rDock/src/rDock_2013.1_src/data/scripts/dock_solv.prm

>  <Rbt.Receptor>
prm/blind_docking_100.prm

>  <SCORE>
-18.1512

>  <SCORE.INTER>
-14.7335

>  <SCORE.INTER.CONST>
1

>  <SCORE.INTER.POLAR>
0

>  <SCORE.INTER.ROT>
2

>  <SCORE.INTER.SOLV>
9.75859

>  <SCORE.INTER.VDW>
-18.0086

>  <SCORE.INTER.norm>
-0.775449

>  <SCORE.INTRA>
-3.41765

>  <SCORE.INTRA.DIHEDRAL>
-5.02376

>  <SCORE.INTRA.DIHEDRAL.0>
6.26853

>  <SCORE.INTRA.POLAR>
0

>  <SCORE.INTRA.POLAR.0>
0

>  <SCORE.INTRA.REPUL>
0

>  <SCORE.INTRA.REPUL.0>
0

>  <SCORE.INTRA.SOLV>
0.239178

>  <SCORE.INTRA.SOLV.lig_0>
-38.4926

>  <SCORE.INTRA.VDW>
-1.02536

>  <SCORE.INTRA.VDW.0>
-0.59057

>  <SCORE.INTRA.norm>
-0.179876

>  <SCORE.RESTR>
0

>  <SCORE.RESTR.CAVITY>
0

>  <SCORE.RESTR.norm>
0

>  <SCORE.SYSTEM>
0

>  <SCORE.SYSTEM.CONST>
0

>  <SCORE.SYSTEM.DIHEDRAL>
0

>  <SCORE.SYSTEM.SOLV>
0

>  <SCORE.SYSTEM.norm>
0

>  <SCORE.heavy>
19

>  <SCORE.norm>
-0.955325

>  <RMSD>
16.379

$$$$
ligand
 OpenBabel11021811483D
libRbt.so/2013.1/901 2013/11/27
 19 21  0  0  0  0  0  0  0  0999 V2000
   -7.8860   -0.1557   -7.2389 C   0  0  0  0  0  0  0  0  0  0  0  0
   -6.6221   -0.6055   -7.7494 O   0  0  0  0  0  0  0  0  0  0  0  0
   -7.7065    1.1293   -6.4276 C   0  0  1  0  0  0  0  0  0  0  0  0
   -8.9798    1.6279   -5.9746 O   0  0  0  0  0  0  0  0  0  0  0  0
   -6.8579    0.8816   -5.1929 C   0  0  1  0  0  0  0  0  0  0  0  0
   -5.5298    1.3907   -5.3675 O   0  0  0  0  0  0  0  0  0  0  0  0
   -7.5574    1.6028   -4.0613 C   0  0  0  0  0  0  0  0  0  0  0  0
   -8.9574    1.9158   -4.5689 C   0  0  2  0  0  0  0  0  0  0  0  0
  -10.3363   -2.9612   -3.1882 N   0  0  0  0  0  0  0  0  0  0  0  0
   -9.2535   -2.5280   -3.8883 C   0  0  1  0  0  0  0  0  0  0  0  0
   -8.3499   -3.4345   -4.3308 N   0  0  0  0  0  0  0  0  0  0  0  0
   -9.0600   -1.2081   -4.1575 N   0  0  0  0  0  0  0  0  0  0  0  0
   -9.9381   -0.2570   -3.7381 C   0  0  2  0  0  0  0  0  0  0  0  0
  -11.0584   -0.6391   -3.0224 C   0  0  1  0  0  0  0  0  0  0  0  0
  -11.2567   -2.0823   -2.7337 C   0  0  0  0  0  0  0  0  0  0  0  0
  -12.2514   -2.4768   -2.0848 O   0  0  0  0  0  0  0  0  0  0  0  0
  -11.7535    0.4723   -2.7241 N   0  0  0  0  0  0  0  0  0  0  0  0
  -11.0826    1.5241   -3.2494 C   0  0  0  0  0  0  0  0  0  0  0  0
   -9.9750    1.0774   -3.8689 N   0  0  1  0  0  0  0  0  0  0  0  0
  1  2  1  0  0  0  0
  3  1  1  1  0  0  0
  3  4  1  0  0  0  0
  3  5  1  0  0  0  0
  5  6  1  6  0  0  0
  5  7  1  0  0  0  0
  7  8  1  0  0  0  0
  8  4  1  6  0  0  0
  8 19  1  0  0  0  0
  9 15  1  0  0  0  0
  9 10  1  0  0  0  0
 10 11  1  6  0  0  0
 10 12  1  0  0  0  0
 13 12  1  6  0  0  0
 13 14  1  0  0  0  0
 13 19  1  0  0  0  0
 14 15  1  1  0  0  0
 14 17  1  0  0  0  0
 15 16  2  0  0  0  0
 17 18  1  0  0  0  0
 19 18  1  1  0  0  0
M  END
>  <CHROM.1>
176.79054562,66.82157205,-9.11797589,-0.23825666,-4.45544223,-0.44808847
-0.67503150,3.12286468

>  <Name>
ligand

>  <RI>
0

>  <Rbt.Current_Directory>
/home/itssahil/PROJECTS/Mol_Feturizer/New_Systems/rnas/3SKI

>  <Rbt.Executable>
rbdock ($Id: //depot/dev/client3/rdock/2013.1/src/exe/rbdock.cxx#4 $)

>  <Rbt.Library>
libRbt.so (2013.1, Build901 2013/11/27)

>  <Rbt.Parameter_File>
/export/apps/rDock/src/rDock_2013.1_src/data/scripts/dock_solv.prm

>  <Rbt.Receptor>
prm/blind_docking_40.prm

>  <SCORE>
-18.1465

>  <SCORE.INTER>
-14.712

>  <SCORE.INTER.CONST>
1

>  <SCORE.INTER.POLAR>
0

>  <SCORE.INTER.ROT>
2

>  <SCORE.INTER.SOLV>
9.54549

>  <SCORE.INTER.VDW>
-17.9232

>  <SCORE.INTER.norm>
-0.774317

>  <SCORE.INTRA>
-3.43444

>  <SCORE.INTRA.DIHEDRAL>
-5.02336

>  <SCORE.INTRA.DIHEDRAL.0>
6.26853

>  <SCORE.INTRA.POLAR>
0

>  <SCORE.INTRA.POLAR.0>
0

>  <SCORE.INTRA.REPUL>
0

>  <SCORE.INTRA.REPUL.0>
0

>  <SCORE.INTRA.SOLV>
0.375624

>  <SCORE.INTRA.SOLV.lig_0>
-38.4926

>  <SCORE.INTRA.VDW>
-1.11058

>  <SCORE.INTRA.VDW.0>
-0.59057

>  <SCORE.INTRA.norm>
-0.18076

>  <SCORE.RESTR>
0

>  <SCORE.RESTR.CAVITY>
0

>  <SCORE.RESTR.norm>
0

>  <SCORE.SYSTEM>
0

>  <SCORE.SYSTEM.CONST>
0

>  <SCORE.SYSTEM.DIHEDRAL>
0

>  <SCORE.SYSTEM.SOLV>
0

>  <SCORE.SYSTEM.norm>
0

>  <SCORE.heavy>
19

>  <SCORE.norm>
-0.955077

>  <RMSD>
16.381

$$$$
ligand
 OpenBabel11021811483D
libRbt.so/2013.1/901 2013/11/27
 19 21  0  0  0  0  0  0  0  0999 V2000
   -7.4759   -0.2147   -7.0158 C   0  0  0  0  0  0  0  0  0  0  0  0
   -7.9869   -0.0613   -8.3482 O   0  0  0  0  0  0  0  0  0  0  0  0
   -7.4717    1.1315   -6.2881 C   0  0  1  0  0  0  0  0  0  0  0  0
   -8.8151    1.5438   -5.9717 O   0  0  0  0  0  0  0  0  0  0  0  0
   -6.7107    1.0413   -4.9771 C   0  0  1  0  0  0  0  0  0  0  0  0
   -5.4196    1.6537   -5.0854 O   0  0  0  0  0  0  0  0  0  0  0  0
   -7.5591    1.7702   -3.9578 C   0  0  0  0  0  0  0  0  0  0  0  0
   -8.9333    1.9240   -4.5929 C   0  0  2  0  0  0  0  0  0  0  0  0
  -10.1128   -2.9934   -3.1715 N   0  0  0  0  0  0  0  0  0  0  0  0
   -9.0282   -2.5170   -3.8401 C   0  0  1  0  0  0  0  0  0  0  0  0
   -8.0640   -3.3831   -4.2325 N   0  0  0  0  0  0  0  0  0  0  0  0
   -8.8922   -1.1936   -4.1268 N   0  0  0  0  0  0  0  0  0  0  0  0
   -9.8325   -0.2820   -3.7574 C   0  0  2  0  0  0  0  0  0  0  0  0
  -10.9575   -0.7091   -3.0755 C   0  0  1  0  0  0  0  0  0  0  0  0
  -11.0928   -2.1555   -2.7671 C   0  0  0  0  0  0  0  0  0  0  0  0
  -12.0895   -2.5896   -2.1472 O   0  0  0  0  0  0  0  0  0  0  0  0
  -11.7188    0.3700   -2.8234 N   0  0  0  0  0  0  0  0  0  0  0  0
  -11.0833    1.4458   -3.3438 C   0  0  0  0  0  0  0  0  0  0  0  0
   -9.9322    1.0463   -3.9145 N   0  0  1  0  0  0  0  0  0  0  0  0
  1  2  1  0  0  0  0
  3  1  1  1  0  0  0
  3  4  1  0  0  0  0
  3  5  1  0  0  0  0
  5  6  1  6  0  0  0
  5  7  1  0  0  0  0
  7  8  1  0  0  0  0
  8  4  1  6  0  0  0
  8 19  1  0  0  0  0
  9 15  1  0  0  0  0
  9 10  1  0  0  0  0
 10 11  1  6  0  0  0
 10 12  1  0  0  0  0
 13 12  1  6  0  0  0
 13 14  1  0  0  0  0
 13 19  1  0  0  0  0
 14 15  1  1  0  0  0
 14 17  1  0  0  0  0
 15 16  2  0  0  0  0
 17 18  1  0  0  0  0
 19 18  1  1  0  0  0
M  END
>  <CHROM.1>
71.23793027,62.47923844,-9.06481894,-0.20274001,-4.45138502,-0.53337058,-0.69688492
3.13146223

>  <Name>
ligand

>  <RI>
0

>  <Rbt.Current_Directory>
/home/itssahil/PROJECTS/Mol_Feturizer/New_Systems/rnas/3SKI

>  <Rbt.Executable>
rbdock ($Id: //depot/dev/client3/rdock/2013.1/src/exe/rbdock.cxx#4 $)

>  <Rbt.Library>
libRbt.so (2013.1, Build901 2013/11/27)

>  <Rbt.Parameter_File>
/export/apps/rDock/src/rDock_2013.1_src/data/scripts/dock_solv.prm

>  <Rbt.Receptor>
prm/blind_docking_40.prm

>  <SCORE>
-17.5347

>  <SCORE.INTER>
-14.1677

>  <SCORE.INTER.CONST>
1

>  <SCORE.INTER.POLAR>
0

>  <SCORE.INTER.ROT>
2

>  <SCORE.INTER.SOLV>
10.3216

>  <SCORE.INTER.VDW>
-17.819

>  <SCORE.INTER.norm>
-0.745666

>  <SCORE.INTRA>
-3.36702

>  <SCORE.INTRA.DIHEDRAL>
-4.6162

>  <SCORE.INTRA.DIHEDRAL.0>
6.26853

>  <SCORE.INTRA.POLAR>
0

>  <SCORE.INTRA.POLAR.0>
0

>  <SCORE.INTRA.REPUL>
0

>  <SCORE.INTRA.REPUL.0>
0

>  <SCORE.INTRA.SOLV>
0.304407

>  <SCORE.INTRA.SOLV.lig_0>
-38.4926

>  <SCORE.INTRA.VDW>
-1.21113

>  <SCORE.INTRA.VDW.0>
-0.59057

>  <SCORE.INTRA.norm>
-0.177212

>  <SCORE.RESTR>
0

>  <SCORE.RESTR.CAVITY>
0

>  <SCORE.RESTR.norm>
0

>  <SCORE.SYSTEM>
0

>  <SCORE.SYSTEM.CONST>
0

>  <SCORE.SYSTEM.DIHEDRAL>
0

>  <SCORE.SYSTEM.SOLV>
0

>  <SCORE.SYSTEM.norm>
0

>  <SCORE.heavy>
19

>  <SCORE.norm>
-0.922878

>  <RMSD>
16.384

$$$$
ligand
 OpenBabel11021811483D
libRbt.so/2013.1/901 2013/11/27
 19 21  0  0  0  0  0  0  0  0999 V2000
   -7.4245   -0.3182   -6.8917 C   0  0  0  0  0  0  0  0  0  0  0  0
   -8.0215   -0.2668   -8.1959 O   0  0  0  0  0  0  0  0  0  0  0  0
   -7.4461    1.0664   -6.2405 C   0  0  1  0  0  0  0  0  0  0  0  0
   -8.7991    1.4831   -5.9741 O   0  0  0  0  0  0  0  0  0  0  0  0
   -6.7109    1.0566   -4.9118 C   0  0  1  0  0  0  0  0  0  0  0  0
   -5.4231    1.6741   -5.0288 O   0  0  0  0  0  0  0  0  0  0  0  0
   -7.5857    1.8331   -3.9517 C   0  0  0  0  0  0  0  0  0  0  0  0
   -8.9481    1.9384   -4.6212 C   0  0  2  0  0  0  0  0  0  0  0  0
  -10.2794   -2.9527   -3.2437 N   0  0  0  0  0  0  0  0  0  0  0  0
   -9.2063   -2.5095   -3.9524 C   0  0  1  0  0  0  0  0  0  0  0  0
   -8.3005   -3.4081   -4.4062 N   0  0  0  0  0  0  0  0  0  0  0  0
   -9.0247   -1.1874   -4.2191 N   0  0  0  0  0  0  0  0  0  0  0  0
   -9.9056   -0.2440   -3.7885 C   0  0  2  0  0  0  0  0  0  0  0  0
  -11.0163   -0.6363   -3.0635 C   0  0  1  0  0  0  0  0  0  0  0  0
  -11.2017   -2.0818   -2.7777 C   0  0  0  0  0  0  0  0  0  0  0  0
  -12.1874   -2.4854   -2.1208 O   0  0  0  0  0  0  0  0  0  0  0  0
  -11.7165    0.4692   -2.7552 N   0  0  0  0  0  0  0  0  0  0  0  0
  -11.0581    1.5274   -3.2833 C   0  0  0  0  0  0  0  0  0  0  0  0
   -9.9531    1.0905   -3.9146 N   0  0  1  0  0  0  0  0  0  0  0  0
  1  2  1  0  0  0  0
  3  1  1  1  0  0  0
  3  4  1  0  0  0  0
  3  5  1  0  0  0  0
  5  6  1  6  0  0  0
  5  7  1  0  0  0  0
  7  8  1  0  0  0  0
  8  4  1  6  0  0  0
  8 19  1  0  0  0  0
  9 15  1  0  0  0  0
  9 10  1  0  0  0  0
 10 11  1  6  0  0  0
 10 12  1  0  0  0  0
 13 12  1  6  0  0  0
 13 14  1  0  0  0  0
 13 19  1  0  0  0  0
 14 15  1  1  0  0  0
 14 17  1  0  0  0  0
 15 16  2  0  0  0  0
 17 18  1  0  0  0  0
 19 18  1  1  0  0  0
M  END
>  <CHROM.1>
66.03046444,55.94304002,-9.11814066,-0.19390652,-4.44412816,-0.44470620,-0.70538966
-3.03990689

>  <Name>
ligand

>  <RI>
0

>  <Rbt.Current_Directory>
/home/itssahil/PROJECTS/Mol_Feturizer/New_Systems/rnas/3SKI

>  <Rbt.Executable>
rbdock ($Id: //depot/dev/client3/rdock/2013.1/src/exe/rbdock.cxx#4 $)

>  <Rbt.Library>
libRbt.so (2013.1, Build901 2013/11/27)

>  <Rbt.Parameter_File>
/export/apps/rDock/src/rDock_2013.1_src/data/scripts/dock_solv.prm

>  <Rbt.Receptor>
prm/blind_docking_80.prm

>  <SCORE>
-17.5825

>  <SCORE.INTER>
-14.0861

>  <SCORE.INTER.CONST>
1

>  <SCORE.INTER.POLAR>
0

>  <SCORE.INTER.ROT>
2

>  <SCORE.INTER.SOLV>
9.9483

>  <SCORE.INTER.VDW>
-17.6402

>  <SCORE.INTER.norm>
-0.741375

>  <SCORE.INTRA>
-3.49634

>  <SCORE.INTRA.DIHEDRAL>
-4.93734

>  <SCORE.INTRA.DIHEDRAL.0>
6.26853

>  <SCORE.INTRA.POLAR>
0

>  <SCORE.INTRA.POLAR.0>
0

>  <SCORE.INTRA.REPUL>
0

>  <SCORE.INTRA.REPUL.0>
0

>  <SCORE.INTRA.SOLV>
0.562171

>  <SCORE.INTRA.SOLV.lig_0>
-38.4926

>  <SCORE.INTRA.VDW>
-1.30875

>  <SCORE.INTRA.VDW.0>
-0.59057

>  <SCORE.INTRA.norm>
-0.184018

>  <SCORE.RESTR>
0

>  <SCORE.RESTR.CAVITY>
0

>  <SCORE.RESTR.norm>
0

>  <SCORE.SYSTEM>
0

>  <SCORE.SYSTEM.CONST>
0

>  <SCORE.SYSTEM.DIHEDRAL>
0

>  <SCORE.SYSTEM.SOLV>
0

>  <SCORE.SYSTEM.norm>
0

>  <SCORE.heavy>
19

>  <SCORE.norm>
-0.925392

>  <RMSD>
16.385

$$$$
ligand
 OpenBabel11021811483D
libRbt.so/2013.1/901 2013/11/27
 19 21  0  0  0  0  0  0  0  0999 V2000
   -7.4653   -0.2020   -7.0112 C   0  0  0  0  0  0  0  0  0  0  0  0
   -8.0494   -0.0685   -8.3155 O   0  0  0  0  0  0  0  0  0  0  0  0
   -7.4683    1.1451   -6.2852 C   0  0  1  0  0  0  0  0  0  0  0  0
   -8.8139    1.5503   -5.9688 O   0  0  0  0  0  0  0  0  0  0  0  0
   -6.7064    1.0607   -4.9744 C   0  0  1  0  0  0  0  0  0  0  0  0
   -5.4187    1.6800   -5.0839 O   0  0  0  0  0  0  0  0  0  0  0  0
   -7.5584    1.7861   -3.9556 C   0  0  0  0  0  0  0  0  0  0  0  0
   -8.9337    1.9315   -4.5904 C   0  0  2  0  0  0  0  0  0  0  0  0
  -10.1023   -2.9956   -3.1938 N   0  0  0  0  0  0  0  0  0  0  0  0
   -9.0228   -2.5145   -3.8671 C   0  0  1  0  0  0  0  0  0  0  0  0
   -8.0615   -3.3779   -4.2726 N   0  0  0  0  0  0  0  0  0  0  0  0
   -8.8890   -1.1892   -4.1459 N   0  0  0  0  0  0  0  0  0  0  0  0
   -9.8265   -0.2803   -3.7633 C   0  0  2  0  0  0  0  0  0  0  0  0
  -10.9465   -0.7120   -3.0759 C   0  0  1  0  0  0  0  0  0  0  0  0
  -11.0794   -2.1606   -2.7764 C   0  0  0  0  0  0  0  0  0  0  0  0
  -12.0714   -2.5989   -2.1521 O   0  0  0  0  0  0  0  0  0  0  0  0
  -11.7059    0.3652   -2.8109 N   0  0  0  0  0  0  0  0  0  0  0  0
  -11.0743    1.4446   -3.3287 C   0  0  0  0  0  0  0  0  0  0  0  0
   -9.9275    1.0491   -3.9106 N   0  0  1  0  0  0  0  0  0  0  0  0
  1  2  1  0  0  0  0
  3  1  1  1  0  0  0
  3  4  1  0  0  0  0
  3  5  1  0  0  0  0
  5  6  1  6  0  0  0
  5  7  1  0  0  0  0
  7  8  1  0  0  0  0
  8  4  1  6  0  0  0
  8 19  1  0  0  0  0
  9 15  1  0  0  0  0
  9 10  1  0  0  0  0
 10 11  1  6  0  0  0
 10 12  1  0  0  0  0
 13 12  1  6  0  0  0
 13 14  1  0  0  0  0
 13 19  1  0  0  0  0
 14 15  1  1  0  0  0
 14 17  1  0  0  0  0
 15 16  2  0  0  0  0
 17 18  1  0  0  0  0
 19 18  1  1  0  0  0
M  END
>  <CHROM.1>
67.89144118,61.79178669,-9.06259053,-0.19812361,-4.45340054,-0.53188978,-0.69998966
-3.13847291

>  <Name>
ligand

>  <RI>
0

>  <Rbt.Current_Directory>
/home/itssahil/PROJECTS/Mol_Feturizer/New_Systems/rnas/3SKI

>  <Rbt.Executable>
rbdock ($Id: //depot/dev/client3/rdock/2013.1/src/exe/rbdock.cxx#4 $)

>  <Rbt.Library>
libRbt.so (2013.1, Build901 2013/11/27)

>  <Rbt.Parameter_File>
/export/apps/rDock/src/rDock_2013.1_src/data/scripts/dock_solv.prm

>  <Rbt.Receptor>
prm/blind_docking_20.prm

>  <SCORE>
-17.5452

>  <SCORE.INTER>
-14.0734

>  <SCORE.INTER.CONST>
1

>  <SCORE.INTER.POLAR>
0

>  <SCORE.INTER.ROT>
2

>  <SCORE.INTER.SOLV>
10.26

>  <SCORE.INTER.VDW>
-17.7356

>  <SCORE.INTER.norm>
-0.740705

>  <SCORE.INTRA>
-3.47179

>  <SCORE.INTRA.DIHEDRAL>
-4.83949

>  <SCORE.INTRA.DIHEDRAL.0>
6.26853

>  <SCORE.INTRA.POLAR>
0

>  <SCORE.INTRA.POLAR.0>
0

>  <SCORE.INTRA.REPUL>
0

>  <SCORE.INTRA.REPUL.0>
0

>  <SCORE.INTRA.SOLV>
0.343308

>  <SCORE.INTRA.SOLV.lig_0>
-38.4926

>  <SCORE.INTRA.VDW>
-1.2237

>  <SCORE.INTRA.VDW.0>
-0.59057

>  <SCORE.INTRA.norm>
-0.182726

>  <SCORE.RESTR>
0

>  <SCORE.RESTR.CAVITY>
0

>  <SCORE.RESTR.norm>
0

>  <SCORE.SYSTEM>
0

>  <SCORE.SYSTEM.CONST>
0

>  <SCORE.SYSTEM.DIHEDRAL>
0

>  <SCORE.SYSTEM.SOLV>
0

>  <SCORE.SYSTEM.norm>
0

>  <SCORE.heavy>
19

>  <SCORE.norm>
-0.923431

>  <RMSD>
16.386

$$$$
ligand
 OpenBabel11021811483D
libRbt.so/2013.1/901 2013/11/27
 19 21  0  0  0  0  0  0  0  0999 V2000
   -7.4844   -0.1976   -7.0538 C   0  0  0  0  0  0  0  0  0  0  0  0
   -7.9792   -0.0030   -8.3871 O   0  0  0  0  0  0  0  0  0  0  0  0
   -7.4476    1.1332   -6.2992 C   0  0  1  0  0  0  0  0  0  0  0  0
   -8.7804    1.5691   -5.9697 O   0  0  0  0  0  0  0  0  0  0  0  0
   -6.6847    0.9994   -4.9931 C   0  0  1  0  0  0  0  0  0  0  0  0
   -5.3805    1.5847   -5.0937 O   0  0  0  0  0  0  0  0  0  0  0  0
   -7.5132    1.7264   -3.9562 C   0  0  0  0  0  0  0  0  0  0  0  0
   -8.8856    1.9239   -4.5831 C   0  0  2  0  0  0  0  0  0  0  0  0
  -10.1292   -2.9825   -3.1782 N   0  0  0  0  0  0  0  0  0  0  0  0
   -9.0310   -2.5160   -3.8313 C   0  0  1  0  0  0  0  0  0  0  0  0
   -8.0691   -3.3908   -4.2100 N   0  0  0  0  0  0  0  0  0  0  0  0
   -8.8791   -1.1939   -4.1163 N   0  0  0  0  0  0  0  0  0  0  0  0
   -9.8163   -0.2739   -3.7603 C   0  0  2  0  0  0  0  0  0  0  0  0
  -10.9548   -0.6907   -3.0944 C   0  0  1  0  0  0  0  0  0  0  0  0
  -11.1073   -2.1358   -2.7879 C   0  0  0  0  0  0  0  0  0  0  0  0
  -12.1166   -2.5608   -2.1822 O   0  0  0  0  0  0  0  0  0  0  0  0
  -11.7098    0.3952   -2.8533 N   0  0  0  0  0  0  0  0  0  0  0  0
  -11.0574    1.4652   -3.3648 C   0  0  0  0  0  0  0  0  0  0  0  0
   -9.9019    1.0552   -3.9189 N   0  0  1  0  0  0  0  0  0  0  0  0
  1  2  1  0  0  0  0
  3  1  1  1  0  0  0
  3  4  1  0  0  0  0
  3  5  1  0  0  0  0
  5  6  1  6  0  0  0
  5  7  1  0  0  0  0
  7  8  1  0  0  0  0
  8  4  1  6  0  0  0
  8 19  1  0  0  0  0
  9 15  1  0  0  0  0
  9 10  1  0  0  0  0
 10 11  1  6  0  0  0
 10 12  1  0  0  0  0
 13 12  1  6  0  0  0
 13 14  1  0  0  0  0
 13 19  1  0  0  0  0
 14 15  1  1  0  0  0
 14 17  1  0  0  0  0
 15 16  2  0  0  0  0
 17 18  1  0  0  0  0
 19 18  1  1  0  0  0
M  END
>  <CHROM.1>
72.01101756,64.20508812,-9.05169472,-0.19848618,-4.46205767,-0.53368144,-0.68990843
3.12098944

>  <Name>
ligand

>  <RI>
0

>  <Rbt.Current_Directory>
/home/itssahil/PROJECTS/Mol_Feturizer/New_Systems/rnas/3SKI

>  <Rbt.Executable>
rbdock ($Id: //depot/dev/client3/rdock/2013.1/src/exe/rbdock.cxx#4 $)

>  <Rbt.Library>
libRbt.so (2013.1, Build901 2013/11/27)

>  <Rbt.Parameter_File>
/export/apps/rDock/src/rDock_2013.1_src/data/scripts/dock_solv.prm

>  <Rbt.Receptor>
prm/blind_docking_20.prm

>  <SCORE>
-17.5307

>  <SCORE.INTER>
-14.1597

>  <SCORE.INTER.CONST>
1

>  <SCORE.INTER.POLAR>
0

>  <SCORE.INTER.ROT>
2

>  <SCORE.INTER.SOLV>
10.3804

>  <SCORE.INTER.VDW>
-17.8333

>  <SCORE.INTER.norm>
-0.745248

>  <SCORE.INTRA>
-3.37097

>  <SCORE.INTRA.DIHEDRAL>
-4.55328

>  <SCORE.INTRA.DIHEDRAL.0>
6.26853

>  <SCORE.INTRA.POLAR>
0

>  <SCORE.INTRA.POLAR.0>
0

>  <SCORE.INTRA.REPUL>
0

>  <SCORE.INTRA.REPUL.0>
0

>  <SCORE.INTRA.SOLV>
0.231999

>  <SCORE.INTRA.SOLV.lig_0>
-38.4926

>  <SCORE.INTRA.VDW>
-1.21033

>  <SCORE.INTRA.VDW.0>
-0.59057

>  <SCORE.INTRA.norm>
-0.177419

>  <SCORE.RESTR>
0

>  <SCORE.RESTR.CAVITY>
0

>  <SCORE.RESTR.norm>
0

>  <SCORE.SYSTEM>
0

>  <SCORE.SYSTEM.CONST>
0

>  <SCORE.SYSTEM.DIHEDRAL>
0

>  <SCORE.SYSTEM.SOLV>
0

>  <SCORE.SYSTEM.norm>
0

>  <SCORE.heavy>
19

>  <SCORE.norm>
-0.922668

>  <RMSD>
16.393

$$$$
ligand
 OpenBabel11021811483D
libRbt.so/2013.1/901 2013/11/27
 19 21  0  0  0  0  0  0  0  0999 V2000
   -7.4242   -0.2071   -7.0188 C   0  0  0  0  0  0  0  0  0  0  0  0
   -7.9709   -0.0704   -8.3389 O   0  0  0  0  0  0  0  0  0  0  0  0
   -7.4403    1.1400   -6.2930 C   0  0  1  0  0  0  0  0  0  0  0  0
   -8.7909    1.5407   -5.9924 O   0  0  0  0  0  0  0  0  0  0  0  0
   -6.6934    1.0583   -4.9734 C   0  0  1  0  0  0  0  0  0  0  0  0
   -5.4067    1.6820   -5.0679 O   0  0  0  0  0  0  0  0  0  0  0  0
   -7.5597    1.7808   -3.9647 C   0  0  0  0  0  0  0  0  0  0  0  0
   -8.9280    1.9216   -4.6155 C   0  0  2  0  0  0  0  0  0  0  0  0
  -10.0776   -3.0038   -3.1969 N   0  0  0  0  0  0  0  0  0  0  0  0
   -8.9896   -2.5184   -3.8533 C   0  0  1  0  0  0  0  0  0  0  0  0
   -8.0124   -3.3762   -4.2320 N   0  0  0  0  0  0  0  0  0  0  0  0
   -8.8628   -1.1945   -4.1416 N   0  0  0  0  0  0  0  0  0  0  0  0
   -9.8161   -0.2911   -3.7858 C   0  0  2  0  0  0  0  0  0  0  0  0
  -10.9453   -0.7274   -3.1166 C   0  0  1  0  0  0  0  0  0  0  0  0
  -11.0705   -2.1744   -2.8064 C   0  0  0  0  0  0  0  0  0  0  0  0
  -12.0704   -2.6166   -2.1977 O   0  0  0  0  0  0  0  0  0  0  0  0
  -11.7199    0.3448   -2.8764 N   0  0  0  0  0  0  0  0  0  0  0  0
  -11.0884    1.4256   -3.3916 C   0  0  0  0  0  0  0  0  0  0  0  0
   -9.9266    1.0358   -3.9472 N   0  0  1  0  0  0  0  0  0  0  0  0
  1  2  1  0  0  0  0
  3  1  1  1  0  0  0
  3  4  1  0  0  0  0
  3  5  1  0  0  0  0
  5  6  1  6  0  0  0
  5  7  1  0  0  0  0
  7  8  1  0  0  0  0
  8  4  1  6  0  0  0
  8 19  1  0  0  0  0
  9 15  1  0  0  0  0
  9 10  1  0  0  0  0
 10 11  1  6  0  0  0
 10 12  1  0  0  0  0
 13 12  1  6  0  0  0
 13 14  1  0  0  0  0
 13 19  1  0  0  0  0
 14 15  1  1  0  0  0
 14 17  1  0  0  0  0
 15 16  2  0  0  0  0
 17 18  1  0  0  0  0
 19 18  1  1  0  0  0
M  END
>  <CHROM.1>
68.95003676,62.56464700,-9.04461229,-0.20655613,-4.47034700,-0.54829538,-0.68392237
3.12034665

>  <Name>
ligand

>  <RI>
0

>  <Rbt.Current_Directory>
/home/itssahil/PROJECTS/Mol_Feturizer/New_Systems/rnas/3SKI

>  <Rbt.Executable>
rbdock ($Id: //depot/dev/client3/rdock/2013.1/src/exe/rbdock.cxx#4 $)

>  <Rbt.Library>
libRbt.so (2013.1, Build901 2013/11/27)

>  <Rbt.Parameter_File>
/export/apps/rDock/src/rDock_2013.1_src/data/scripts/dock_solv.prm

>  <Rbt.Receptor>
prm/blind_docking_20.prm

>  <SCORE>
-17.5001

>  <SCORE.INTER>
-14.0575

>  <SCORE.INTER.CONST>
1

>  <SCORE.INTER.POLAR>
0

>  <SCORE.INTER.ROT>
2

>  <SCORE.INTER.SOLV>
10.1977

>  <SCORE.INTER.VDW>
-17.7042

>  <SCORE.INTER.norm>
-0.739867

>  <SCORE.INTRA>
-3.44261

>  <SCORE.INTRA.DIHEDRAL>
-4.77602

>  <SCORE.INTRA.DIHEDRAL.0>
6.26853

>  <SCORE.INTRA.POLAR>
0

>  <SCORE.INTRA.POLAR.0>
0

>  <SCORE.INTRA.REPUL>
0

>  <SCORE.INTRA.REPUL.0>
0

>  <SCORE.INTRA.SOLV>
0.309071

>  <SCORE.INTRA.SOLV.lig_0>
-38.4926

>  <SCORE.INTRA.VDW>
-1.20913

>  <SCORE.INTRA.VDW.0>
-0.59057

>  <SCORE.INTRA.norm>
-0.18119

>  <SCORE.RESTR>
0

>  <SCORE.RESTR.CAVITY>
0

>  <SCORE.RESTR.norm>
0

>  <SCORE.SYSTEM>
0

>  <SCORE.SYSTEM.CONST>
0

>  <SCORE.SYSTEM.DIHEDRAL>
0

>  <SCORE.SYSTEM.SOLV>
0

>  <SCORE.SYSTEM.norm>
0

>  <SCORE.heavy>
19

>  <SCORE.norm>
-0.921057

>  <RMSD>
16.397

$$$$
ligand
 OpenBabel11021811483D
libRbt.so/2013.1/901 2013/11/27
 19 21  0  0  0  0  0  0  0  0999 V2000
   -6.3074    2.0341   -4.5803 C   0  0  0  0  0  0  0  0  0  0  0  0
   -6.1968    3.4331   -4.8815 O   0  0  0  0  0  0  0  0  0  0  0  0
   -6.2582    1.2063   -5.8665 C   0  0  1  0  0  0  0  0  0  0  0  0
   -6.2125   -0.2015   -5.5648 O   0  0  0  0  0  0  0  0  0  0  0  0
   -7.4950    1.4423   -6.7154 C   0  0  1  0  0  0  0  0  0  0  0  0
   -7.2010    2.2894   -7.8333 O   0  0  0  0  0  0  0  0  0  0  0  0
   -7.9364    0.0744   -7.1887 C   0  0  0  0  0  0  0  0  0  0  0  0
   -7.1988   -0.9277   -6.3128 C   0  0  2  0  0  0  0  0  0  0  0  0
  -11.1205   -0.2565   -2.8831 N   0  0  0  0  0  0  0  0  0  0  0  0
  -10.4360    0.6643   -3.6138 C   0  0  1  0  0  0  0  0  0  0  0  0
  -10.7577    1.9739   -3.4903 N   0  0  0  0  0  0  0  0  0  0  0  0
   -9.4348    0.3009   -4.4609 N   0  0  0  0  0  0  0  0  0  0  0  0
   -9.0706   -1.0004   -4.6204 C   0  0  2  0  0  0  0  0  0  0  0  0
   -9.7314   -1.9807   -3.9022 C   0  0  1  0  0  0  0  0  0  0  0  0
  -10.8233   -1.5709   -2.9828 C   0  0  0  0  0  0  0  0  0  0  0  0
  -11.4544   -2.4213   -2.3159 O   0  0  0  0  0  0  0  0  0  0  0  0
   -9.1956   -3.1670   -4.2383 N   0  0  0  0  0  0  0  0  0  0  0  0
   -8.2168   -2.9290   -5.1424 C   0  0  0  0  0  0  0  0  0  0  0  0
   -8.1410   -1.6058   -5.3742 N   0  0  1  0  0  0  0  0  0  0  0  0
  1  2  1  0  0  0  0
  3  1  1  1  0  0  0
  3  4  1  0  0  0  0
  3  5  1  0  0  0  0
  5  6  1  6  0  0  0
  5  7  1  0  0  0  0
  7  8  1  0  0  0  0
  8  4  1  1  0  0  0
  8 19  1  0  0  0  0
  9 15  1  0  0  0  0
  9 10  1  0  0  0  0
 10 11  1  1  0  0  0
 10 12  1  0  0  0  0
 13 12  1  1  0  0  0
 13 14  1  0  0  0  0
 13 19  1  0  0  0  0
 14 15  1  6  0  0  0
 14 17  1  0  0  0  0
 15 16  2  0  0  0  0
 17 18  1  0  0  0  0
 19 18  1  6  0  0  0
M  END
>  <CHROM.1>
173.34591742,71.53506608,-8.54098172,-0.07229011,-4.86354903,0.54665375,0.70478610
0.11379856

>  <Name>
ligand

>  <RI>
0

>  <Rbt.Current_Directory>
/home/itssahil/PROJECTS/Mol_Feturizer/New_Systems/rnas/3SKI

>  <Rbt.Executable>
rbdock ($Id: //depot/dev/client3/rdock/2013.1/src/exe/rbdock.cxx#4 $)

>  <Rbt.Library>
libRbt.so (2013.1, Build901 2013/11/27)

>  <Rbt.Parameter_File>
/export/apps/rDock/src/rDock_2013.1_src/data/scripts/dock_solv.prm

>  <Rbt.Receptor>
prm/blind_docking_60.prm

>  <SCORE>
-15.4643

>  <SCORE.INTER>
-12.09

>  <SCORE.INTER.CONST>
1

>  <SCORE.INTER.POLAR>
0

>  <SCORE.INTER.ROT>
2

>  <SCORE.INTER.SOLV>
10.0237

>  <SCORE.INTER.VDW>
-16.3346

>  <SCORE.INTER.norm>
-0.636314

>  <SCORE.INTRA>
-3.37431

>  <SCORE.INTRA.DIHEDRAL>
-4.89915

>  <SCORE.INTRA.DIHEDRAL.0>
6.26853

>  <SCORE.INTRA.POLAR>
0

>  <SCORE.INTRA.POLAR.0>
0

>  <SCORE.INTRA.REPUL>
0

>  <SCORE.INTRA.REPUL.0>
0

>  <SCORE.INTRA.SOLV>
0.148389

>  <SCORE.INTRA.SOLV.lig_0>
-38.4926

>  <SCORE.INTRA.VDW>
-0.998932

>  <SCORE.INTRA.VDW.0>
-0.59057

>  <SCORE.INTRA.norm>
-0.177595

>  <SCORE.RESTR>
0

>  <SCORE.RESTR.CAVITY>
0

>  <SCORE.RESTR.norm>
0

>  <SCORE.SYSTEM>
0

>  <SCORE.SYSTEM.CONST>
0

>  <SCORE.SYSTEM.DIHEDRAL>
0

>  <SCORE.SYSTEM.SOLV>
0

>  <SCORE.SYSTEM.norm>
0

>  <SCORE.heavy>
19

>  <SCORE.norm>
-0.81391

>  <RMSD>
16.481

$$$$
ligand
 OpenBabel11021811483D
libRbt.so/2013.1/901 2013/11/27
 19 21  0  0  0  0  0  0  0  0999 V2000
   -9.0871   -1.5410   -3.8786 C   0  0  0  0  0  0  0  0  0  0  0  0
  -10.1701   -2.1397   -3.1513 O   0  0  0  0  0  0  0  0  0  0  0  0
   -9.1122   -0.0196   -3.7159 C   0  0  1  0  0  0  0  0  0  0  0  0
   -7.9724    0.5806   -4.3605 O   0  0  0  0  0  0  0  0  0  0  0  0
  -10.3536    0.5775   -4.3549 C   0  0  1  0  0  0  0  0  0  0  0  0
  -11.3183    0.9490   -3.3625 O   0  0  0  0  0  0  0  0  0  0  0  0
   -9.8792    1.7967   -5.1154 C   0  0  0  0  0  0  0  0  0  0  0  0
   -8.3670    1.6613   -5.2184 C   0  0  2  0  0  0  0  0  0  0  0  0
   -7.3640   -2.1214   -8.7223 N   0  0  0  0  0  0  0  0  0  0  0  0
   -7.7413   -2.2198   -7.4192 C   0  0  1  0  0  0  0  0  0  0  0  0
   -7.9018   -3.4478   -6.8712 N   0  0  0  0  0  0  0  0  0  0  0  0
   -7.9564   -1.1152   -6.6539 N   0  0  0  0  0  0  0  0  0  0  0  0
   -7.8070    0.1412   -7.1545 C   0  0  2  0  0  0  0  0  0  0  0  0
   -7.4240    0.3026   -8.4738 C   0  0  1  0  0  0  0  0  0  0  0  0
   -7.1943   -0.9109   -9.2986 C   0  0  0  0  0  0  0  0  0  0  0  0
   -6.8523   -0.8166  -10.4986 O   0  0  0  0  0  0  0  0  0  0  0  0
   -7.3537    1.6219   -8.7222 N   0  0  0  0  0  0  0  0  0  0  0  0
   -7.6801    2.2684   -7.5786 C   0  0  0  0  0  0  0  0  0  0  0  0
   -7.9558    1.3632   -6.6221 N   0  0  1  0  0  0  0  0  0  0  0  0
  1  2  1  0  0  0  0
  3  1  1  6  0  0  0
  3  4  1  0  0  0  0
  3  5  1  0  0  0  0
  5  6  1  1  0  0  0
  5  7  1  0  0  0  0
  7  8  1  0  0  0  0
  8  4  1  1  0  0  0
  8 19  1  0  0  0  0
  9 15  1  0  0  0  0
  9 10  1  0  0  0  0
 10 11  1  1  0  0  0
 10 12  1  0  0  0  0
 13 12  1  1  0  0  0
 13 14  1  0  0  0  0
 13 19  1  0  0  0  0
 14 15  1  6  0  0  0
 14 17  1  0  0  0  0
 15 16  2  0  0  0  0
 17 18  1  0  0  0  0
 19 18  1  6  0  0  0
M  END
>  <CHROM.1>
175.74895822,27.66475346,-8.43677138,-0.18067176,-6.30632940,3.11480104,1.09520310
-0.10138151

>  <Name>
ligand

>  <RI>
0

>  <Rbt.Current_Directory>
/home/itssahil/PROJECTS/Mol_Feturizer/New_Systems/rnas/3SKI

>  <Rbt.Executable>
rbdock ($Id: //depot/dev/client3/rdock/2013.1/src/exe/rbdock.cxx#4 $)

>  <Rbt.Library>
libRbt.so (2013.1, Build901 2013/11/27)

>  <Rbt.Parameter_File>
/export/apps/rDock/src/rDock_2013.1_src/data/scripts/dock_solv.prm

>  <Rbt.Receptor>
prm/blind_docking_100.prm

>  <SCORE>
-16.0148

>  <SCORE.INTER>
-12.9857

>  <SCORE.INTER.CONST>
1

>  <SCORE.INTER.POLAR>
0

>  <SCORE.INTER.ROT>
2

>  <SCORE.INTER.SOLV>
7.41648

>  <SCORE.INTER.VDW>
-16.0626

>  <SCORE.INTER.norm>
-0.683455

>  <SCORE.INTRA>
-3.02911

>  <SCORE.INTRA.DIHEDRAL>
-5.02054

>  <SCORE.INTRA.DIHEDRAL.0>
6.26853

>  <SCORE.INTRA.POLAR>
0

>  <SCORE.INTRA.POLAR.0>
0

>  <SCORE.INTRA.REPUL>
0

>  <SCORE.INTRA.REPUL.0>
0

>  <SCORE.INTRA.SOLV>
1.1862

>  <SCORE.INTRA.SOLV.lig_0>
-38.4926

>  <SCORE.INTRA.VDW>
-1.11194

>  <SCORE.INTRA.VDW.0>
-0.59057

>  <SCORE.INTRA.norm>
-0.159427

>  <SCORE.RESTR>
0

>  <SCORE.RESTR.CAVITY>
0

>  <SCORE.RESTR.norm>
0

>  <SCORE.SYSTEM>
0

>  <SCORE.SYSTEM.CONST>
0

>  <SCORE.SYSTEM.DIHEDRAL>
0

>  <SCORE.SYSTEM.SOLV>
0

>  <SCORE.SYSTEM.norm>
0

>  <SCORE.heavy>
19

>  <SCORE.norm>
-0.842882

>  <RMSD>
17.604

$$$$
ligand
 OpenBabel11021811483D
libRbt.so/2013.1/901 2013/11/27
 19 21  0  0  0  0  0  0  0  0999 V2000
   -9.0382   -1.6174   -4.0185 C   0  0  0  0  0  0  0  0  0  0  0  0
  -10.1531   -2.2458   -3.3688 O   0  0  0  0  0  0  0  0  0  0  0  0
   -9.0900   -0.1011   -3.8187 C   0  0  1  0  0  0  0  0  0  0  0  0
   -7.9556    0.5337   -4.4394 O   0  0  0  0  0  0  0  0  0  0  0  0
  -10.3365    0.4910   -4.4526 C   0  0  1  0  0  0  0  0  0  0  0  0
  -11.3147    0.8218   -3.4590 O   0  0  0  0  0  0  0  0  0  0  0  0
   -9.8768    1.7363   -5.1791 C   0  0  0  0  0  0  0  0  0  0  0  0
   -8.3619    1.6286   -5.2735 C   0  0  2  0  0  0  0  0  0  0  0  0
   -7.1934   -2.0481   -8.8385 N   0  0  0  0  0  0  0  0  0  0  0  0
   -7.5693   -2.1846   -7.5384 C   0  0  1  0  0  0  0  0  0  0  0  0
   -7.6797   -3.4275   -7.0120 N   0  0  0  0  0  0  0  0  0  0  0  0
   -7.8322   -1.1033   -6.7550 N   0  0  0  0  0  0  0  0  0  0  0  0
   -7.7342    0.1667   -7.2336 C   0  0  2  0  0  0  0  0  0  0  0  0
   -7.3552    0.3666   -8.5487 C   0  0  1  0  0  0  0  0  0  0  0  0
   -7.0731   -0.8219   -9.3934 C   0  0  0  0  0  0  0  0  0  0  0  0
   -6.7324   -0.6927  -10.5906 O   0  0  0  0  0  0  0  0  0  0  0  0
   -7.3395    1.6918   -8.7743 N   0  0  0  0  0  0  0  0  0  0  0  0
   -7.6953    2.3044   -7.6208 C   0  0  0  0  0  0  0  0  0  0  0  0
   -7.9352    1.3721   -6.6808 N   0  0  1  0  0  0  0  0  0  0  0  0
  1  2  1  0  0  0  0
  3  1  1  6  0  0  0
  3  4  1  0  0  0  0
  3  5  1  0  0  0  0
  5  6  1  1  0  0  0
  5  7  1  0  0  0  0
  7  8  1  0  0  0  0
  8  4  1  1  0  0  0
  8 19  1  0  0  0  0
  9 15  1  0  0  0  0
  9 10  1  0  0  0  0
 10 11  1  1  0  0  0
 10 12  1  0  0  0  0
 13 12  1  1  0  0  0
 13 14  1  0  0  0  0
 13 19  1  0  0  0  0
 14 15  1  6  0  0  0
 14 17  1  0  0  0  0
 15 16  2  0  0  0  0
 17 18  1  0  0  0  0
 19 18  1  6  0  0  0
M  END
>  <CHROM.1>
178.54245488,26.13791291,-8.37330399,-0.18623028,-6.40371350,-3.10855589
1.07614028,-0.14127072

>  <Name>
ligand

>  <RI>
0

>  <Rbt.Current_Directory>
/home/itssahil/PROJECTS/Mol_Feturizer/New_Systems/rnas/3SKI

>  <Rbt.Executable>
rbdock ($Id: //depot/dev/client3/rdock/2013.1/src/exe/rbdock.cxx#4 $)

>  <Rbt.Library>
libRbt.so (2013.1, Build901 2013/11/27)

>  <Rbt.Parameter_File>
/export/apps/rDock/src/rDock_2013.1_src/data/scripts/dock_solv.prm

>  <Rbt.Receptor>
prm/blind_docking_60.prm

>  <SCORE>
-15.8905

>  <SCORE.INTER>
-12.8859

>  <SCORE.INTER.CONST>
1

>  <SCORE.INTER.POLAR>
0

>  <SCORE.INTER.ROT>
2

>  <SCORE.INTER.SOLV>
6.59177

>  <SCORE.INTER.VDW>
-15.7212

>  <SCORE.INTER.norm>
-0.678204

>  <SCORE.INTRA>
-3.00465

>  <SCORE.INTRA.DIHEDRAL>
-5.07667

>  <SCORE.INTRA.DIHEDRAL.0>
6.26853

>  <SCORE.INTRA.POLAR>
0

>  <SCORE.INTRA.POLAR.0>
0

>  <SCORE.INTRA.REPUL>
0

>  <SCORE.INTRA.REPUL.0>
0

>  <SCORE.INTRA.SOLV>
1.18645

>  <SCORE.INTRA.SOLV.lig_0>
-38.4926

>  <SCORE.INTRA.VDW>
-1.05954

>  <SCORE.INTRA.VDW.0>
-0.59057

>  <SCORE.INTRA.norm>
-0.15814

>  <SCORE.RESTR>
0

>  <SCORE.RESTR.CAVITY>
0

>  <SCORE.RESTR.norm>
0

>  <SCORE.SYSTEM>
0

>  <SCORE.SYSTEM.CONST>
0

>  <SCORE.SYSTEM.DIHEDRAL>
0

>  <SCORE.SYSTEM.SOLV>
0

>  <SCORE.SYSTEM.norm>
0

>  <SCORE.heavy>
19

>  <SCORE.norm>
-0.836344

>  <RMSD>
17.676

$$$$
ligand
 OpenBabel11021811483D
libRbt.so/2013.1/901 2013/11/27
 19 21  0  0  0  0  0  0  0  0999 V2000
   -9.0197   -1.6016   -3.9698 C   0  0  0  0  0  0  0  0  0  0  0  0
  -10.0827   -2.2268   -3.2354 O   0  0  0  0  0  0  0  0  0  0  0  0
   -9.0701   -0.0825   -3.7917 C   0  0  1  0  0  0  0  0  0  0  0  0
   -7.9444    0.5436   -4.4363 O   0  0  0  0  0  0  0  0  0  0  0  0
  -10.3252    0.4994   -4.4180 C   0  0  1  0  0  0  0  0  0  0  0  0
  -11.2906    0.8443   -3.4167 O   0  0  0  0  0  0  0  0  0  0  0  0
   -9.8760    1.7342   -5.1686 C   0  0  0  0  0  0  0  0  0  0  0  0
   -8.3623    1.6259   -5.2811 C   0  0  2  0  0  0  0  0  0  0  0  0
   -7.4467   -2.1015   -8.8674 N   0  0  0  0  0  0  0  0  0  0  0  0
   -7.8314   -2.2194   -7.5680 C   0  0  1  0  0  0  0  0  0  0  0  0
   -8.0266   -3.4548   -7.0488 N   0  0  0  0  0  0  0  0  0  0  0  0
   -8.0200   -1.1272   -6.7784 N   0  0  0  0  0  0  0  0  0  0  0  0
   -7.8354    0.1359   -7.2497 C   0  0  2  0  0  0  0  0  0  0  0  0
   -7.4432    0.3170   -8.5637 C   0  0  1  0  0  0  0  0  0  0  0  0
   -7.2427   -0.8831   -9.4152 C   0  0  0  0  0  0  0  0  0  0  0  0
   -6.8938   -0.7706  -10.6117 O   0  0  0  0  0  0  0  0  0  0  0  0
   -7.3370    1.6393   -8.7816 N   0  0  0  0  0  0  0  0  0  0  0  0
   -7.6504    2.2681   -7.6246 C   0  0  0  0  0  0  0  0  0  0  0  0
   -7.9537    1.3490   -6.6899 N   0  0  1  0  0  0  0  0  0  0  0  0
  1  2  1  0  0  0  0
  3  1  1  6  0  0  0
  3  4  1  0  0  0  0
  3  5  1  0  0  0  0
  5  6  1  1  0  0  0
  5  7  1  0  0  0  0
  7  8  1  0  0  0  0
  8  4  1  1  0  0  0
  8 19  1  0  0  0  0
  9 15  1  0  0  0  0
  9 10  1  0  0  0  0
 10 11  1  1  0  0  0
 10 12  1  0  0  0  0
 13 12  1  1  0  0  0
 13 14  1  0  0  0  0
 13 19  1  0  0  0  0
 14 15  1  6  0  0  0
 14 17  1  0  0  0  0
 15 16  2  0  0  0  0
 17 18  1  0  0  0  0
 19 18  1  6  0  0  0
M  END
>  <CHROM.1>
175.35140877,30.32978131,-8.44374441,-0.20534116,-6.39781266,3.08877819,1.11105497
-0.04774717

>  <Name>
ligand

>  <RI>
0

>  <Rbt.Current_Directory>
/home/itssahil/PROJECTS/Mol_Feturizer/New_Systems/rnas/3SKI

>  <Rbt.Executable>
rbdock ($Id: //depot/dev/client3/rdock/2013.1/src/exe/rbdock.cxx#4 $)

>  <Rbt.Library>
libRbt.so (2013.1, Build901 2013/11/27)

>  <Rbt.Parameter_File>
/export/apps/rDock/src/rDock_2013.1_src/data/scripts/dock_solv.prm

>  <Rbt.Receptor>
prm/blind_docking_100.prm

>  <SCORE>
-15.8928

>  <SCORE.INTER>
-12.8458

>  <SCORE.INTER.CONST>
1

>  <SCORE.INTER.POLAR>
0

>  <SCORE.INTER.ROT>
2

>  <SCORE.INTER.SOLV>
7.84457

>  <SCORE.INTER.VDW>
-16.1121

>  <SCORE.INTER.norm>
-0.676097

>  <SCORE.INTRA>
-3.04695

>  <SCORE.INTRA.DIHEDRAL>
-5.00818

>  <SCORE.INTRA.DIHEDRAL.0>
6.26853

>  <SCORE.INTRA.POLAR>
0

>  <SCORE.INTRA.POLAR.0>
0

>  <SCORE.INTRA.REPUL>
0

>  <SCORE.INTRA.REPUL.0>
0

>  <SCORE.INTRA.SOLV>
1.19926

>  <SCORE.INTRA.SOLV.lig_0>
-38.4926

>  <SCORE.INTRA.VDW>
-1.14249

>  <SCORE.INTRA.VDW.0>
-0.59057

>  <SCORE.INTRA.norm>
-0.160366

>  <SCORE.RESTR>
0

>  <SCORE.RESTR.CAVITY>
0

>  <SCORE.RESTR.norm>
0

>  <SCORE.SYSTEM>
0

>  <SCORE.SYSTEM.CONST>
0

>  <SCORE.SYSTEM.DIHEDRAL>
0

>  <SCORE.SYSTEM.SOLV>
0

>  <SCORE.SYSTEM.norm>
0

>  <SCORE.heavy>
19

>  <SCORE.norm>
-0.836463

>  <RMSD>
17.682

$$$$
ligand
 OpenBabel11021811483D
libRbt.so/2013.1/901 2013/11/27
 19 21  0  0  0  0  0  0  0  0999 V2000
   -9.6386   -1.7793   -4.4487 C   0  0  0  0  0  0  0  0  0  0  0  0
   -8.6406   -2.6014   -3.8254 O   0  0  0  0  0  0  0  0  0  0  0  0
   -9.4363   -0.3118   -4.0647 C   0  0  1  0  0  0  0  0  0  0  0  0
   -8.1943    0.1875   -4.5969 O   0  0  0  0  0  0  0  0  0  0  0  0
  -10.5464    0.5580   -4.6278 C   0  0  1  0  0  0  0  0  0  0  0  0
  -11.4796    0.9311   -3.6062 O   0  0  0  0  0  0  0  0  0  0  0  0
   -9.8622    1.7834   -5.1937 C   0  0  0  0  0  0  0  0  0  0  0  0
   -8.3859    1.4280   -5.2925 C   0  0  2  0  0  0  0  0  0  0  0  0
   -7.7373   -1.9463   -9.2657 N   0  0  0  0  0  0  0  0  0  0  0  0
   -8.1612   -2.1713   -7.9930 C   0  0  1  0  0  0  0  0  0  0  0  0
   -8.4821   -3.4328   -7.6194 N   0  0  0  0  0  0  0  0  0  0  0  0
   -8.2659   -1.1610   -7.0873 N   0  0  0  0  0  0  0  0  0  0  0  0
   -7.9541    0.1235   -7.4103 C   0  0  2  0  0  0  0  0  0  0  0  0
   -7.5166    0.4120   -8.6904 C   0  0  1  0  0  0  0  0  0  0  0  0
   -7.4086   -0.6993   -9.6697 C   0  0  0  0  0  0  0  0  0  0  0  0
   -7.0232   -0.4877  -10.8413 O   0  0  0  0  0  0  0  0  0  0  0  0
   -7.2832    1.7343   -8.7560 N   0  0  0  0  0  0  0  0  0  0  0  0
   -7.5636    2.2571   -7.5393 C   0  0  0  0  0  0  0  0  0  0  0  0
   -7.9723    1.2724   -6.7184 N   0  0  1  0  0  0  0  0  0  0  0  0
  1  2  1  0  0  0  0
  3  1  1  6  0  0  0
  3  4  1  0  0  0  0
  3  5  1  0  0  0  0
  5  6  1  1  0  0  0
  5  7  1  0  0  0  0
  7  8  1  0  0  0  0
  8  4  1  1  0  0  0
  8 19  1  0  0  0  0
  9 15  1  0  0  0  0
  9 10  1  0  0  0  0
 10 11  1  1  0  0  0
 10 12  1  0  0  0  0
 13 12  1  1  0  0  0
 13 14  1  0  0  0  0
 13 19  1  0  0  0  0
 14 15  1  6  0  0  0
 14 17  1  0  0  0  0
 15 16  2  0  0  0  0
 17 18  1  0  0  0  0
 19 18  1  6  0  0  0
M  END
>  <CHROM.1>
65.48819820,25.50551463,-8.53211987,-0.23010115,-6.63037289,3.05341804,1.13288244
-0.01290148

>  <Name>
ligand

>  <RI>
0

>  <Rbt.Current_Directory>
/home/itssahil/PROJECTS/Mol_Feturizer/New_Systems/rnas/3SKI

>  <Rbt.Executable>
rbdock ($Id: //depot/dev/client3/rdock/2013.1/src/exe/rbdock.cxx#4 $)

>  <Rbt.Library>
libRbt.so (2013.1, Build901 2013/11/27)

>  <Rbt.Parameter_File>
/export/apps/rDock/src/rDock_2013.1_src/data/scripts/dock_solv.prm

>  <Rbt.Receptor>
prm/blind_docking_100.prm

>  <SCORE>
-15.4524

>  <SCORE.INTER>
-12.4655

>  <SCORE.INTER.CONST>
1

>  <SCORE.INTER.POLAR>
0

>  <SCORE.INTER.ROT>
2

>  <SCORE.INTER.SOLV>
9.30187

>  <SCORE.INTER.VDW>
-16.3443

>  <SCORE.INTER.norm>
-0.656078

>  <SCORE.INTRA>
-2.98694

>  <SCORE.INTRA.DIHEDRAL>
-4.97361

>  <SCORE.INTRA.DIHEDRAL.0>
6.26853

>  <SCORE.INTRA.POLAR>
0

>  <SCORE.INTRA.POLAR.0>
0

>  <SCORE.INTRA.REPUL>
0

>  <SCORE.INTRA.REPUL.0>
0

>  <SCORE.INTRA.SOLV>
1.47874

>  <SCORE.INTRA.SOLV.lig_0>
-38.4926

>  <SCORE.INTRA.VDW>
-1.2395

>  <SCORE.INTRA.VDW.0>
-0.59057

>  <SCORE.INTRA.norm>
-0.157207

>  <SCORE.RESTR>
0

>  <SCORE.RESTR.CAVITY>
0

>  <SCORE.RESTR.norm>
0

>  <SCORE.SYSTEM>
0

>  <SCORE.SYSTEM.CONST>
0

>  <SCORE.SYSTEM.DIHEDRAL>
0

>  <SCORE.SYSTEM.SOLV>
0

>  <SCORE.SYSTEM.norm>
0

>  <SCORE.heavy>
19

>  <SCORE.norm>
-0.813285

>  <RMSD>
17.890

$$$$
ligand
 OpenBabel11021811483D
libRbt.so/2013.1/901 2013/11/27
 19 21  0  0  0  0  0  0  0  0999 V2000
   -9.6418   -1.8501   -4.6293 C   0  0  0  0  0  0  0  0  0  0  0  0
   -8.6489   -2.7079   -4.0473 O   0  0  0  0  0  0  0  0  0  0  0  0
   -9.4156   -0.4006   -4.1937 C   0  0  1  0  0  0  0  0  0  0  0  0
   -8.1632    0.0953   -4.7041 O   0  0  0  0  0  0  0  0  0  0  0  0
  -10.5084    0.5075   -4.7295 C   0  0  1  0  0  0  0  0  0  0  0  0
  -11.4388    0.8609   -3.6985 O   0  0  0  0  0  0  0  0  0  0  0  0
   -9.8010    1.7398   -5.2501 C   0  0  0  0  0  0  0  0  0  0  0  0
   -8.3307    1.3625   -5.3567 C   0  0  2  0  0  0  0  0  0  0  0  0
   -7.3725   -1.9291   -9.3367 N   0  0  0  0  0  0  0  0  0  0  0  0
   -7.7614   -2.1959   -8.0609 C   0  0  1  0  0  0  0  0  0  0  0  0
   -7.9491   -3.4834   -7.6855 N   0  0  0  0  0  0  0  0  0  0  0  0
   -7.9615   -1.2012   -7.1538 N   0  0  0  0  0  0  0  0  0  0  0  0
   -7.7847    0.1083   -7.4785 C   0  0  2  0  0  0  0  0  0  0  0  0
   -7.3888    0.4395   -8.7617 C   0  0  1  0  0  0  0  0  0  0  0  0
   -7.1758   -0.6552   -9.7424 C   0  0  0  0  0  0  0  0  0  0  0  0
   -6.8230   -0.4057  -10.9169 O   0  0  0  0  0  0  0  0  0  0  0  0
   -7.2918    1.7787   -8.8283 N   0  0  0  0  0  0  0  0  0  0  0  0
   -7.6146    2.2705   -7.6092 C   0  0  0  0  0  0  0  0  0  0  0  0
   -7.9145    1.2495   -6.7858 N   0  0  1  0  0  0  0  0  0  0  0  0
  1  2  1  0  0  0  0
  3  1  1  6  0  0  0
  3  4  1  0  0  0  0
  3  5  1  0  0  0  0
  5  6  1  1  0  0  0
  5  7  1  0  0  0  0
  7  8  1  0  0  0  0
  8  4  1  1  0  0  0
  8 19  1  0  0  0  0
  9 15  1  0  0  0  0
  9 10  1  0  0  0  0
 10 11  1  1  0  0  0
 10 12  1  0  0  0  0
 13 12  1  1  0  0  0
 13 14  1  0  0  0  0
 13 19  1  0  0  0  0
 14 15  1  6  0  0  0
 14 17  1  0  0  0  0
 15 16  2  0  0  0  0
 17 18  1  0  0  0  0
 19 18  1  6  0  0  0
M  END
>  <CHROM.1>
64.66136012,18.35227905,-8.39962775,-0.25861907,-6.72274446,-3.11075758,1.09557395
-0.14128684

>  <Name>
ligand

>  <RI>
0

>  <Rbt.Current_Directory>
/home/itssahil/PROJECTS/Mol_Feturizer/New_Systems/rnas/3SKI

>  <Rbt.Executable>
rbdock ($Id: //depot/dev/client3/rdock/2013.1/src/exe/rbdock.cxx#4 $)

>  <Rbt.Library>
libRbt.so (2013.1, Build901 2013/11/27)

>  <Rbt.Parameter_File>
/export/apps/rDock/src/rDock_2013.1_src/data/scripts/dock_solv.prm

>  <Rbt.Receptor>
prm/blind_docking_100.prm

>  <SCORE>
-15.4384

>  <SCORE.INTER>
-12.501

>  <SCORE.INTER.CONST>
1

>  <SCORE.INTER.POLAR>
0

>  <SCORE.INTER.ROT>
2

>  <SCORE.INTER.SOLV>
7.19642

>  <SCORE.INTER.VDW>
-15.6662

>  <SCORE.INTER.norm>
-0.657949

>  <SCORE.INTRA>
-2.93733

>  <SCORE.INTRA.DIHEDRAL>
-5.00093

>  <SCORE.INTRA.DIHEDRAL.0>
6.26853

>  <SCORE.INTRA.POLAR>
0

>  <SCORE.INTRA.POLAR.0>
0

>  <SCORE.INTRA.REPUL>
0

>  <SCORE.INTRA.REPUL.0>
0

>  <SCORE.INTRA.SOLV>
1.49065

>  <SCORE.INTRA.SOLV.lig_0>
-38.4926

>  <SCORE.INTRA.VDW>
-1.18219

>  <SCORE.INTRA.VDW.0>
-0.59057

>  <SCORE.INTRA.norm>
-0.154596

>  <SCORE.RESTR>
0

>  <SCORE.RESTR.CAVITY>
0

>  <SCORE.RESTR.norm>
0

>  <SCORE.SYSTEM>
0

>  <SCORE.SYSTEM.CONST>
0

>  <SCORE.SYSTEM.DIHEDRAL>
0

>  <SCORE.SYSTEM.SOLV>
0

>  <SCORE.SYSTEM.norm>
0

>  <SCORE.heavy>
19

>  <SCORE.norm>
-0.812546

>  <RMSD>
17.950

$$$$
ligand
 OpenBabel11021811483D
libRbt.so/2013.1/901 2013/11/27
 19 21  0  0  0  0  0  0  0  0999 V2000
   -9.6339   -1.8581   -4.5962 C   0  0  0  0  0  0  0  0  0  0  0  0
   -8.6124   -2.6912   -4.0280 O   0  0  0  0  0  0  0  0  0  0  0  0
   -9.4268   -0.4007   -4.1782 C   0  0  1  0  0  0  0  0  0  0  0  0
   -8.1796    0.1045   -4.6923 O   0  0  0  0  0  0  0  0  0  0  0  0
  -10.5297    0.4869   -4.7275 C   0  0  1  0  0  0  0  0  0  0  0  0
  -11.4667    0.8415   -3.7029 O   0  0  0  0  0  0  0  0  0  0  0  0
   -9.8366    1.7214   -5.2621 C   0  0  0  0  0  0  0  0  0  0  0  0
   -8.3615    1.3613   -5.3609 C   0  0  2  0  0  0  0  0  0  0  0  0
   -7.5129   -1.9545   -9.3457 N   0  0  0  0  0  0  0  0  0  0  0  0
   -7.9208   -2.2090   -8.0733 C   0  0  1  0  0  0  0  0  0  0  0  0
   -8.1637   -3.4890   -7.7035 N   0  0  0  0  0  0  0  0  0  0  0  0
   -8.0859   -1.2099   -7.1642 N   0  0  0  0  0  0  0  0  0  0  0  0
   -7.8534    0.0923   -7.4834 C   0  0  2  0  0  0  0  0  0  0  0  0
   -7.4357    0.4110   -8.7629 C   0  0  1  0  0  0  0  0  0  0  0  0
   -7.2613   -0.6885   -9.7459 C   0  0  0  0  0  0  0  0  0  0  0  0
   -6.8908   -0.4501  -10.9172 O   0  0  0  0  0  0  0  0  0  0  0  0
   -7.2834    1.7453   -8.8244 N   0  0  0  0  0  0  0  0  0  0  0  0
   -7.5938    2.2461   -7.6057 C   0  0  0  0  0  0  0  0  0  0  0  0
   -7.9408    1.2357   -6.7877 N   0  0  1  0  0  0  0  0  0  0  0  0
  1  2  1  0  0  0  0
  3  1  1  6  0  0  0
  3  4  1  0  0  0  0
  3  5  1  0  0  0  0
  5  6  1  1  0  0  0
  5  7  1  0  0  0  0
  7  8  1  0  0  0  0
  8  4  1  1  0  0  0
  8 19  1  0  0  0  0
  9 15  1  0  0  0  0
  9 10  1  0  0  0  0
 10 11  1  1  0  0  0
 10 12  1  0  0  0  0
 13 12  1  1  0  0  0
 13 14  1  0  0  0  0
 13 19  1  0  0  0  0
 14 15  1  6  0  0  0
 14 17  1  0  0  0  0
 15 16  2  0  0  0  0
 17 18  1  0  0  0  0
 19 18  1  6  0  0  0
M  END
>  <CHROM.1>
63.25007324,21.56146080,-8.45121424,-0.27341443,-6.72209357,3.13119699,1.10914775
-0.09409725

>  <Name>
ligand

>  <RI>
0

>  <Rbt.Current_Directory>
/home/itssahil/PROJECTS/Mol_Feturizer/New_Systems/rnas/3SKI

>  <Rbt.Executable>
rbdock ($Id: //depot/dev/client3/rdock/2013.1/src/exe/rbdock.cxx#4 $)

>  <Rbt.Library>
libRbt.so (2013.1, Build901 2013/11/27)

>  <Rbt.Parameter_File>
/export/apps/rDock/src/rDock_2013.1_src/data/scripts/dock_solv.prm

>  <Rbt.Receptor>
prm/blind_docking_60.prm

>  <SCORE>
-15.463

>  <SCORE.INTER>
-12.5019

>  <SCORE.INTER.CONST>
1

>  <SCORE.INTER.POLAR>
0

>  <SCORE.INTER.ROT>
2

>  <SCORE.INTER.SOLV>
8.00132

>  <SCORE.INTER.VDW>
-15.935

>  <SCORE.INTER.norm>
-0.657993

>  <SCORE.INTRA>
-2.96112

>  <SCORE.INTRA.DIHEDRAL>
-5.0431

>  <SCORE.INTRA.DIHEDRAL.0>
6.26853

>  <SCORE.INTRA.POLAR>
0

>  <SCORE.INTRA.POLAR.0>
0

>  <SCORE.INTRA.REPUL>
0

>  <SCORE.INTRA.REPUL.0>
0

>  <SCORE.INTRA.SOLV>
1.55541

>  <SCORE.INTRA.SOLV.lig_0>
-38.4926

>  <SCORE.INTRA.VDW>
-1.21727

>  <SCORE.INTRA.VDW.0>
-0.59057

>  <SCORE.INTRA.norm>
-0.155848

>  <SCORE.RESTR>
0

>  <SCORE.RESTR.CAVITY>
0

>  <SCORE.RESTR.norm>
0

>  <SCORE.SYSTEM>
0

>  <SCORE.SYSTEM.CONST>
0

>  <SCORE.SYSTEM.DIHEDRAL>
0

>  <SCORE.SYSTEM.SOLV>
0

>  <SCORE.SYSTEM.norm>
0

>  <SCORE.heavy>
19

>  <SCORE.norm>
-0.813842

>  <RMSD>
17.953

$$$$
ligand
 OpenBabel11021811483D
libRbt.so/2013.1/901 2013/11/27
 19 21  0  0  0  0  0  0  0  0999 V2000
   -9.0801    1.9606   -4.0879 C   0  0  0  0  0  0  0  0  0  0  0  0
   -9.2045    2.9827   -3.0879 O   0  0  0  0  0  0  0  0  0  0  0  0
   -7.7078    1.2895   -3.9966 C   0  0  1  0  0  0  0  0  0  0  0  0
   -7.5879    0.2398   -4.9757 O   0  0  0  0  0  0  0  0  0  0  0  0
   -6.5939    2.2850   -4.2688 C   0  0  1  0  0  0  0  0  0  0  0  0
   -5.9381    2.6721   -3.0548 O   0  0  0  0  0  0  0  0  0  0  0  0
   -5.6257    1.5771   -5.1916 C   0  0  0  0  0  0  0  0  0  0  0  0
   -6.3727    0.3651   -5.7289 C   0  0  2  0  0  0  0  0  0  0  0  0
   -6.1730   -1.8214  -10.5009 N   0  0  0  0  0  0  0  0  0  0  0  0
   -5.7436   -2.3037   -9.3038 C   0  0  1  0  0  0  0  0  0  0  0  0
   -5.1648   -3.5271   -9.2564 N   0  0  0  0  0  0  0  0  0  0  0  0
   -5.8779   -1.5850   -8.1560 N   0  0  0  0  0  0  0  0  0  0  0  0
   -6.4498   -0.3504   -8.1487 C   0  0  2  0  0  0  0  0  0  0  0  0
   -6.9045    0.1916   -9.3373 C   0  0  1  0  0  0  0  0  0  0  0  0
   -6.7537   -0.6039  -10.5823 C   0  0  0  0  0  0  0  0  0  0  0  0
   -7.1546   -0.1591  -11.6812 O   0  0  0  0  0  0  0  0  0  0  0  0
   -7.4257    1.4003   -9.0642 N   0  0  0  0  0  0  0  0  0  0  0  0
   -7.2920    1.6091   -7.7335 C   0  0  0  0  0  0  0  0  0  0  0  0
   -6.6953    0.5398   -7.1759 N   0  0  1  0  0  0  0  0  0  0  0  0
  1  2  1  0  0  0  0
  3  1  1  6  0  0  0
  3  4  1  0  0  0  0
  3  5  1  0  0  0  0
  5  6  1  1  0  0  0
  5  7  1  0  0  0  0
  7  8  1  0  0  0  0
  8  4  1  1  0  0  0
  8 19  1  0  0  0  0
  9 15  1  0  0  0  0
  9 10  1  0  0  0  0
 10 11  1  6  0  0  0
 10 12  1  0  0  0  0
 13 12  1  6  0  0  0
 13 14  1  0  0  0  0
 13 19  1  0  0  0  0
 14 15  1  1  0  0  0
 14 17  1  0  0  0  0
 15 16  2  0  0  0  0
 17 18  1  0  0  0  0
 19 18  1  1  0  0  0
M  END
>  <CHROM.1>
178.57103687,-111.59039706,-6.85532989,0.40288834,-7.03430907,1.85975223
-0.90674807,1.29204119

>  <Name>
ligand

>  <RI>
0

>  <Rbt.Current_Directory>
/home/itssahil/PROJECTS/Mol_Feturizer/New_Systems/rnas/3SKI

>  <Rbt.Executable>
rbdock ($Id: //depot/dev/client3/rdock/2013.1/src/exe/rbdock.cxx#4 $)

>  <Rbt.Library>
libRbt.so (2013.1, Build901 2013/11/27)

>  <Rbt.Parameter_File>
/export/apps/rDock/src/rDock_2013.1_src/data/scripts/dock_solv.prm

>  <Rbt.Receptor>
prm/blind_docking_40.prm

>  <SCORE>
-14.0348

>  <SCORE.INTER>
-11.1597

>  <SCORE.INTER.CONST>
1

>  <SCORE.INTER.POLAR>
0

>  <SCORE.INTER.ROT>
2

>  <SCORE.INTER.SOLV>
7.18614

>  <SCORE.INTER.VDW>
-14.7685

>  <SCORE.INTER.norm>
-0.587353

>  <SCORE.INTRA>
-2.87507

>  <SCORE.INTRA.DIHEDRAL>
-5.06643

>  <SCORE.INTRA.DIHEDRAL.0>
6.26853

>  <SCORE.INTRA.POLAR>
0

>  <SCORE.INTRA.POLAR.0>
0

>  <SCORE.INTRA.REPUL>
0

>  <SCORE.INTRA.REPUL.0>
0

>  <SCORE.INTRA.SOLV>
-0.014627

>  <SCORE.INTRA.SOLV.lig_0>
-38.4926

>  <SCORE.INTRA.VDW>
-0.334544

>  <SCORE.INTRA.VDW.0>
-0.59057

>  <SCORE.INTRA.norm>
-0.15132

>  <SCORE.RESTR>
0

>  <SCORE.RESTR.CAVITY>
0

>  <SCORE.RESTR.norm>
0

>  <SCORE.SYSTEM>
0

>  <SCORE.SYSTEM.CONST>
0

>  <SCORE.SYSTEM.DIHEDRAL>
0

>  <SCORE.SYSTEM.SOLV>
0

>  <SCORE.SYSTEM.norm>
0

>  <SCORE.heavy>
19

>  <SCORE.norm>
-0.738673

>  <RMSD>
18.562

$$$$
ligand
 OpenBabel11021811483D
libRbt.so/2013.1/901 2013/11/27
 19 21  0  0  0  0  0  0  0  0999 V2000
   -7.7410   -2.7062  -10.8919 C   0  0  0  0  0  0  0  0  0  0  0  0
   -8.7807   -2.4782  -11.8548 O   0  0  0  0  0  0  0  0  0  0  0  0
   -6.5968   -1.7110  -11.0969 C   0  0  1  0  0  0  0  0  0  0  0  0
   -7.0502   -0.3613  -10.8786 O   0  0  0  0  0  0  0  0  0  0  0  0
   -5.4670   -1.9680  -10.1152 C   0  0  1  0  0  0  0  0  0  0  0  0
   -4.3618   -2.6163  -10.7569 O   0  0  0  0  0  0  0  0  0  0  0  0
   -5.0549   -0.6074   -9.5967 C   0  0  0  0  0  0  0  0  0  0  0  0
   -6.1788    0.3434   -9.9820 C   0  0  2  0  0  0  0  0  0  0  0  0
   -8.5335   -1.2292   -5.5576 N   0  0  0  0  0  0  0  0  0  0  0  0
   -7.8850   -1.9585   -6.5052 C   0  0  1  0  0  0  0  0  0  0  0  0
   -7.7928   -3.3011   -6.3538 N   0  0  0  0  0  0  0  0  0  0  0  0
   -7.3317   -1.3719   -7.6015 N   0  0  0  0  0  0  0  0  0  0  0  0
   -7.3979   -0.0278   -7.8027 C   0  0  2  0  0  0  0  0  0  0  0  0
   -8.0459    0.7645   -6.8724 C   0  0  1  0  0  0  0  0  0  0  0  0
   -8.6436    0.1121   -5.6796 C   0  0  0  0  0  0  0  0  0  0  0  0
   -9.2350    0.7868   -4.8073 O   0  0  0  0  0  0  0  0  0  0  0  0
   -7.9681    2.0388   -7.2934 N   0  0  0  0  0  0  0  0  0  0  0  0
   -7.2909    2.0387   -8.4654 C   0  0  0  0  0  0  0  0  0  0  0  0
   -6.9441    0.7763   -8.7757 N   0  0  1  0  0  0  0  0  0  0  0  0
  1  2  1  0  0  0  0
  3  1  1  1  0  0  0
  3  4  1  0  0  0  0
  3  5  1  0  0  0  0
  5  6  1  6  0  0  0
  5  7  1  0  0  0  0
  7  8  1  0  0  0  0
  8  4  1  6  0  0  0
  8 19  1  0  0  0  0
  9 15  1  0  0  0  0
  9 10  1  0  0  0  0
 10 11  1  6  0  0  0
 10 12  1  0  0  0  0
 13 12  1  6  0  0  0
 13 14  1  0  0  0  0
 13 19  1  0  0  0  0
 14 15  1  1  0  0  0
 14 17  1  0  0  0  0
 15 16  2  0  0  0  0
 17 18  1  0  0  0  0
 19 18  1  1  0  0  0
M  END
>  <CHROM.1>
62.97066748,71.40431794,-7.27286147,-0.75303535,-8.53351042,0.52427571,-1.13827538
-2.96157149

>  <Name>
ligand

>  <RI>
0

>  <Rbt.Current_Directory>
/home/itssahil/PROJECTS/Mol_Feturizer/New_Systems/rnas/3SKI

>  <Rbt.Executable>
rbdock ($Id: //depot/dev/client3/rdock/2013.1/src/exe/rbdock.cxx#4 $)

>  <Rbt.Library>
libRbt.so (2013.1, Build901 2013/11/27)

>  <Rbt.Parameter_File>
/export/apps/rDock/src/rDock_2013.1_src/data/scripts/dock_solv.prm

>  <Rbt.Receptor>
prm/blind_docking_20.prm

>  <SCORE>
-13.2293

>  <SCORE.INTER>
-9.69399

>  <SCORE.INTER.CONST>
1

>  <SCORE.INTER.POLAR>
0

>  <SCORE.INTER.ROT>
2

>  <SCORE.INTER.SOLV>
7.34796

>  <SCORE.INTER.VDW>
-13.8453

>  <SCORE.INTER.norm>
-0.51021

>  <SCORE.INTRA>
-3.53535

>  <SCORE.INTRA.DIHEDRAL>
-5.02248

>  <SCORE.INTRA.DIHEDRAL.0>
6.26853

>  <SCORE.INTRA.POLAR>
0

>  <SCORE.INTRA.POLAR.0>
0

>  <SCORE.INTRA.REPUL>
0

>  <SCORE.INTRA.REPUL.0>
0

>  <SCORE.INTRA.SOLV>
-0.0491731

>  <SCORE.INTRA.SOLV.lig_0>
-38.4926

>  <SCORE.INTRA.VDW>
-0.999523

>  <SCORE.INTRA.VDW.0>
-0.59057

>  <SCORE.INTRA.norm>
-0.186071

>  <SCORE.RESTR>
0

>  <SCORE.RESTR.CAVITY>
0

>  <SCORE.RESTR.norm>
0

>  <SCORE.SYSTEM>
0

>  <SCORE.SYSTEM.CONST>
0

>  <SCORE.SYSTEM.DIHEDRAL>
0

>  <SCORE.SYSTEM.SOLV>
0

>  <SCORE.SYSTEM.norm>
0

>  <SCORE.heavy>
19

>  <SCORE.norm>
-0.696281

>  <RMSD>
19.567

$$$$
ligand
 OpenBabel11021811483D
libRbt.so/2013.1/901 2013/11/27
 19 21  0  0  0  0  0  0  0  0999 V2000
   -7.7172   -2.6778  -10.9539 C   0  0  0  0  0  0  0  0  0  0  0  0
   -8.7412   -2.4543  -11.9346 O   0  0  0  0  0  0  0  0  0  0  0  0
   -6.5728   -1.6792  -11.1409 C   0  0  1  0  0  0  0  0  0  0  0  0
   -7.0318   -0.3314  -10.9217 O   0  0  0  0  0  0  0  0  0  0  0  0
   -5.4541   -1.9383  -10.1472 C   0  0  1  0  0  0  0  0  0  0  0  0
   -4.3401   -2.5813  -10.7789 O   0  0  0  0  0  0  0  0  0  0  0  0
   -5.0511   -0.5792   -9.6177 C   0  0  0  0  0  0  0  0  0  0  0  0
   -6.1725    0.3710  -10.0118 C   0  0  2  0  0  0  0  0  0  0  0  0
   -8.6547   -1.2370   -5.6706 N   0  0  0  0  0  0  0  0  0  0  0  0
   -8.0033   -1.9616   -6.6198 C   0  0  1  0  0  0  0  0  0  0  0  0
   -7.9451   -3.3088   -6.4949 N   0  0  0  0  0  0  0  0  0  0  0  0
   -7.4139   -1.3656   -7.6920 N   0  0  0  0  0  0  0  0  0  0  0  0
   -7.4451   -0.0165   -7.8662 C   0  0  2  0  0  0  0  0  0  0  0  0
   -8.0943    0.7714   -6.9329 C   0  0  1  0  0  0  0  0  0  0  0  0
   -8.7316    0.1087   -5.7666 C   0  0  0  0  0  0  0  0  0  0  0  0
   -9.3256    0.7789   -4.8925 O   0  0  0  0  0  0  0  0  0  0  0  0
   -7.9785    2.0520   -7.3253 N   0  0  0  0  0  0  0  0  0  0  0  0
   -7.2771    2.0602   -8.4830 C   0  0  0  0  0  0  0  0  0  0  0  0
   -6.9528    0.7967   -8.8125 N   0  0  1  0  0  0  0  0  0  0  0  0
  1  2  1  0  0  0  0
  3  1  1  1  0  0  0
  3  4  1  0  0  0  0
  3  5  1  0  0  0  0
  5  6  1  6  0  0  0
  5  7  1  0  0  0  0
  7  8  1  0  0  0  0
  8  4  1  6  0  0  0
  8 19  1  0  0  0  0
  9 15  1  0  0  0  0
  9 10  1  0  0  0  0
 10 11  1  6  0  0  0
 10 12  1  0  0  0  0
 13 12  1  6  0  0  0
 13 14  1  0  0  0  0
 13 19  1  0  0  0  0
 14 15  1  1  0  0  0
 14 17  1  0  0  0  0
 15 16  2  0  0  0  0
 17 18  1  0  0  0  0
 19 18  1  1  0  0  0
M  END
>  <CHROM.1>
63.42713696,69.61030363,-7.30323944,-0.73775529,-8.59527320,0.58752041,-1.09245994
-2.88453311

>  <Name>
ligand

>  <RI>
0

>  <Rbt.Current_Directory>
/home/itssahil/PROJECTS/Mol_Feturizer/New_Systems/rnas/3SKI

>  <Rbt.Executable>
rbdock ($Id: //depot/dev/client3/rdock/2013.1/src/exe/rbdock.cxx#4 $)

>  <Rbt.Library>
libRbt.so (2013.1, Build901 2013/11/27)

>  <Rbt.Parameter_File>
/export/apps/rDock/src/rDock_2013.1_src/data/scripts/dock_solv.prm

>  <Rbt.Receptor>
prm/blind_docking_20.prm

>  <SCORE>
-13.2161

>  <SCORE.INTER>
-9.65363

>  <SCORE.INTER.CONST>
1

>  <SCORE.INTER.POLAR>
0

>  <SCORE.INTER.ROT>
2

>  <SCORE.INTER.SOLV>
7.73565

>  <SCORE.INTER.VDW>
-13.9476

>  <SCORE.INTER.norm>
-0.508086

>  <SCORE.INTRA>
-3.56245

>  <SCORE.INTRA.DIHEDRAL>
-5.01332

>  <SCORE.INTRA.DIHEDRAL.0>
6.26853

>  <SCORE.INTRA.POLAR>
0

>  <SCORE.INTRA.POLAR.0>
0

>  <SCORE.INTRA.REPUL>
0

>  <SCORE.INTRA.REPUL.0>
0

>  <SCORE.INTRA.SOLV>
0.0304433

>  <SCORE.INTRA.SOLV.lig_0>
-38.4926

>  <SCORE.INTRA.VDW>
-1.07101

>  <SCORE.INTRA.VDW.0>
-0.59057

>  <SCORE.INTRA.norm>
-0.187497

>  <SCORE.RESTR>
0

>  <SCORE.RESTR.CAVITY>
0

>  <SCORE.RESTR.norm>
0

>  <SCORE.SYSTEM>
0

>  <SCORE.SYSTEM.CONST>
0

>  <SCORE.SYSTEM.DIHEDRAL>
0

>  <SCORE.SYSTEM.SOLV>
0

>  <SCORE.SYSTEM.norm>
0

>  <SCORE.heavy>
19

>  <SCORE.norm>
-0.695583

>  <RMSD>
19.634

$$$$
ligand
 OpenBabel11021811483D
libRbt.so/2013.1/901 2013/11/27
 19 21  0  0  0  0  0  0  0  0999 V2000
   -6.2149   -1.8044  -10.8650 C   0  0  0  0  0  0  0  0  0  0  0  0
   -7.6020   -1.5110  -11.0884 O   0  0  0  0  0  0  0  0  0  0  0  0
   -5.7184   -1.1017   -9.5995 C   0  0  1  0  0  0  0  0  0  0  0  0
   -6.4072   -1.5998   -8.4366 O   0  0  0  0  0  0  0  0  0  0  0  0
   -4.2362   -1.3504   -9.3826 C   0  0  1  0  0  0  0  0  0  0  0  0
   -3.4614   -0.1971   -9.7336 O   0  0  0  0  0  0  0  0  0  0  0  0
   -4.0827   -1.6638   -7.9101 C   0  0  0  0  0  0  0  0  0  0  0  0
   -5.4844   -1.9639   -7.3996 C   0  0  2  0  0  0  0  0  0  0  0  0
   -4.9569   -6.8659   -9.2120 N   0  0  0  0  0  0  0  0  0  0  0  0
   -4.7142   -5.6786   -9.8297 C   0  0  1  0  0  0  0  0  0  0  0  0
   -4.2675   -5.6810  -11.1082 N   0  0  0  0  0  0  0  0  0  0  0  0
   -4.9136   -4.4911   -9.1956 N   0  0  0  0  0  0  0  0  0  0  0  0
   -5.3632   -4.4328   -7.9127 C   0  0  2  0  0  0  0  0  0  0  0  0
   -5.6278   -5.6088   -7.2344 C   0  0  1  0  0  0  0  0  0  0  0  0
   -5.4042   -6.8979   -7.9372 C   0  0  0  0  0  0  0  0  0  0  0  0
   -5.6237   -7.9884   -7.3640 O   0  0  0  0  0  0  0  0  0  0  0  0
   -6.0483   -5.2845   -5.9994 N   0  0  0  0  0  0  0  0  0  0  0  0
   -6.0515   -3.9337   -5.9131 C   0  0  0  0  0  0  0  0  0  0  0  0
   -5.6338   -3.4149   -7.0822 N   0  0  1  0  0  0  0  0  0  0  0  0
  1  2  1  0  0  0  0
  3  1  1  6  0  0  0
  3  4  1  0  0  0  0
  3  5  1  0  0  0  0
  5  6  1  1  0  0  0
  5  7  1  0  0  0  0
  7  8  1  0  0  0  0
  8  4  1  6  0  0  0
  8 19  1  0  0  0  0
  9 15  1  0  0  0  0
  9 10  1  0  0  0  0
 10 11  1  6  0  0  0
 10 12  1  0  0  0  0
 13 12  1  6  0  0  0
 13 14  1  0  0  0  0
 13 19  1  0  0  0  0
 14 15  1  1  0  0  0
 14 17  1  0  0  0  0
 15 16  2  0  0  0  0
 17 18  1  0  0  0  0
 19 18  1  1  0  0  0
M  END
>  <CHROM.1>
63.65739450,65.05751517,-5.37074735,-3.69945667,-8.63624802,-1.49871330,-1.45203932
2.89281870

>  <Name>
ligand

>  <RI>
0

>  <Rbt.Current_Directory>
/home/itssahil/PROJECTS/Mol_Feturizer/New_Systems/rnas/3SKI

>  <Rbt.Executable>
rbdock ($Id: //depot/dev/client3/rdock/2013.1/src/exe/rbdock.cxx#4 $)

>  <Rbt.Library>
libRbt.so (2013.1, Build901 2013/11/27)

>  <Rbt.Parameter_File>
/export/apps/rDock/src/rDock_2013.1_src/data/scripts/dock_solv.prm

>  <Rbt.Receptor>
prm/blind_docking_80.prm

>  <SCORE>
-14.0415

>  <SCORE.INTER>
-10.4602

>  <SCORE.INTER.CONST>
1

>  <SCORE.INTER.POLAR>
0

>  <SCORE.INTER.ROT>
2

>  <SCORE.INTER.SOLV>
8.77579

>  <SCORE.INTER.VDW>
-14.832

>  <SCORE.INTER.norm>
-0.550536

>  <SCORE.INTRA>
-3.58138

>  <SCORE.INTRA.DIHEDRAL>
-5.01151

>  <SCORE.INTRA.DIHEDRAL.0>
6.26853

>  <SCORE.INTRA.POLAR>
0

>  <SCORE.INTRA.POLAR.0>
0

>  <SCORE.INTRA.REPUL>
0

>  <SCORE.INTRA.REPUL.0>
0

>  <SCORE.INTRA.SOLV>
0.226618

>  <SCORE.INTRA.SOLV.lig_0>
-38.4926

>  <SCORE.INTRA.VDW>
-1.18894

>  <SCORE.INTRA.VDW.0>
-0.59057

>  <SCORE.INTRA.norm>
-0.188494

>  <SCORE.RESTR>
2.56672e-05

>  <SCORE.RESTR.CAVITY>
2.56672e-05

>  <SCORE.RESTR.norm>
1.3509e-06

>  <SCORE.SYSTEM>
0

>  <SCORE.SYSTEM.CONST>
0

>  <SCORE.SYSTEM.DIHEDRAL>
0

>  <SCORE.SYSTEM.SOLV>
0

>  <SCORE.SYSTEM.norm>
0

>  <SCORE.heavy>
19

>  <SCORE.norm>
-0.739028

>  <RMSD>
19.664

$$$$
