@<TRIPOS>MOLECULE
3SKI_rdock.pdb
 1424 1591 0 0 0
SMALL
GASTEIGER

@<TRIPOS>ATOM
      1  P        -12.3140    1.0650   28.6790 P.3    22  G22         0.1280
      2  C5'      -12.8180    3.6160   28.3000 C.3    22  G22         0.1795
      3  O5'      -11.8950    2.6100   28.7020 O.3    22  G22        -0.3259
      4  C4'      -12.4720    4.9590   28.9230 C.3    22  G22         0.1772
      5  O4'      -12.4120    4.8400   30.3700 O.3    22  G22        -0.3307
      6  C3'      -11.1040    5.5100   28.5570 C.3    22  G22         0.1860
      7  O3'      -11.1280    6.1520   27.2900 O.3    22  G22        -0.3112
      8  C2'      -10.8550    6.4720   29.7170 C.3    22  G22         0.2309
      9  O2'      -11.6240    7.6620   29.6490 O.3    22  G22        -0.2156
     10  C1'      -11.3270    5.6020   30.8760 C.3    22  G22         0.2408
     11  N1        -6.8700    5.1740   33.3490 N.ar   22  G22        -0.1709
     12  C2        -7.5930    6.3090   33.0550 C.ar   22  G22         0.2606
     13  N2        -7.0750    7.4740   33.4650 N.pl3  22  G22        -0.0859
     14  N3        -8.7510    6.2970   32.4020 N.ar   22  G22        -0.1918
     15  C4        -9.1390    5.0400   32.0590 C.ar   22  G22         0.1723
     16  C5        -8.4880    3.8490   32.3100 C.ar   22  G22         0.1748
     17  C6        -7.2530    3.8730   33.0080 C.ar   22  G22         0.3023
     18  O6        -6.5370    2.9110   33.3200 O.2    22  G22        -0.2633
     19  N7        -9.2040    2.7740   31.7990 N.ar   22  G22        -0.2173
     20  C8       -10.2550    3.3240   31.2620 C.ar   22  G22         0.1817
     21  N9       -10.2890    4.6960   31.3790 N.ar   22  G22        -0.2693
     22  OP1      -11.1600    0.2770   28.0830 O.3    22  G22        -0.1955
     23  OP2      -12.8750    0.7200   30.0490 O.co2  22  G22        -0.7863
     24  P         -9.8560    6.0350   26.3240 P.3    23  G23         0.2141
     25  C5'       -9.3450    8.5160   27.0520 C.3    23  G23         0.1812
     26  O5'       -8.8840    7.1790   26.8730 O.3    23  G23        -0.3114
     27  C4'       -8.3120    9.3310   27.8060 C.3    23  G23         0.1773
     28  O4'       -8.1800    8.8380   29.1640 O.3    23  G23        -0.3307
     29  C3'       -6.8990    9.2280   27.2600 C.3    23  G23         0.1860
     30  O3'       -6.7480   10.0490   26.1060 O.3    23  G23        -0.3112
     31  C2'       -6.0900    9.7000   28.4660 C.3    23  G23         0.2309
     32  O2'       -6.1140   11.1020   28.6640 O.3    23  G23        -0.2156
     33  C1'       -6.8350    8.9950   29.5980 C.3    23  G23         0.2408
     34  N1        -3.0190    6.4960   31.9110 N.ar   23  G23        -0.1709
     35  C2        -3.2100    7.8520   31.7810 C.ar   23  G23         0.2606
     36  N2        -2.2750    8.6380   32.3370 N.pl3  23  G23        -0.0859
     37  N3        -4.2510    8.3930   31.1530 N.ar   23  G23        -0.1918
     38  C4        -5.1000    7.4500   30.6540 C.ar   23  G23         0.1723
     39  C5        -4.9880    6.0760   30.7350 C.ar   23  G23         0.1748
     40  C6        -3.8730    5.5170   31.4100 C.ar   23  G23         0.3023
     41  O6        -3.5970    4.3220   31.5820 O.2    23  G23        -0.2633
     42  N7        -6.0560    5.4540   30.0990 N.ar   23  G23        -0.2173
     43  C8        -6.7790    6.4440   29.6530 C.ar   23  G23         0.1817
     44  N9        -6.2650    7.6870   29.9510 N.ar   23  G23        -0.2693
     45  OP1      -10.2990    6.3860   24.9560 O.2    23  G23        -0.5172
     46  OP2       -9.1920    4.7330   26.5750 O.co2  23  G23        -0.4373
     47  P         -6.1480    9.4510   24.7400 P.3    24  C24         0.2141
     48  C5'       -3.8620   10.5890   25.3240 C.3    24  C24         0.1812
     49  O5'       -4.5820    9.3870   25.0550 O.3    24  C24        -0.3114
     50  C4'       -2.6630   10.3380   26.2200 C.3    24  C24         0.1773
     51  O4'       -3.0510    9.6190   27.4190 O.3    24  C24        -0.3307
     52  C3'       -1.5790    9.4610   25.6190 C.3    24  C24         0.1860
     53  O3'       -0.7880   10.1930   24.6870 O.3    24  C24        -0.3112
     54  C2'       -0.8070    9.0760   26.8760 C.3    24  C24         0.2309
     55  O2'        0.0720   10.0920   27.3220 O.3    24  C24        -0.2156
     56  C1'       -1.9440    8.8590   27.8810 C.3    24  C24         0.2420
     57  N1        -2.3230    7.4040   28.0210 N.ar   24  C24        -0.2535
     58  C2        -1.5610    6.5610   28.8500 C.ar   24  C24         0.3532
     59  O2        -0.5920    7.0190   29.4710 O.2    24  C24        -0.2443
     60  N3        -1.9120    5.2500   28.9520 N.ar   24  C24        -0.1739
     61  C4        -2.9620    4.7760   28.2720 C.ar   24  C24         0.1759
     62  N4        -3.2650    3.4820   28.4130 N.pl3  24  C24        -0.1070
     63  C5        -3.7490    5.6120   27.4240 C.ar   24  C24         0.0566
     64  C6        -3.3960    6.9000   27.3290 C.ar   24  C24         0.0850
     65  OP1       -6.3890   10.4490   23.6740 O.2    24  C24        -0.5172
     66  OP2       -6.6330    8.0640   24.5590 O.co2  24  C24        -0.4373
     67  P         -0.1490    9.4510   23.4160 P.3    25  C25         0.2141
     68  C5'        2.1170    9.2850   24.7380 C.3    25  C25         0.1812
     69  O5'        1.0640    8.6220   24.0460 O.3    25  C25        -0.3114
     70  C4'        3.0030    8.2760   25.4430 C.3    25  C25         0.1773
     71  O4'        2.2720    7.5960   26.4960 O.3    25  C25        -0.3307
     72  C3'        3.4710    7.1260   24.5720 C.3    25  C25         0.1860
     73  O3'        4.5020    7.5440   23.6890 O.3    25  C25        -0.3112
     74  C2'        3.9370    6.1470   25.6430 C.3    25  C25         0.2309
     75  O2'        5.1810    6.5010   26.2190 O.3    25  C25        -0.2156
     76  C1'        2.8140    6.2930   26.6700 C.3    25  C25         0.2420
     77  N1         1.7360    5.2400   26.5220 N.ar   25  C25        -0.2535
     78  C2         1.9650    3.9350   27.0040 C.ar   25  C25         0.3532
     79  O2         3.0400    3.6630   27.5530 O.2    25  C25        -0.2443
     80  N3         0.9900    2.9970   26.8610 N.ar   25  C25        -0.1739
     81  C4        -0.1640    3.3120   26.2630 C.ar   25  C25         0.1759
     82  N4        -1.0880    2.3520   26.1480 N.pl3  25  C25        -0.1070
     83  C5        -0.4200    4.6280   25.7630 C.ar   25  C25         0.0566
     84  C6         0.5460    5.5460   25.9110 C.ar   25  C25         0.0850
     85  OP1        0.3880   10.4960   22.5110 O.2    25  C25        -0.5172
     86  OP2       -1.1280    8.4640   22.9020 O.co2  25  C25        -0.4373
     87  P          4.6830    6.8140   22.2740 P.3    26  U26         0.2141
     88  C5'        6.6910    5.5360   23.3640 C.3    26  U26         0.1812
     89  O5'        5.4430    5.4650   22.6750 O.3    26  U26        -0.3114
     90  C4'        7.1210    4.1640   23.8350 C.3    26  U26         0.1773
     91  O4'        6.1770    3.6520   24.8010 O.3    26  U26        -0.3307
     92  C3'        7.1100    3.1080   22.7500 C.3    26  U26         0.1860
     93  O3'        8.2650    3.2300   21.9310 O.3    26  U26        -0.3112
     94  C2'        7.0790    1.8250   23.5780 C.3    26  U26         0.2309
     95  O2'        8.3570    1.4480   24.0620 O.3    26  U26        -0.2156
     96  C1'        6.1680    2.2350   24.7340 C.3    26  U26         0.2420
     97  N1         4.7460    1.7410   24.6180 N.ar   26  U26        -0.2534
     98  C2         4.4440    0.4370   24.9880 C.ar   26  U26         0.3546
     99  O2         5.2660   -0.3600   25.4010 O.2    26  U26        -0.2443
    100  N3         3.1210    0.0890   24.8560 N.ar   26  U26        -0.1530
    101  C4         2.0840    0.8870   24.4050 C.ar   26  U26         0.2846
    102  O4         0.9480    0.4220   24.3450 O.2    26  U26        -0.2650
    103  C5         2.4690    2.2290   24.0360 C.ar   26  U26         0.0814
    104  C6         3.7540    2.5970   24.1580 C.ar   26  U26         0.0870
    105  OP1        5.5920    7.6430   21.4480 O.2    26  U26        -0.5172
    106  OP2        3.3460    6.4440   21.7580 O.co2  26  U26        -0.4373
    107  P          8.3170    2.4640   20.5300 P.3    27  U27         0.2141
    108  C5'        8.7590   -0.0790   20.1480 C.3    27  U27         0.1812
    109  O5'        8.8980    1.0450   20.9860 O.3    27  U27        -0.3114
    110  C4'        8.5230   -1.3350   20.9610 C.3    27  U27         0.1773
    111  O4'        7.5820   -1.0870   22.0350 O.3    27  U27        -0.3307
    112  C3'        7.8960   -2.4560   20.1610 C.3    27  U27         0.1860
    113  O3'        8.9180   -3.1440   19.4650 O.3    27  U27        -0.3112
    114  C2'        7.2410   -3.2970   21.2520 C.3    27  U27         0.2309
    115  O2'        8.1490   -4.1580   21.9150 O.3    27  U27        -0.2156
    116  C1'        6.7330   -2.2140   22.2050 C.3    27  U27         0.2420
    117  N1         5.2890   -1.7900   21.9930 N.ar   27  U27        -0.2534
    118  C2         4.2460   -2.6620   22.2990 C.ar   27  U27         0.3546
    119  O2         4.4010   -3.7940   22.7310 O.2    27  U27        -0.2443
    120  N3         2.9860   -2.1560   22.0720 N.ar   27  U27        -0.1530
    121  C4         2.6580   -0.9010   21.5860 C.ar   27  U27         0.2846
    122  O4         1.4790   -0.5930   21.4380 O.2    27  U27        -0.2650
    123  C5         3.7870   -0.0490   21.2950 C.ar   27  U27         0.0814
    124  C6         5.0260   -0.5150   21.5070 C.ar   27  U27         0.0870
    125  OP1        9.3210    3.1360   19.6730 O.2    27  U27        -0.5172
    126  OP2        6.9290    2.2770   20.0400 O.co2  27  U27        -0.4373
    127  P          8.9610   -3.1070   17.8620 P.3    28  A28         0.2141
    128  C5'        8.4210   -5.6600   18.1520 C.3    28  A28         0.1812
    129  O5'        8.1370   -4.4220   17.4760 O.3    28  A28        -0.3114
    130  C4'        7.1550   -6.4760   18.3650 C.3    28  A28         0.1773
    131  O4'        6.3000   -5.8700   19.3660 O.3    28  A28        -0.3307
    132  C3'        6.2350   -6.5940   17.1630 C.3    28  A28         0.1860
    133  O3'        6.7730   -7.4980   16.2060 O.3    28  A28        -0.3112
    134  C2'        4.9620   -7.1050   17.8400 C.3    28  A28         0.2309
    135  O2'        4.9900   -8.4890   18.1610 O.3    28  A28        -0.2156
    136  C1'        4.9540   -6.2640   19.1170 C.3    28  A28         0.2408
    137  N1         0.1230   -4.4310   18.9900 N.ar   28  A28        -0.2040
    138  C2         0.6000   -5.6790   19.1100 C.ar   28  A28         0.2016
    139  N3         1.8730   -6.0860   19.1380 N.ar   28  A28        -0.2048
    140  C4         2.7210   -5.0440   19.0220 C.ar   28  A28         0.1692
    141  C5         2.3790   -3.7080   18.8900 C.ar   28  A28         0.1518
    142  C6         0.9990   -3.4040   18.8750 C.ar   28  A28         0.1919
    143  N6         0.5230   -2.1610   18.7530 N.pl3  28  A28        -0.1054
    144  N7         3.5110   -2.9170   18.7950 N.ar   28  A28        -0.2193
    145  C8         4.5020   -3.7750   18.8700 C.ar   28  A28         0.1816
    146  N9         4.1010   -5.0770   19.0100 N.ar   28  A28        -0.2693
    147  OP1       10.3710   -3.2850   17.4450 O.3    28  A28        -0.4373
    148  OP2        8.1950   -1.9290   17.3850 O.co2  28  A28        -0.5172
    149  P          6.5880   -7.2090   14.6390 P.3    29  U29         0.2141
    150  C5'        4.7300   -9.0540   14.5820 C.3    29  U29         0.1812
    151  O5'        5.0830   -7.6870   14.3900 O.3    29  U29        -0.3114
    152  C4'        3.2250   -9.2380   14.6300 C.3    29  U29         0.1773
    153  O4'        2.6650   -8.4770   15.7310 O.3    29  U29        -0.3307
    154  C3'        2.4650   -8.7190   13.4200 C.3    29  U29         0.1860
    155  O3'        2.5640   -9.6130   12.3130 O.3    29  U29        -0.3112
    156  C2'        1.0560   -8.6090   13.9970 C.3    29  U29         0.2309
    157  O2'        0.4030   -9.8570   14.1330 O.3    29  U29        -0.2156
    158  C1'        1.3660   -8.0210   15.3740 C.3    29  U29         0.2420
    159  N1         1.3050   -6.5080   15.4130 N.ar   29  U29        -0.2534
    160  C2         0.0720   -5.8790   15.5770 C.ar   29  U29         0.3546
    161  O2        -0.9890   -6.4770   15.6990 O.2    29  U29        -0.2443
    162  N3         0.1240   -4.5020   15.5950 N.ar   29  U29        -0.1530
    163  C4         1.2560   -3.7040   15.4670 C.ar   29  U29         0.2846
    164  O4         1.1480   -2.4830   15.5040 O.2    29  U29        -0.2650
    165  C5         2.4980   -4.4260   15.3000 C.ar   29  U29         0.0814
    166  C6         2.4750   -5.7670   15.2790 C.ar   29  U29         0.0870
    167  OP1        7.5120   -8.1010   13.8980 O.2    29  U29        -0.5172
    168  OP2        6.6480   -5.7450   14.4140 O.co2  29  U29        -0.4373
    169  P          2.7690   -9.0280   10.8320 P.3    30  A30         0.2141
    170  C5'        0.2510   -9.6030   10.3580 C.3    30  A30         0.1812
    171  O5'        1.2800   -8.6120   10.4210 O.3    30  A30        -0.3114
    172  C4'       -1.1220   -8.9650   10.2450 C.3    30  A30         0.1773
    173  O4'       -1.4020   -8.2010   11.4410 O.3    30  A30        -0.3307
    174  C3'       -1.2840   -7.9660    9.1090 C.3    30  A30         0.1860
    175  O3'       -1.5800   -8.6520    7.8870 O.3    30  A30        -0.3112
    176  C2'       -2.4440   -7.1030    9.6050 C.3    30  A30         0.2309
    177  O2'       -3.7160   -7.6370    9.2810 O.3    30  A30        -0.2156
    178  C1'       -2.2350   -7.1000   11.1210 C.3    30  A30         0.2408
    179  N1        -3.0110   -2.3620   13.0340 N.ar   30  A30        -0.2040
    180  C2        -3.8670   -3.3200   12.6530 C.ar   30  A30         0.2016
    181  N3        -3.5960   -4.5340   12.1660 N.ar   30  A30        -0.2048
    182  C4        -2.2680   -4.7400   12.0760 C.ar   30  A30         0.1692
    183  C5        -1.2680   -3.8490   12.4300 C.ar   30  A30         0.1518
    184  C6        -1.6840   -2.5960   12.9350 C.ar   30  A30         0.1919
    185  N6        -0.8320   -1.6400   13.3170 N.pl3  30  A30        -0.1054
    186  N7        -0.0180   -4.3990   12.2060 N.ar   30  A30        -0.2193
    187  C8        -0.2820   -5.5920   11.7260 C.ar   30  A30         0.1816
    188  N9        -1.6200   -5.8680   11.6210 N.ar   30  A30        -0.2693
    189  OP1        3.2140  -10.1290    9.9530 O.2    30  A30        -0.5172
    190  OP2        3.5860   -7.7960   10.9180 O.co2  30  A30        -0.4373
    191  P         -0.5450   -8.6420    6.6600 P.3    31  C31         0.2141
    192  C5'        0.3690   -6.4580    5.4860 C.3    31  C31         0.1812
    193  O5'       -0.7230   -7.1700    6.0650 O.3    31  C31        -0.3114
    194  C4'        0.0200   -4.9830    5.3630 C.3    31  C31         0.1773
    195  O4'       -1.3620   -4.8390    4.9310 O.3    31  C31        -0.3307
    196  C3'        0.1220   -4.1720    6.6550 C.3    31  C31         0.1860
    197  O3'        0.4430   -2.8050    6.3700 O.3    31  C31        -0.3112
    198  C2'       -1.2990   -4.2960    7.1990 C.3    31  C31         0.2309
    199  O2'       -1.6300   -3.2980    8.1420 O.3    31  C31        -0.2156
    200  C1'       -2.0850   -4.1110    5.9060 C.3    31  C31         0.2420
    201  N1        -3.5060   -4.5920    5.9620 N.ar   31  C31        -0.2535
    202  C2        -4.5520   -3.6520    5.9650 C.ar   31  C31         0.3532
    203  O2        -4.2880   -2.4450    5.9190 O.2    31  C31        -0.2443
    204  N3        -5.8340   -4.0980    6.0230 N.ar   31  C31        -0.1739
    205  C4        -6.0860   -5.4110    6.0760 C.ar   31  C31         0.1759
    206  N4        -7.3640   -5.7970    6.1290 N.pl3  31  C31        -0.1070
    207  C5        -5.0410   -6.3830    6.0730 C.ar   31  C31         0.0566
    208  C6        -3.7800   -5.9350    6.0150 C.ar   31  C31         0.0850
    209  OP1       -1.0340   -9.6110    5.6530 O.2    31  C31        -0.5172
    210  OP2        0.8350   -8.7580    7.1850 O.co2  31  C31        -0.4373
    211  P          1.9030   -2.3280    5.9070 P.3    32  A32         0.2141
    212  C5'        0.7310   -1.6670    3.6390 C.3    32  A32         0.1812
    213  O5'        1.8020   -2.3180    4.3150 O.3    32  A32        -0.3114
    214  C4'        0.6860   -2.1560    2.2060 C.3    32  A32         0.1773
    215  O4'        0.7210   -3.6010    2.2270 O.3    32  A32        -0.3307
    216  C3'       -0.5600   -1.8080    1.4050 C.3    32  A32         0.1860
    217  O3'       -0.3860   -0.5380    0.7450 O.3    32  A32        -0.3112
    218  C2'       -0.6110   -2.9440    0.3790 C.3    32  A32         0.2309
    219  O2'        0.0620   -2.5950   -0.8120 O.3    32  A32        -0.2156
    220  C1'        0.1360   -4.1040    1.0500 C.3    32  A32         0.2408
    221  N1        -4.4220   -6.0580    2.6350 N.ar   32  A32        -0.2040
    222  C2        -4.0350   -4.7980    2.3720 C.ar   32  A32         0.2016
    223  N3        -2.8440   -4.3550    1.9660 N.ar   32  A32        -0.2048
    224  C4        -1.9690   -5.3710    1.8260 C.ar   32  A32         0.1692
    225  C5        -2.2200   -6.7200    2.0580 C.ar   32  A32         0.1518
    226  C6        -3.5250   -7.0620    2.4860 C.ar   32  A32         0.1919
    227  N6        -3.9150   -8.3150    2.7480 N.pl3  32  A32        -0.1054
    228  N7        -1.0880   -7.4800    1.8090 N.ar   32  A32        -0.2193
    229  C8        -0.1900   -6.5910    1.4360 C.ar   32  A32         0.1816
    230  N9        -0.6490   -5.2980    1.4150 N.ar   32  A32        -0.2693
    231  OP1        2.8910   -3.3550    6.3020 O.2    32  A32        -0.5172
    232  OP2        2.0680   -0.9220    6.3430 O.co2  32  A32        -0.4373
    233  P         -0.9010    0.8640    1.3440 P.3    33  G33         0.2141
    234  C5'       -2.7120    0.8560   -0.5720 C.3    33  G33         0.1812
    235  O5'       -2.4040    0.9790    0.8120 O.3    33  G33        -0.3114
    236  C4'       -3.6980   -0.2790   -0.7940 C.3    33  G33         0.1773
    237  O4'       -4.9930    0.0610   -0.2480 O.3    33  G33        -0.3307
    238  C3'       -3.9530   -0.6440   -2.2530 C.3    33  G33         0.1860
    239  O3'       -3.4930   -1.9650   -2.4740 O.3    33  G33        -0.3112
    240  C2'       -5.4720   -0.5300   -2.4260 C.3    33  G33         0.2309
    241  O2'       -6.0220   -1.5700   -3.2100 O.3    33  G33        -0.2156
    242  C1'       -5.9500   -0.6550   -0.9890 C.3    33  G33         0.2408
    243  N1       -10.7860   -1.6630    0.3010 N.ar   33  G33        -0.1709
    244  C2        -9.7250   -2.5320    0.1460 C.ar   33  G33         0.2606
    245  N2        -9.9860   -3.8290    0.3630 N.pl3  33  G33        -0.0859
    246  N3        -8.4950   -2.1510   -0.1980 N.ar   33  G33        -0.1918
    247  C4        -8.4080   -0.8060   -0.3770 C.ar   33  G33         0.1723
    248  C5        -9.4060    0.1400   -0.2500 C.ar   33  G33         0.1748
    249  C6       -10.7130   -0.2780    0.1170 C.ar   33  G33         0.3023
    250  O6       -11.7240    0.4220    0.2810 O.2    33  G33        -0.2633
    251  N7        -8.9160    1.4110   -0.5190 N.ar   33  G33        -0.2173
    252  C8        -7.6590    1.2160   -0.8010 C.ar   33  G33         0.1817
    253  N9        -7.2790   -0.1030   -0.7350 N.ar   33  G33        -0.2693
    254  OP1       -0.1000    1.9320    0.7090 O.2    33  G33        -0.5172
    255  OP2       -0.9530    0.7790    2.8160 O.co2  33  G33        -0.4373
    256  P         -2.7810   -2.3480   -3.8510 P.3    34  G34         0.2141
    257  C5'       -1.0950   -4.3260   -3.3670 C.3    34  G34         0.1812
    258  O5'       -2.4210   -3.8880   -3.6170 O.3    34  G34        -0.3114
    259  C4'       -1.1060   -5.7720   -2.9100 C.3    34  G34         0.1773
    260  O4'       -1.6460   -5.8400   -1.5680 O.3    34  G34        -0.3307
    261  C3'       -1.9980   -6.6940   -3.7270 C.3    34  G34         0.1860
    262  O3'       -1.2900   -7.1980   -4.8560 O.3    34  G34        -0.3112
    263  C2'       -2.3370   -7.7870   -2.7190 C.3    34  G34         0.2309
    264  O2'       -1.3190   -8.7650   -2.5920 O.3    34  G34        -0.2156
    265  C1'       -2.4740   -6.9830   -1.4290 C.3    34  G34         0.2408
    266  N1        -7.1510   -8.5090   -0.0390 N.ar   34  G34        -0.1709
    267  C2        -6.0120   -9.2560   -0.2440 C.ar   34  G34         0.2606
    268  N2        -6.1180  -10.5810   -0.0640 N.pl3  34  G34        -0.0859
    269  N3        -4.8440   -8.7380   -0.6060 N.ar   34  G34        -0.1918
    270  C4        -4.8990   -7.3880   -0.7550 C.ar   34  G34         0.1723
    271  C5        -5.9850   -6.5540   -0.5730 C.ar   34  G34         0.1748
    272  C6        -7.2290   -7.1230   -0.1860 C.ar   34  G34         0.3023
    273  O6        -8.3050   -6.5470    0.0250 O.2    34  G34        -0.2633
    274  N7        -5.6350   -5.2320   -0.8200 N.ar   34  G34        -0.2173
    275  C8        -4.3690   -5.2910   -1.1410 C.ar   34  G34         0.1817
    276  N9        -3.8510   -6.5700   -1.1230 N.ar   34  G34        -0.2693
    277  OP1       -1.5520   -1.5310   -3.9680 O.3    34  G34        -0.4373
    278  OP2       -3.8070   -2.3010   -4.9200 O.co2  34  G34        -0.5172
    279  P         -2.0490   -7.4510   -6.2380 P.3    35  G35         0.2141
    280  C5'       -2.5590   -9.9890   -5.7530 C.3    35  G35         0.1812
    281  O5'       -3.0540   -8.6490   -5.8930 O.3    35  G35        -0.3114
    282  C4'       -3.6670  -10.9600   -5.3800 C.3    35  G35         0.1773
    283  O4'       -4.2280  -10.5980   -4.0930 O.3    35  G35        -0.3307
    284  C3'       -4.8570  -10.9510   -6.3230 C.3    35  G35         0.1860
    285  O3'       -4.6260  -11.8020   -7.4260 O.3    35  G35        -0.3112
    286  C2'       -5.9890  -11.4470   -5.4340 C.3    35  G35         0.2309
    287  O2'       -5.9920  -12.8510   -5.2650 O.3    35  G35        -0.2156
    288  C1'       -5.6400  -10.7540   -4.1230 C.3    35  G35         0.2408
    289  N1       -10.0240   -8.2980   -3.2020 N.ar   35  G35        -0.1709
    290  C2        -9.7870   -9.6500   -3.3050 C.ar   35  G35         0.2606
    291  N2       -10.8450  -10.4550   -3.1370 N.pl3  35  G35        -0.0859
    292  N3        -8.5920  -10.1750   -3.5510 N.ar   35  G35        -0.1918
    293  C4        -7.6300   -9.2240   -3.6930 C.ar   35  G35         0.1723
    294  C5        -7.7700   -7.8570   -3.6140 C.ar   35  G35         0.1748
    295  C6        -9.0520   -7.3080   -3.3470 C.ar   35  G35         0.3023
    296  O6        -9.3740   -6.1160   -3.2380 O.2    35  G35        -0.2633
    297  N7        -6.5500   -7.2310   -3.8200 N.ar   35  G35        -0.2173
    298  C8        -5.7100   -8.2100   -4.0170 C.ar   35  G35         0.1817
    299  N9        -6.2930   -9.4500   -3.9540 N.ar   35  G35        -0.2693
    300  OP1       -1.0400   -7.9340   -7.2070 O.2    35  G35        -0.5172
    301  OP2       -2.8490   -6.2490   -6.5650 O.co2  35  G35        -0.4373
    302  P         -5.1160  -11.3420   -8.8710 P.3    36  U36         0.2141
    303  C5'       -7.3080  -12.8060   -8.7360 C.3    36  U36         0.1812
    304  O5'       -6.7110  -11.5080   -8.7860 O.3    36  U36        -0.3114
    305  C4'       -8.7880  -12.7350   -8.3890 C.3    36  U36         0.1773
    306  O4'       -8.9810  -12.0860   -7.1020 O.3    36  U36        -0.3307
    307  C3'       -9.6590  -11.9030   -9.3220 C.3    36  U36         0.1860
    308  O3'       -9.9240  -12.5720  -10.5520 O.3    36  U36        -0.3112
    309  C2'      -10.8960  -11.7220   -8.4440 C.3    36  U36         0.2309
    310  O2'      -11.6940  -12.8890   -8.3200 O.3    36  U36        -0.2156
    311  C1'      -10.2260  -11.3950   -7.1080 C.3    36  U36         0.2420
    312  N1       -10.0240   -9.9070   -6.9120 N.ar   36  U36        -0.2534
    313  C2       -11.0940   -9.1290   -6.4930 C.ar   36  U36         0.3546
    314  O2       -12.2060   -9.5730   -6.2540 O.2    36  U36        -0.2443
    315  N3       -10.8150   -7.7890   -6.3570 N.ar   36  U36        -0.1530
    316  C4        -9.6080   -7.1540   -6.5930 C.ar   36  U36         0.2846
    317  O4        -9.5170   -5.9410   -6.4230 O.2    36  U36        -0.2650
    318  C5        -8.5440   -8.0230   -7.0280 C.ar   36  U36         0.0814
    319  C6        -8.7860   -9.3320   -7.1690 C.ar   36  U36         0.0870
    320  OP1       -4.5770  -12.3160   -9.8460 O.2    36  U36        -0.5172
    321  OP2       -4.8210   -9.8940   -9.0290 O.co2  36  U36        -0.4373
    322  P         -9.8830  -11.7560  -11.9340 P.3    37  A37         0.2141
    323  C5'      -12.5060  -11.8700  -12.2100 C.3    37  A37         0.1812
    324  O5'      -11.3360  -11.0740  -11.9890 O.3    37  A37        -0.3114
    325  C4'      -13.7580  -11.2090  -11.6540 C.3    37  A37         0.1773
    326  O4'      -13.5430  -10.7720  -10.2900 O.3    37  A37        -0.3307
    327  C3'      -14.2250   -9.9490  -12.3670 C.3    37  A37         0.1860
    328  O3'      -14.9380  -10.2760  -13.5460 O.3    37  A37        -0.3112
    329  C2'      -15.1270   -9.3330  -11.3040 C.3    37  A37         0.2309
    330  O2'      -16.3910   -9.9660  -11.2040 O.3    37  A37        -0.2156
    331  C1'      -14.2960   -9.5900  -10.0500 C.3    37  A37         0.2408
    332  N1       -13.8440   -4.7490   -8.2790 N.ar   37  A37        -0.2040
    333  C2       -14.9160   -5.5280   -8.4680 C.ar   37  A37         0.2016
    334  N3       -14.9630   -6.7820   -8.9310 N.ar   37  A37        -0.2048
    335  C4       -13.7300   -7.2450   -9.2260 C.ar   37  A37         0.1692
    336  C5       -12.5360   -6.5550   -9.0850 C.ar   37  A37         0.1518
    337  C6       -12.6180   -5.2360   -8.5820 C.ar   37  A37         0.1919
    338  N6       -11.5520   -4.4530   -8.3920 N.pl3  37  A37        -0.1054
    339  N7       -11.4690   -7.3410   -9.4860 N.ar   37  A37        -0.2193
    340  C8       -12.0270   -8.4710   -9.8540 C.ar   37  A37         0.1816
    341  N9       -13.3880   -8.4860   -9.7250 N.ar   37  A37        -0.2693
    342  OP1       -9.7560  -12.7420  -13.0330 O.2    37  A37        -0.5172
    343  OP2       -8.8850  -10.6660  -11.8180 O.co2  37  A37        -0.4373
    344  P        -14.7320   -9.4130  -14.8750 P.3    38  G38         0.2141
    345  C5'      -17.0780   -8.2850  -14.6660 C.3    38  G38         0.1812
    346  O5'      -15.6630   -8.1380  -14.6220 O.3    38  G38        -0.3114
    347  C4'      -17.7770   -7.1560  -13.9360 C.3    38  G38         0.1773
    348  O4'      -17.2200   -6.9970  -12.6070 O.3    38  G38        -0.3307
    349  C3'      -17.5990   -5.7830  -14.5550 C.3    38  G38         0.1860
    350  O3'      -18.4610   -5.6170  -15.6710 O.3    38  G38        -0.3112
    351  C2'      -17.9680   -4.8930  -13.3740 C.3    38  G38         0.2309
    352  O2'      -19.3620   -4.8550  -13.1170 O.3    38  G38        -0.2156
    353  C1'      -17.2350   -5.6250  -12.2490 C.3    38  G38         0.2408
    354  N1       -14.2090   -1.8770  -10.5310 N.ar   38  G38        -0.1709
    355  C2       -15.5860   -1.9400  -10.5580 C.ar   38  G38         0.2606
    356  N2       -16.2460   -0.8760  -10.0720 N.pl3  38  G38        -0.0859
    357  N3       -16.2690   -2.9780  -11.0340 N.ar   38  G38        -0.1918
    358  C4       -15.4530   -3.9690  -11.4930 C.ar   38  G38         0.1723
    359  C5       -14.0730   -3.9990  -11.5060 C.ar   38  G38         0.1748
    360  C6       -13.3560   -2.8850  -10.9930 C.ar   38  G38         0.3023
    361  O6       -12.1270   -2.7330  -10.9240 O.2    38  G38        -0.2633
    362  N7       -13.6110   -5.1920  -12.0540 N.ar   38  G38        -0.2173
    363  C8       -14.6990   -5.8480  -12.3530 C.ar   38  G38         0.1817
    364  N9       -15.8560   -5.1700  -12.0440 N.ar   38  G38        -0.2693
    365  OP1      -15.2800  -10.2100  -15.9980 O.2    38  G38        -0.5172
    366  OP2      -13.3310   -8.9390  -14.9330 O.co2  38  G38        -0.4373
    367  P        -17.9050   -4.9500  -17.0160 P.3    39  C39         0.2141
    368  C5'      -18.9960   -2.6870  -16.2890 C.3    39  C39         0.1812
    369  O5'      -17.8210   -3.4000  -16.6440 O.3    39  C39        -0.3114
    370  C4'      -18.6400   -1.3920  -15.5890 C.3    39  C39         0.1773
    371  O4'      -17.8950   -1.6680  -14.3740 O.3    39  C39        -0.3307
    372  C3'      -17.7010   -0.4660  -16.3460 C.3    39  C39         0.1860
    373  O3'      -18.3540    0.2100  -17.4210 O.3    39  C39        -0.3112
    374  C2'      -17.2990    0.4580  -15.2030 C.3    39  C39         0.2309
    375  O2'      -18.3480    1.3160  -14.8040 O.3    39  C39        -0.2156
    376  C1'      -17.0240   -0.5730  -14.1130 C.3    39  C39         0.2420
    377  N1       -15.5780   -1.0140  -14.0760 N.ar   39  C39        -0.2535
    378  C2       -14.6200   -0.1980  -13.4410 C.ar   39  C39         0.3532
    379  O2       -14.9700    0.8650  -12.9060 O.2    39  C39        -0.2443
    380  N3       -13.3210   -0.5990  -13.4240 N.ar   39  C39        -0.1739
    381  C4       -12.9600   -1.7480  -14.0050 C.ar   39  C39         0.1759
    382  N4       -11.6720   -2.0890  -13.9530 N.pl3  39  C39        -0.1070
    383  C5       -13.9100   -2.5920  -14.6610 C.ar   39  C39         0.0566
    384  C6       -15.1900   -2.1900  -14.6730 C.ar   39  C39         0.0850
    385  OP1      -18.9370   -5.1520  -18.0600 O.2    39  C39        -0.5172
    386  OP2      -16.5140   -5.4070  -17.2430 O.co2  39  C39        -0.4373
    387  P        -17.5230    0.5640  -18.7460 P.3    40  A40         0.2141
    388  C5'      -17.0610    2.9810  -17.8730 C.3    40  A40         0.1812
    389  O5'      -16.5440    1.7200  -18.2580 O.3    40  A40        -0.3114
    390  C4'      -15.9600    3.7970  -17.2310 C.3    40  A40         0.1773
    391  O4'      -15.3510    3.0360  -16.1650 O.3    40  A40        -0.3307
    392  C3'      -14.7900    4.0920  -18.1470 C.3    40  A40         0.1860
    393  O3'      -15.1100    5.1620  -19.0110 O.3    40  A40        -0.3112
    394  C2'      -13.6830    4.4140  -17.1410 C.3    40  A40         0.2309
    395  O2'      -13.7430    5.7240  -16.6080 O.3    40  A40        -0.2156
    396  C1'      -13.9830    3.3880  -16.0490 C.3    40  A40         0.2408
    397  N1        -9.2790    1.4100  -15.4240 N.ar   40  A40        -0.2040
    398  C2        -9.7720    2.6370  -15.2200 C.ar   40  A40         0.2016
    399  N3       -11.0110    3.0790  -15.4050 N.ar   40  A40        -0.2048
    400  C4       -11.8090    2.0960  -15.8590 C.ar   40  A40         0.1692
    401  C5       -11.4500    0.7850  -16.1140 C.ar   40  A40         0.1518
    402  C6       -10.0990    0.4420  -15.8780 C.ar   40  A40         0.1919
    403  N6        -9.5890   -0.7790  -16.0710 N.pl3  40  A40        -0.1054
    404  N7       -12.5440    0.0620  -16.5640 N.ar   40  A40        -0.2193
    405  C8       -13.5240    0.9380  -16.5730 C.ar   40  A40         0.1816
    406  N9       -13.1510    2.1880  -16.1560 N.ar   40  A40        -0.2693
    407  OP1      -18.4550    1.1270  -19.7490 O.2    40  A40        -0.5172
    408  OP2      -16.6900   -0.6130  -19.0930 O.co2  40  A40        -0.4373
    409  P        -14.6330    5.1080  -20.5300 P.3    41  U41         0.2141
    410  C5'      -12.4360    6.5540  -20.2030 C.3    41  U41         0.1812
    411  O5'      -13.0510    5.2750  -20.3740 O.3    41  U41        -0.3114
    412  C4'      -10.9950    6.4670  -20.6690 C.3    41  U41         0.1773
    413  O4'      -10.3370    5.3550  -19.9980 O.3    41  U41        -0.3307
    414  C3'      -10.8380    6.1910  -22.1630 C.3    41  U41         0.1860
    415  O3'       -9.6490    6.8070  -22.6580 O.3    41  U41        -0.3112
    416  C2'      -10.7440    4.6690  -22.1830 C.3    41  U41         0.2309
    417  O2'      -10.1770    4.1370  -23.3630 O.3    41  U41        -0.2156
    418  C1'       -9.8510    4.4450  -20.9650 C.3    41  U41         0.2420
    419  N1        -9.9190    3.0340  -20.4470 N.ar   41  U41        -0.2534
    420  C2        -8.7880    2.2310  -20.5350 C.ar   41  U41         0.3546
    421  O2        -7.7250    2.6150  -20.9850 O.2    41  U41        -0.2443
    422  N3        -8.9480    0.9530  -20.0580 N.ar   41  U41        -0.1530
    423  C4       -10.1100    0.4040  -19.5300 C.ar   41  U41         0.2846
    424  O4       -10.1050   -0.7570  -19.1430 O.2    41  U41        -0.2650
    425  C5       -11.2470    1.2910  -19.4850 C.ar   41  U41         0.0814
    426  C6       -11.1120    2.5450  -19.9370 C.ar   41  U41         0.0870
    427  OP1      -15.1860    6.2950  -21.2160 O.2    41  U41        -0.5172
    428  OP2      -14.8630    3.7400  -21.0610 O.co2  41  U41        -0.4373
    429  P         -9.6810    8.2500  -23.3530 P.3    42  A42         0.2141
    430  C5'       -9.0400   10.0230  -21.5110 C.3    42  A42         0.1812
    431  O5'       -8.6160    9.0690  -22.4800 O.3    42  A42        -0.3114
    432  C4'       -8.2560    9.9230  -20.2140 C.3    42  A42         0.1773
    433  O4'       -8.2970    8.5760  -19.6850 O.3    42  A42        -0.3307
    434  C3'       -6.7620   10.1900  -20.2900 C.3    42  A42         0.1860
    435  O3'       -6.4840   11.5730  -20.4420 O.3    42  A42        -0.3112
    436  C2'       -6.3440    9.6860  -18.9160 C.3    42  A42         0.2309
    437  O2'       -6.6500   10.6200  -17.8950 O.3    42  A42        -0.2156
    438  C1'       -7.2080    8.4270  -18.7870 C.3    42  A42         0.2408
    439  N1        -3.5500    5.0570  -17.3770 N.ar   42  A42        -0.2040
    440  C2        -4.0160    6.1680  -16.7890 C.ar   42  A42         0.2016
    441  N3        -4.9700    7.0020  -17.2090 N.ar   42  A42        -0.2048
    442  C4        -5.4850    6.5980  -18.3850 C.ar   42  A42         0.1692
    443  C5        -5.1120    5.4820  -19.1090 C.ar   42  A42         0.1518
    444  C6        -4.0840    4.6770  -18.5610 C.ar   42  A42         0.1919
    445  N6        -3.6240    3.5680  -19.1490 N.pl3  42  A42        -0.1054
    446  N7        -5.8600    5.3820  -20.2660 N.ar   42  A42        -0.2193
    447  C8        -6.6540    6.4220  -20.2280 C.ar   42  A42         0.1816
    448  N9        -6.4830    7.2020  -19.1210 N.ar   42  A42        -0.2693
    449  OP1      -11.0330    8.8340  -23.1930 O.3    42  A42        -0.4373
    450  OP2       -9.1110    8.0900  -24.7090 O.co2  42  A42        -0.5172
    451  P         -5.1530   12.0630  -21.1860 P.3    43  A43         0.2141
    452  C5'       -3.5600   12.7130  -19.1770 C.3    43  A43         0.1812
    453  O5'       -4.0020   11.7390  -20.1200 O.3    43  A43        -0.3114
    454  C4'       -2.1090   12.4740  -18.7800 C.3    43  A43         0.1773
    455  O4'       -1.8690   11.0630  -18.5320 O.3    43  A43        -0.3307
    456  C3'       -1.0710   12.8950  -19.8190 C.3    43  A43         0.1860
    457  O3'       -0.0250   13.6200  -19.1760 O.3    43  A43        -0.3112
    458  C2'       -0.5860   11.5590  -20.3850 C.3    43  A43         0.2309
    459  O2'        0.7300   11.6110  -20.8980 O.3    43  A43        -0.2156
    460  C1'       -0.6430   10.6990  -19.1350 C.3    43  A43         0.2408
    461  N1         2.1260    6.3420  -19.6030 N.ar   43  A43        -0.2040
    462  C2         2.4970    7.6070  -19.3410 C.ar   43  A43         0.2016
    463  N3         1.7340    8.6990  -19.2320 N.ar   43  A43        -0.2048
    464  C4         0.4330    8.4050  -19.4260 C.ar   43  A43         0.1692
    465  C5        -0.0960    7.1540  -19.7020 C.ar   43  A43         0.1518
    466  C6         0.8120    6.0750  -19.7940 C.ar   43  A43         0.1919
    467  N6         0.4340    4.8180  -20.0570 N.pl3  43  A43        -0.1054
    468  N7        -1.4690    7.2230  -19.8300 N.ar   43  A43        -0.2193
    469  C8        -1.7440    8.4870  -19.6390 C.ar   43  A43         0.1816
    470  N9        -0.6470    9.2610  -19.3920 N.ar   43  A43        -0.2693
    471  OP1       -5.2580   13.5310  -21.3730 O.3    43  A43        -0.4373
    472  OP2       -4.9340   11.1920  -22.3620 O.co2  43  A43        -0.5172
    473  P         -0.0190   15.2230  -19.1550 P.3    44  U44         0.2141
    474  C5'       -0.1300   15.1890  -16.5130 C.3    44  U44         0.1812
    475  O5'       -0.7220   15.5710  -17.7580 O.3    44  U44        -0.3114
    476  C4'       -0.6850   16.0170  -15.3600 C.3    44  U44         0.1773
    477  O4'       -0.6180   17.4340  -15.6800 O.3    44  U44        -0.3307
    478  C3'       -2.1410   15.7360  -14.9830 C.3    44  U44         0.1860
    479  O3'       -2.2730   15.6780  -13.5580 O.3    44  U44        -0.3112
    480  C2'       -2.8890   16.9340  -15.5730 C.3    44  U44         0.2309
    481  O2'       -4.0920   17.2360  -14.8900 O.3    44  U44        -0.2156
    482  C1'       -1.8570   18.0300  -15.3460 C.3    44  U44         0.2420
    483  N1        -2.0640   19.2800  -16.1570 N.ar   44  U44        -0.2534
    484  C2        -2.4930   20.4420  -15.5110 C.ar   44  U44         0.3546
    485  O2        -2.7240   20.5150  -14.3060 O.2    44  U44        -0.2443
    486  N3        -2.6450   21.5370  -16.3340 N.ar   44  U44        -0.1530
    487  C4        -2.4160   21.5850  -17.7080 C.ar   44  U44         0.2846
    488  O4        -2.5960   22.6370  -18.3110 O.2    44  U44        -0.2650
    489  C5        -1.9710   20.3390  -18.3090 C.ar   44  U44         0.0814
    490  C6        -1.8120   19.2590  -17.5290 C.ar   44  U44         0.0870
    491  OP1       -0.8870   15.7210  -20.2470 O.2    44  U44        -0.5172
    492  OP2        1.3930   15.6590  -19.0920 O.co2  44  U44        -0.4373
    493  P         -2.1900   14.2950  -12.7510 P.3    45  G45         0.2141
    494  C5'       -4.1760   12.8290  -13.7030 C.3    45  G45         0.1812
    495  O5'       -2.8060   13.2220  -13.7680 O.3    45  G45        -0.3114
    496  C4'       -4.3880   11.5190  -14.4370 C.3    45  G45         0.1773
    497  O4'       -3.5150   11.4340  -15.5960 O.3    45  G45        -0.3307
    498  C3'       -4.0030   10.2800  -13.6560 C.3    45  G45         0.1860
    499  O3'       -4.9800    9.9280  -12.6870 O.3    45  G45        -0.3112
    500  C2'       -3.9060    9.2620  -14.7810 C.3    45  G45         0.2309
    501  O2'       -5.1710    8.9020  -15.3040 O.3    45  G45        -0.2156
    502  C1'       -3.1220   10.0830  -15.7960 C.3    45  G45         0.2408
    503  N1         0.9260    6.9720  -16.2120 N.ar   45  G45        -0.1709
    504  C2        -0.4090    6.7060  -16.4320 C.ar   45  G45         0.2606
    505  N2        -0.7240    5.4620  -16.8160 N.pl3  45  G45        -0.0859
    506  N3        -1.3730    7.6050  -16.2910 N.ar   45  G45        -0.1918
    507  C4        -0.9040    8.8190  -15.9020 C.ar   45  G45         0.1723
    508  C5         0.4040    9.1800  -15.6550 C.ar   45  G45         0.1748
    509  C6         1.4320    8.2110  -15.8110 C.ar   45  G45         0.3023
    510  O6         2.6520    8.3500  -15.6350 O.2    45  G45        -0.2633
    511  N7         0.4780   10.5130  -15.2760 N.ar   45  G45        -0.2173
    512  C8        -0.7630   10.9230  -15.2980 C.ar   45  G45         0.1817
    513  N9        -1.6630    9.9490  -15.6670 N.ar   45  G45        -0.2693
    514  OP1       -3.0750   14.4340  -11.5730 O.3    45  G45        -0.4373
    515  OP2       -0.7620   13.9500  -12.5590 O.co2  45  G45        -0.5172
    516  P         -4.4700    9.2850  -11.3180 P.3    46  G46         0.2141
    517  C5'       -4.9540    6.9040  -12.3030 C.3    46  G46         0.1812
    518  O5'       -4.0050    7.8200  -11.7640 O.3    46  G46        -0.3114
    519  C4'       -4.3020    5.5990  -12.7000 C.3    46  G46         0.1773
    520  O4'       -3.2490    5.8440  -13.6580 O.3    46  G46        -0.3307
    521  C3'       -3.6100    4.8510  -11.5770 C.3    46  G46         0.1860
    522  O3'       -4.5710    4.1270  -10.8150 O.3    46  G46        -0.3112
    523  C2'       -2.6730    3.9370  -12.3600 C.3    46  G46         0.2309
    524  O2'       -3.2910    2.7530  -12.8290 O.3    46  G46        -0.2156
    525  C1'       -2.2720    4.8240  -13.5410 C.3    46  G46         0.2408
    526  N1         2.7860    4.0950  -13.6180 N.ar   46  G46        -0.1709
    527  C2         1.7800    3.1960  -13.8840 C.ar   46  G46         0.2606
    528  N2         2.1660    1.9530  -14.2090 N.pl3  46  G46        -0.0859
    529  N3         0.4810    3.4980  -13.8330 N.ar   46  G46        -0.1918
    530  C4         0.2700    4.8010  -13.4930 C.ar   46  G46         0.1723
    531  C5         1.2080    5.7680  -13.2100 C.ar   46  G46         0.1748
    532  C6         2.5860    5.4310  -13.2660 C.ar   46  G46         0.3023
    533  O6         3.5600    6.1630  -13.0460 O.2    46  G46        -0.2633
    534  N7         0.5930    6.9740  -12.8990 N.ar   46  G46        -0.2173
    535  C8        -0.6800    6.7240  -12.9960 C.ar   46  G46         0.1817
    536  N9        -0.9540    5.4280  -13.3590 N.ar   46  G46        -0.2693
    537  OP1       -5.6330    9.1760  -10.4120 O.3    46  G46        -0.4373
    538  OP2       -3.2630   10.0190  -10.8840 O.co2  46  G46        -0.5172
    539  P         -4.5450    4.1450   -9.2150 P.3    47  G47         0.2141
    540  C5'       -6.0920    6.2550   -8.8430 C.3    47  G47         0.1812
    541  O5'       -5.9290    4.8440   -8.8180 O.3    47  G47        -0.3114
    542  C4'       -7.5100    6.6140   -9.2640 C.3    47  G47         0.1773
    543  O4'       -7.7240    6.2520  -10.6520 O.3    47  G47        -0.3307
    544  C3'       -8.6200    5.8840   -8.5240 C.3    47  G47         0.1860
    545  O3'       -8.8810    6.4800   -7.2490 O.3    47  G47        -0.3112
    546  C2'       -9.7720    6.0230   -9.5200 C.3    47  G47         0.2309
    547  O2'      -10.3650    7.3070   -9.5340 O.3    47  G47        -0.2156
    548  C1'       -9.0410    5.7590  -10.8350 C.3    47  G47         0.2408
    549  N1       -11.5870    1.5760  -12.3940 N.ar   47  G47        -0.1709
    550  C2       -12.0690    2.8510  -12.1800 C.ar   47  G47         0.2606
    551  N2       -13.3810    3.0320  -12.4050 N.pl3  47  G47        -0.0859
    552  N3       -11.3130    3.8720  -11.7760 N.ar   47  G47        -0.1918
    553  C4       -10.0110    3.5130  -11.5970 C.ar   47  G47         0.1723
    554  C5        -9.4400    2.2660  -11.7890 C.ar   47  G47         0.1748
    555  C6       -10.2560    1.1860  -12.2210 C.ar   47  G47         0.3023
    556  O6        -9.9240    0.0110  -12.4440 O.2    47  G47        -0.2633
    557  N7        -8.0850    2.2970  -11.4990 N.ar   47  G47        -0.2173
    558  C8        -7.8590    3.5290  -11.1480 C.ar   47  G47         0.1817
    559  N9        -8.9750    4.3340  -11.1840 N.ar   47  G47        -0.2693
    560  OP1       -3.4160    4.9980   -8.7660 O.3    47  G47        -0.4373
    561  OP2       -4.6520    2.7370   -8.7730 O.co2  47  G47        -0.5172
    562  P         -9.3220    5.5600   -6.0110 P.3    48  C48         0.2141
    563  C5'      -11.8770    6.1230   -6.3520 C.3    48  C48         0.1812
    564  O5'      -10.8210    5.1660   -6.3890 O.3    48  C48        -0.3114
    565  C4'      -13.1360    5.5080   -6.9300 C.3    48  C48         0.1773
    566  O4'      -12.8330    4.9390   -8.2300 O.3    48  C48        -0.3307
    567  C3'      -13.6900    4.3310   -6.1430 C.3    48  C48         0.1860
    568  O3'      -14.4730    4.7690   -5.0390 O.3    48  C48        -0.3112
    569  C2'      -14.5090    3.6060   -7.2090 C.3    48  C48         0.2309
    570  O2'      -15.7890    4.1740   -7.4190 O.3    48  C48        -0.2156
    571  C1'      -13.6250    3.7790   -8.4450 C.3    48  C48         0.2420
    572  N1       -12.7360    2.5870   -8.7240 N.ar   48  C48        -0.2535
    573  C2       -13.2670    1.4460   -9.3600 C.ar   48  C48         0.3532
    574  O2       -14.4590    1.4240   -9.6980 O.2    48  C48        -0.2443
    575  N3       -12.4490    0.3840   -9.5970 N.ar   48  C48        -0.1739
    576  C4       -11.1640    0.4280   -9.2310 C.ar   48  C48         0.1759
    577  N4       -10.4040   -0.6430   -9.4910 N.pl3  48  C48        -0.1070
    578  C5       -10.6020    1.5740   -8.5850 C.ar   48  C48         0.0566
    579  C6       -11.4160    2.6130   -8.3560 C.ar   48  C48         0.0850
    580  OP1       -9.3350    6.3960   -4.7920 O.3    48  C48        -0.4373
    581  OP2       -8.5210    4.3200   -6.0390 O.co2  48  C48        -0.5172
    582  P        -14.5650    3.8780   -3.7150 P.3    49  U49         0.2141
    583  C5'      -16.9370    2.9760   -4.3970 C.3    49  U49         0.1812
    584  O5'      -15.5720    2.7060   -4.1260 O.3    49  U49        -0.3114
    585  C4'      -17.6170    1.7520   -4.9790 C.3    49  U49         0.1773
    586  O4'      -16.9920    1.3920   -6.2380 O.3    49  U49        -0.3307
    587  C3'      -17.5080    0.4830   -4.1480 C.3    49  U49         0.1860
    588  O3'      -18.4660    0.4870   -3.0950 O.3    49  U49        -0.3112
    589  C2'      -17.7960   -0.5810   -5.2030 C.3    49  U49         0.2309
    590  O2'      -19.1760   -0.7230   -5.4900 O.3    49  U49        -0.2156
    591  C1'      -17.0500   -0.0180   -6.4130 C.3    49  U49         0.2420
    592  N1       -15.6570   -0.5870   -6.5540 N.ar   49  U49        -0.2534
    593  C2       -15.4880   -1.8580   -7.0900 C.ar   49  U49         0.3546
    594  O2       -16.4070   -2.5590   -7.4790 O.2    49  U49        -0.2443
    595  N3       -14.1830   -2.2870   -7.1660 N.ar   49  U49        -0.1530
    596  C4       -13.0520   -1.5990   -6.7630 C.ar   49  U49         0.2846
    597  O4       -11.9510   -2.1190   -6.8950 O.2    49  U49        -0.2650
    598  C5       -13.2990   -0.2890   -6.2130 C.ar   49  U49         0.0814
    599  C6       -14.5620    0.1540   -6.1290 C.ar   49  U49         0.0870
    600  OP1      -15.1790    4.7100   -2.6610 O.3    49  U49        -0.4373
    601  OP2      -13.2510    3.2470   -3.4720 O.co2  49  U49        -0.5172
    602  P        -18.0970   -0.1420   -1.6690 P.3    50  A50         0.2141
    603  C5'      -19.5220   -2.2730   -2.2480 C.3    50  A50         0.1812
    604  O5'      -18.2440   -1.7190   -1.9240 O.3    50  A50        -0.3114
    605  C4'      -19.4150   -3.6350   -2.9180 C.3    50  A50         0.1773
    606  O4'      -18.6100   -3.5430   -4.1160 O.3    50  A50        -0.3307
    607  C3'      -18.7380   -4.7250   -2.1020 C.3    50  A50         0.1860
    608  O3'      -19.6630   -5.3030   -1.1890 O.3    50  A50        -0.3112
    609  C2'      -18.3200   -5.7060   -3.1920 C.3    50  A50         0.2309
    610  O2'      -19.3740   -6.5640   -3.5940 O.3    50  A50        -0.2156
    611  C1'      -17.9210   -4.7640   -4.3290 C.3    50  A50         0.2408
    612  N1       -13.2260   -6.5660   -5.5320 N.ar   50  A50        -0.2040
    613  C2       -14.4390   -7.1260   -5.6130 C.ar   50  A50         0.2016
    614  N3       -15.6210   -6.6000   -5.2860 N.ar   50  A50        -0.2048
    615  C4       -15.4860   -5.3430   -4.8210 C.ar   50  A50         0.1692
    616  C5       -14.3050   -4.6370   -4.6800 C.ar   50  A50         0.1518
    617  C6       -13.1210   -5.3020   -5.0620 C.ar   50  A50         0.1919
    618  N6       -11.9120   -4.7440   -4.9810 N.pl3  50  A50        -0.1054
    619  N7       -14.5420   -3.3740   -4.1690 N.ar   50  A50        -0.2193
    620  C8       -15.8430   -3.3390   -4.0130 C.ar   50  A50         0.1816
    621  N9       -16.4810   -4.4920   -4.3870 N.ar   50  A50        -0.2693
    622  OP1      -19.1320    0.3120   -0.7110 O.3    50  A50        -0.4373
    623  OP2      -16.6730    0.1470   -1.3820 O.co2  50  A50        -0.5172
    624  P        -19.1940   -5.7570    0.2730 P.3    51  C51         0.2141
    625  C5'      -19.0060   -8.3160   -0.3010 C.3    51  C51         0.1812
    626  O5'      -18.3440   -7.0830   -0.0120 O.3    51  C51        -0.3114
    627  C4'      -18.0640   -9.3130   -0.9530 C.3    51  C51         0.1773
    628  O4'      -17.3630   -8.6780   -2.0520 O.3    51  C51        -0.3307
    629  C3'      -16.9430   -9.8340   -0.0660 C.3    51  C51         0.1860
    630  O3'      -17.3980  -10.8830    0.7870 O.3    51  C51        -0.3112
    631  C2'      -15.9410  -10.3200   -1.1100 C.3    51  C51         0.2309
    632  O2'      -16.2820  -11.5710   -1.6780 O.3    51  C51        -0.2156
    633  C1'      -16.0610   -9.2270   -2.1680 C.3    51  C51         0.2420
    634  N1       -15.0210   -8.1390   -2.0550 N.ar   51  C51        -0.2535
    635  C2       -13.7100   -8.3690   -2.5210 C.ar   51  C51         0.3532
    636  O2       -13.4140   -9.4650   -3.0190 O.2    51  C51        -0.2443
    637  N3       -12.7900   -7.3700   -2.4190 N.ar   51  C51        -0.1739
    638  C4       -13.1290   -6.1930   -1.8820 C.ar   51  C51         0.1759
    639  N4       -12.1840   -5.2500   -1.8020 N.pl3  51  C51        -0.1070
    640  C5       -14.4520   -5.9350   -1.4010 C.ar   51  C51         0.0566
    641  C6       -15.3520   -6.9240   -1.5070 C.ar   51  C51         0.0850
    642  OP1      -20.4160   -6.1070    1.0320 O.3    51  C51        -0.4373
    643  OP2      -18.2660   -4.7380    0.8150 O.co2  51  C51        -0.5172
    644  P        -16.8190  -11.0190    2.2750 P.3    52  U52         0.2141
    645  C5'      -14.7560  -12.6040    1.8180 C.3    52  U52         0.1812
    646  O5'      -15.2530  -11.2810    2.0380 O.3    52  U52        -0.3114
    647  C4'      -13.3160  -12.5780    1.3380 C.3    52  U52         0.1773
    648  O4'      -13.1580  -11.5430    0.3360 O.3    52  U52        -0.3307
    649  C3'      -12.2720  -12.2210    2.3850 C.3    52  U52         0.1860
    650  O3'      -11.9360  -13.3480    3.1950 O.3    52  U52        -0.3112
    651  C2'      -11.1100  -11.7830    1.4960 C.3    52  U52         0.2309
    652  O2'      -10.3650  -12.8640    0.9640 O.3    52  U52        -0.2156
    653  C1'      -11.8360  -11.0330    0.3820 C.3    52  U52         0.2420
    654  N1       -11.8600   -9.5440    0.5950 N.ar   52  U52        -0.2534
    655  C2       -10.7470   -8.7950    0.2450 C.ar   52  U52         0.3546
    656  O2        -9.7370   -9.2760   -0.2360 O.2    52  U52        -0.2443
    657  N3       -10.8590   -7.4440    0.4800 N.ar   52  U52        -0.1530
    658  C4       -11.9480   -6.7830    1.0270 C.ar   52  U52         0.2846
    659  O4       -11.9070   -5.5670    1.1750 O.2    52  U52        -0.2650
    660  C5       -13.0690   -7.6250    1.3680 C.ar   52  U52         0.0814
    661  C6       -12.9830   -8.9420    1.1450 C.ar   52  U52         0.0870
    662  OP1      -17.4400  -12.2180    2.8950 O.2    52  U52        -0.5172
    663  OP2      -16.9510   -9.7030    2.9470 O.co2  52  U52        -0.4373
    664  P        -11.3880  -13.1460    4.6920 P.3    53  G53         0.2141
    665  C5'       -8.8710  -12.9490    3.9170 C.3    53  G53         0.1812
    666  O5'      -10.0270  -12.3230    4.4840 O.3    53  G53        -0.3114
    667  C4'       -7.7100  -11.9770    3.7990 C.3    53  G53         0.1773
    668  O4'       -8.0120  -10.9400    2.8270 O.3    53  G53        -0.3307
    669  C3'       -7.3570  -11.2290    5.0780 C.3    53  G53         0.1860
    670  O3'       -6.5180  -12.0530    5.8990 O.3    53  G53        -0.3112
    671  C2'       -6.6480   -9.9960    4.5230 C.3    53  G53         0.2309
    672  O2'       -5.2980  -10.2460    4.1810 O.3    53  G53        -0.2156
    673  C1'       -7.4690   -9.7040    3.2620 C.3    53  G53         0.2408
    674  N1        -8.9860   -4.7980    3.3830 N.ar   53  G53        -0.1709
    675  C2        -7.7450   -5.3070    3.0900 C.ar   53  G53         0.2606
    676  N2        -6.8090   -4.3970    2.8020 N.pl3  53  G53        -0.0859
    677  N3        -7.4490   -6.6080    3.0890 N.ar   53  G53        -0.1918
    678  C4        -8.5280   -7.3780    3.4030 C.ar   53  G53         0.1723
    679  C5        -9.8090   -6.9550    3.7080 C.ar   53  G53         0.1748
    680  C6       -10.1000   -5.5650    3.7100 C.ar   53  G53         0.3023
    681  O6       -11.1770   -5.0030    3.9540 O.2    53  G53        -0.2633
    682  N7       -10.6370   -8.0380    3.9770 N.ar   53  G53        -0.2173
    683  C8        -9.8610   -9.0730    3.8350 C.ar   53  G53         0.1817
    684  N9        -8.5680   -8.7580    3.4850 N.ar   53  G53        -0.2693
    685  OP1      -11.0760  -14.4880    5.2360 O.2    53  G53        -0.5172
    686  OP2      -12.3330  -12.2670    5.4190 O.co2  53  G53        -0.4373
    687  P         -6.5160  -11.9620    7.5040 P.3    54  A54         0.2141
    688  C5'       -8.9360  -13.0510    7.5830 C.3    54  A54         0.1812
    689  O5'       -8.0600  -11.9800    7.9480 O.3    54  A54        -0.3114
    690  C4'       -9.3500  -13.9030    8.7710 C.3    54  A54         0.1773
    691  O4'       -8.2020  -14.6170    9.2900 O.3    54  A54        -0.3307
    692  C3'       -9.9240  -13.1620    9.9710 C.3    54  A54         0.1860
    693  O3'      -11.3210  -12.9140    9.7750 O.3    54  A54        -0.3112
    694  C2'       -9.6780  -14.1630   11.0990 C.3    54  A54         0.2309
    695  O2'      -10.7230  -15.1110   11.2240 O.3    54  A54        -0.2156
    696  C1'       -8.3830  -14.8610   10.6720 C.3    54  A54         0.2408
    697  N1        -5.1620  -15.6590   14.6440 N.ar   54  A54        -0.2040
    698  C2        -6.2560  -16.3190   14.2340 C.ar   54  A54         0.2016
    699  N3        -7.0500  -16.0610   13.1910 N.ar   54  A54        -0.2048
    700  C4        -6.6260  -14.9740   12.5160 C.ar   54  A54         0.1692
    701  C5        -5.5190  -14.1940   12.8170 C.ar   54  A54         0.1518
    702  C6        -4.7570  -14.5720   13.9470 C.ar   54  A54         0.1919
    703  N6        -3.6670  -13.9130   14.3560 N.pl3  54  A54        -0.1054
    704  N7        -5.3890  -13.1590   11.9060 N.ar   54  A54        -0.2193
    705  C8        -6.4000  -13.3320   11.0870 C.ar   54  A54         0.1816
    706  N9        -7.1900  -14.4060   11.3930 N.ar   54  A54        -0.2693
    707  OP1       -5.9330  -10.6500    7.8680 O.2    54  A54        -0.5172
    708  OP2       -5.8860  -13.2020    8.0060 O.co2  54  A54        -0.4373
    709  P        -12.0410  -11.6270   10.4110 P.3    55  C55         0.2141
    710  C5'      -13.1030  -12.8850   12.4870 C.3    55  C55         0.1812
    711  O5'      -12.1190  -11.9770   11.9740 O.3    55  C55        -0.3114
    712  C4'      -12.7800  -13.3180   13.9110 C.3    55  C55         0.1773
    713  O4'      -11.4220  -13.8150   13.9630 O.3    55  C55        -0.3307
    714  C3'      -12.8440  -12.2250   14.9730 C.3    55  C55         0.1860
    715  O3'      -14.1620  -12.1330   15.5170 O.3    55  C55        -0.3112
    716  C2'      -11.8470  -12.7040   16.0310 C.3    55  C55         0.2309
    717  O2'      -12.4570  -13.4560   17.0630 O.3    55  C55        -0.2156
    718  C1'      -10.8740  -13.5870   15.2470 C.3    55  C55         0.2420
    719  N1        -9.4950  -12.9930   15.1150 N.ar   55  C55        -0.2535
    720  C2        -8.4940  -13.3380   16.0450 C.ar   55  C55         0.3532
    721  O2        -8.7530  -14.1310   16.9630 O.2    55  C55        -0.2443
    722  N3        -7.2560  -12.7880   15.9100 N.ar   55  C55        -0.1739
    723  C4        -7.0020  -11.9340   14.9110 C.ar   55  C55         0.1759
    724  N4        -5.7690  -11.4240   14.8230 N.pl3  55  C55        -0.1070
    725  C5        -8.0020  -11.5700   13.9560 C.ar   55  C55         0.0566
    726  C6        -9.2190  -12.1160   14.0960 C.ar   55  C55         0.0850
    727  OP1      -13.4100  -11.5570    9.8500 O.2    55  C55        -0.5172
    728  OP2      -11.1360  -10.4660   10.2550 O.co2  55  C55        -0.4373
    729  P        -15.0980  -10.8560   15.2500 P.3    56  C56         0.2141
    730  C5'      -14.6200   -8.2720   15.2750 C.3    56  C56         0.1812
    731  O5'      -14.1470   -9.5970   15.5380 O.3    56  C56        -0.3114
    732  C4'      -13.5650   -7.4290   14.5700 C.3    56  C56         0.1773
    733  O4'      -12.3670   -7.3540   15.3890 O.3    56  C56        -0.3307
    734  C3'      -13.1250   -7.9250   13.1900 C.3    56  C56         0.1860
    735  O3'      -13.1190   -6.8370   12.2600 O.3    56  C56        -0.3112
    736  C2'      -11.7180   -8.4750   13.4380 C.3    56  C56         0.2309
    737  O2'      -10.8690   -8.3510   12.3120 O.3    56  C56        -0.2156
    738  C1'      -11.2330   -7.5790   14.5770 C.3    56  C56         0.2420
    739  N1       -10.1330   -8.1710   15.4180 N.ar   56  C56        -0.2535
    740  C2        -8.8780   -7.5350   15.4850 C.ar   56  C56         0.3532
    741  O2        -8.6840   -6.4890   14.8520 O.2    56  C56        -0.2443
    742  N3        -7.9000   -8.0890   16.2520 N.ar   56  C56        -0.1739
    743  C4        -8.1330   -9.2190   16.9290 C.ar   56  C56         0.1759
    744  N4        -7.1380   -9.7230   17.6700 N.pl3  56  C56        -0.1070
    745  C5        -9.3990   -9.8810   16.8760 C.ar   56  C56         0.0566
    746  C6       -10.3570   -9.3280   16.1190 C.ar   56  C56         0.0850
    747  OP1      -16.1750  -10.8780   16.2650 O.3    56  C56        -0.4373
    748  OP2      -15.4460  -10.8410   13.8110 O.co2  56  C56        -0.5172
    749  P        -14.2840   -6.6440   11.1710 P.3    57  C57         0.2141
    750  C5'      -16.0310   -4.9140   12.1630 C.3    57  C57         0.1812
    751  O5'      -14.8000   -5.1510   11.4710 O.3    57  C57        -0.3114
    752  C4'      -15.9150   -3.7560   13.1450 C.3    57  C57         0.1773
    753  O4'      -14.8420   -4.0100   14.0930 O.3    57  C57        -0.3307
    754  C3'      -15.5660   -2.4050   12.5330 C.3    57  C57         0.1860
    755  O3'      -16.7330   -1.7580   12.0240 O.3    57  C57        -0.3112
    756  C2'      -14.9640   -1.6670   13.7280 C.3    57  C57         0.2309
    757  O2'      -15.9400   -1.1120   14.5920 O.3    57  C57        -0.2156
    758  C1'      -14.2000   -2.7890   14.4380 C.3    57  C57         0.2420
    759  N1       -12.7300   -2.8550   14.0680 N.ar   57  C57        -0.2535
    760  C2       -11.8120   -1.9290   14.6160 C.ar   57  C57         0.3532
    761  O2       -12.2000   -1.0530   15.4080 O.2    57  C57        -0.2443
    762  N3       -10.5010   -2.0170   14.2560 N.ar   57  C57        -0.1739
    763  C4       -10.0910   -2.9660   13.3990 C.ar   57  C57         0.1759
    764  N4        -8.7910   -3.0070   13.0820 N.pl3  57  C57        -0.1070
    765  C5       -11.0010   -3.9140   12.8310 C.ar   57  C57         0.0566
    766  C6       -12.2900   -3.8210   13.1900 C.ar   57  C57         0.0850
    767  OP1      -15.3670   -7.6160   11.4540 O.3    57  C57        -0.4373
    768  OP2      -13.6440   -6.6300    9.8340 O.co2  57  C57        -0.5172
    769  P        -16.6760   -0.9390   10.6450 P.3    58  C58         0.2141
    770  C5'      -16.2880    1.4790   11.6240 C.3    58  C58         0.1812
    771  O5'      -15.7450    0.3140   11.0030 O.3    58  C58        -0.3114
    772  C4'      -15.2040    2.5070   11.9000 C.3    58  C58         0.1773
    773  O4'      -14.1360    1.8930   12.6680 O.3    58  C58        -0.3307
    774  C3'      -14.5170    3.0750   10.6660 C.3    58  C58         0.1860
    775  O3'      -15.2590    4.1750   10.1400 O.3    58  C58        -0.3112
    776  C2'      -13.1620    3.5060   11.2280 C.3    58  C58         0.2309
    777  O2'      -13.1970    4.7700   11.8670 O.3    58  C58        -0.2156
    778  C1'      -12.8780    2.4040   12.2490 C.3    58  C58         0.2420
    779  N1       -12.0080    1.2750   11.7280 N.ar   58  C58        -0.2535
    780  C2       -10.6220    1.4670   11.5380 C.ar   58  C58         0.3532
    781  O2       -10.1050    2.5640   11.7920 O.2    58  C58        -0.2443
    782  N3        -9.8730    0.4310   11.0700 N.ar   58  C58        -0.1739
    783  C4       -10.4430   -0.7480   10.7990 C.ar   58  C58         0.1759
    784  N4        -9.6610   -1.7320   10.3400 N.pl3  58  C58        -0.1070
    785  C5       -11.8420   -0.9680   10.9850 C.ar   58  C58         0.0566
    786  C6       -12.5720    0.0570   11.4440 C.ar   58  C58         0.0850
    787  OP1      -18.0460   -0.4640   10.3490 O.3    58  C58        -0.4373
    788  OP2      -15.9590   -1.7640    9.6460 O.co2  58  C58        -0.5172
    789  P        -15.3480    4.4280    8.5590 P.3    59  G59         0.2141
    790  C5'      -13.1260    4.0010    7.1980 C.3    59  G59         0.1812
    791  O5'      -13.8380    4.7850    8.1540 O.3    59  G59        -0.3114
    792  C4'      -11.6450    3.9840    7.5210 C.3    59  G59         0.1773
    793  O4'      -11.3400    2.8410    8.3550 O.3    59  G59        -0.3307
    794  C3'      -10.7190    3.8240    6.3280 C.3    59  G59         0.1860
    795  O3'      -10.4930    5.0770    5.6850 O.3    59  G59        -0.3112
    796  C2'       -9.4530    3.2890    6.9910 C.3    59  G59         0.2309
    797  O2'       -8.6420    4.2980    7.5650 O.3    59  G59        -0.2156
    798  C1'      -10.0260    2.3840    8.0790 C.3    59  G59         0.2408
    799  N1        -7.3340   -1.7010    6.5730 N.ar   59  G59        -0.1709
    800  C2        -6.8970   -0.4240    6.8570 C.ar   59  G59         0.2606
    801  N2        -5.5830   -0.1910    6.7270 N.pl3  59  G59        -0.0859
    802  N3        -7.6960    0.5650    7.2440 N.ar   59  G59        -0.1918
    803  C4        -8.9970    0.1760    7.3280 C.ar   59  G59         0.1723
    804  C5        -9.5300   -1.0690    7.0650 C.ar   59  G59         0.1748
    805  C6        -8.6650   -2.1190    6.6550 C.ar   59  G59         0.3023
    806  O6        -8.9620   -3.2910    6.3790 O.2    59  G59        -0.2633
    807  N7       -10.9040   -1.0660    7.2670 N.ar   59  G59        -0.2173
    808  C8       -11.1730    0.1550    7.6390 C.ar   59  G59         0.1817
    809  N9       -10.0660    0.9680    7.6990 N.ar   59  G59        -0.2693
    810  OP1      -16.1840    5.6330    8.3580 O.3    59  G59        -0.4373
    811  OP2      -15.7280    3.1520    7.9030 O.co2  59  G59        -0.5172
    812  P        -10.5410    5.1840    4.0880 P.3    60  C60         0.2141
    813  C5'       -7.9550    4.6760    3.9420 C.3    60  C60         0.1812
    814  O5'       -9.2930    4.3000    3.6110 O.3    60  C60        -0.3114
    815  C4'       -6.9870    3.5400    3.6620 C.3    60  C60         0.1773
    816  O4'       -7.3060    2.4020    4.4970 O.3    60  C60        -0.3307
    817  C3'       -7.0520    2.9670    2.2590 C.3    60  C60         0.1860
    818  O3'       -6.3440    3.7890    1.3440 O.3    60  C60        -0.3112
    819  C2'       -6.4240    1.5910    2.4500 C.3    60  C60         0.2309
    820  O2'       -5.0110    1.6250    2.5250 O.3    60  C60        -0.2156
    821  C1'       -7.0120    1.1970    3.8010 C.3    60  C60         0.2420
    822  N1        -8.2530    0.3320    3.7390 N.ar   60  C60        -0.2535
    823  C2        -8.1380   -1.0540    3.4920 C.ar   60  C60         0.3532
    824  O2        -7.0210   -1.5620    3.3140 O.2    60  C60        -0.2443
    825  N3        -9.2690   -1.8120    3.4530 N.ar   60  C60        -0.1739
    826  C4       -10.4680   -1.2470    3.6470 C.ar   60  C60         0.1759
    827  N4       -11.5490   -2.0350    3.5980 N.pl3  60  C60        -0.1070
    828  C5       -10.6070    0.1570    3.8990 C.ar   60  C60         0.0566
    829  C6        -9.4880    0.8950    3.9370 C.ar   60  C60         0.0850
    830  OP1      -10.3010    6.5990    3.7240 O.3    60  C60        -0.4373
    831  OP2      -11.7740    4.5040    3.6260 O.co2  60  C60        -0.5172
    832  P         -7.1810    4.6870    0.3150 P.3    61  C61         0.2141
    833  C5'       -5.4140    6.6080    0.6240 C.3    61  C61         0.1812
    834  O5'       -6.7690    6.1780    0.7290 O.3    61  C61        -0.3114
    835  C4'       -5.0700    7.5390    1.7700 C.3    61  C61         0.1773
    836  O4'       -5.0500    6.7970    3.0180 O.3    61  C61        -0.3307
    837  C3'       -3.6840    8.1520    1.6750 C.3    61  C61         0.1860
    838  O3'       -3.7020    9.3030    0.8350 O.3    61  C61        -0.3112
    839  C2'       -3.3930    8.4800    3.1340 C.3    61  C61         0.2309
    840  O2'       -4.0510    9.6520    3.5840 O.3    61  C61        -0.2156
    841  C1'       -3.9720    7.2450    3.8260 C.3    61  C61         0.2420
    842  N1        -2.9790    6.1160    4.0400 N.ar   61  C61        -0.2535
    843  C2        -1.9630    6.2390    5.0120 C.ar   61  C61         0.3532
    844  O2        -1.8770    7.2700    5.6930 O.2    61  C61        -0.2443
    845  N3        -1.0880    5.2110    5.1850 N.ar   61  C61        -0.1739
    846  C4        -1.1900    4.1010    4.4460 C.ar   61  C61         0.1759
    847  N4        -0.3020    3.1230    4.6590 N.pl3  61  C61        -0.1070
    848  C5        -2.2100    3.9520    3.4560 C.ar   61  C61         0.0566
    849  C6        -3.0690    4.9680    3.2920 C.ar   61  C61         0.0850
    850  OP1       -8.6240    4.5140    0.6040 O.3    61  C61        -0.4373
    851  OP2       -6.6640    4.4130   -1.0480 O.co2  61  C61        -0.5172
    852  P         -2.4510    9.6280   -0.1110 P.3    62  U62         0.2141
    853  C5'       -1.5820   11.4470    1.5800 C.3    62  U62         0.1812
    854  O5'       -1.3630   10.2010    0.9150 O.3    62  U62        -0.3114
    855  C4'       -0.4450   11.7660    2.5340 C.3    62  U62         0.1773
    856  O4'       -0.4050   10.7760    3.5930 O.3    62  U62        -0.3307
    857  C3'        0.9450   11.7280    1.9140 C.3    62  U62         0.1860
    858  O3'        1.2450   12.9720    1.2810 O.3    62  U62        -0.3112
    859  C2'        1.8250   11.4540    3.1340 C.3    62  U62         0.2309
    860  O2'        2.1380   12.6200    3.8720 O.3    62  U62        -0.2156
    861  C1'        0.9400   10.5170    3.9620 C.3    62  U62         0.2420
    862  N1         1.2550    9.0470    3.7740 N.ar   62  U62        -0.2534
    863  C2         2.3750    8.4960    4.3880 C.ar   62  U62         0.3546
    864  O2         3.1470    9.1240    5.0940 O.2    62  U62        -0.2443
    865  N3         2.5660    7.1540    4.1460 N.ar   62  U62        -0.1530
    866  C4         1.7760    6.3180    3.3730 C.ar   62  U62         0.2846
    867  O4         2.0790    5.1340    3.2530 O.2    62  U62        -0.2650
    868  C5         0.6350    6.9580    2.7640 C.ar   62  U62         0.0814
    869  C6         0.4240    8.2650    2.9840 C.ar   62  U62         0.0870
    870  OP1       -2.8540   10.7130   -1.0380 O.2    62  U62        -0.5172
    871  OP2       -1.9290    8.3510   -0.6560 O.co2  62  U62        -0.4373
    872  P          2.1660   13.0260   -0.0330 P.3    63  U63         0.2141
    873  C5'        4.4380   13.4950    1.2040 C.3    63  U63         0.1812
    874  O5'        3.6020   12.5740    0.5100 O.3    63  U63        -0.3114
    875  C4'        5.6970   12.8080    1.6930 C.3    63  U63         0.1773
    876  O4'        5.3410   11.7040    2.5640 O.3    63  U63        -0.3307
    877  C3'        6.5360   12.1540    0.6050 C.3    63  U63         0.1860
    878  O3'        7.3590   13.1040   -0.0570 O.3    63  U63        -0.3112
    879  C2'        7.3340   11.1360    1.4120 C.3    63  U63         0.2309
    880  O2'        8.4380   11.7010    2.0980 O.3    63  U63        -0.2156
    881  C1'        6.2710   10.6430    2.3960 C.3    63  U63         0.2420
    882  N1         5.5600    9.3820    1.9380 N.ar   63  U63        -0.2534
    883  C2         6.1670    8.1520    2.1480 C.ar   63  U63         0.3546
    884  O2         7.2510    8.0210    2.6880 O.2    63  U63        -0.2443
    885  N3         5.4540    7.0640    1.6980 N.ar   63  U63        -0.1530
    886  C4         4.2180    7.0760    1.0720 C.ar   63  U63         0.2846
    887  O4         3.7020    6.0180    0.7280 O.2    63  U63        -0.2650
    888  C5         3.6450    8.3880    0.8850 C.ar   63  U63         0.0814
    889  C6         4.3230    9.4640    1.3140 C.ar   63  U63         0.0870
    890  OP1        2.2260   14.4410   -0.4710 O.3    63  U63        -0.4373
    891  OP2        1.7010   11.9870   -0.9840 O.co2  63  U63        -0.5172
    892  P          7.7400   12.8930   -1.6000 P.3    64  C64         0.2141
    893  C5'       10.2480   12.2650   -1.1000 C.3    64  C64         0.1812
    894  O5'        8.9490   11.8400   -1.5250 O.3    64  C64        -0.3114
    895  C4'       11.1050   11.0870   -0.6630 C.3    64  C64         0.1773
    896  O4'       10.3650   10.2330    0.2470 O.3    64  C64        -0.3307
    897  C3'       11.5230   10.1350   -1.7740 C.3    64  C64         0.1860
    898  O3'       12.6120   10.6540   -2.5180 O.3    64  C64        -0.3112
    899  C2'       11.8970    8.8940   -0.9690 C.3    64  C64         0.2309
    900  O2'       13.1600    9.0030   -0.3320 O.3    64  C64        -0.2156
    901  C1'       10.7660    8.8800    0.0640 C.3    64  C64         0.2420
    902  N1         9.5840    8.0370   -0.3660 N.ar   64  C64        -0.2535
    903  C2         9.6550    6.6340   -0.2740 C.ar   64  C64         0.3532
    904  O2        10.6800    6.0980    0.1690 O.2    64  C64        -0.2443
    905  N3         8.5840    5.8930   -0.6720 N.ar   64  C64        -0.1739
    906  C4         7.4880    6.4930   -1.1490 C.ar   64  C64         0.1759
    907  N4         6.4660    5.7190   -1.5290 N.pl3  64  C64        -0.1070
    908  C5         7.3940    7.9140   -1.2570 C.ar   64  C64         0.0566
    909  C6         8.4510    8.6350   -0.8590 C.ar   64  C64         0.0850
    910  OP1        8.2500   14.1900   -2.1050 O.3    64  C64        -0.4373
    911  OP2        6.6070   12.2350   -2.2950 O.co2  64  C64        -0.5172
    912  P         12.5850   10.5720   -4.1160 P.3    65  A65         0.2141
    913  C5'       14.3010    8.5900   -3.9940 C.3    65  A65         0.1812
    914  O5'       13.0240    9.0600   -4.4100 O.3    65  A65        -0.3114
    915  C4'       14.3300    7.0760   -3.9070 C.3    65  A65         0.1773
    916  O4'       13.2800    6.5950   -3.0310 O.3    65  A65        -0.3307
    917  C3'       14.0460    6.3180   -5.1940 C.3    65  A65         0.1860
    918  O3'       15.1470    6.3860   -6.1100 O.3    65  A65        -0.3112
    919  C2'       13.8230    4.9230   -4.6140 C.3    65  A65         0.2309
    920  O2'       15.0230    4.2920   -4.2050 O.3    65  A65        -0.2156
    921  C1'       12.9760    5.2520   -3.3810 C.3    65  A65         0.2408
    922  N1         9.1030    1.9630   -4.3160 N.ar   65  A65        -0.2040
    923  C2        10.4170    1.7680   -4.1310 C.ar   65  A65         0.2016
    924  N3        11.3670    2.6720   -3.8850 N.ar   65  A65        -0.2048
    925  C4        10.8550    3.9200   -3.8420 C.ar   65  A65         0.1692
    926  C5         9.5270    4.2760   -4.0200 C.ar   65  A65         0.1518
    927  C6         8.6150    3.2230   -4.2700 C.ar   65  A65         0.1919
    928  N6         7.3050    3.4070   -4.4590 N.pl3  65  A65        -0.1054
    929  N7         9.3700    5.6480   -3.9080 N.ar   65  A65        -0.2193
    930  C8        10.5870    6.0870   -3.6710 C.ar   65  A65         0.1816
    931  N9        11.5350    5.1000   -3.6160 N.ar   65  A65        -0.2693
    932  OP1       13.6270   11.5000   -4.6150 O.2    65  A65        -0.5172
    933  OP2       11.1840   10.7270   -4.5770 O.co2  65  A65        -0.4373
    934  P         14.8870    6.4410   -7.6950 P.3    66  A66         0.2141
    935  C5'       15.8000    3.9900   -7.9080 C.3    66  A66         0.1812
    936  O5'       14.7120    4.8940   -8.0750 O.3    66  A66        -0.3114
    937  C4'       15.3310    2.5500   -7.9730 C.3    66  A66         0.1773
    938  O4'       14.3290    2.3030   -6.9540 O.3    66  A66        -0.3307
    939  C3'       14.6300    2.1520   -9.2580 C.3    66  A66         0.1860
    940  O3'       15.5620    1.9000  -10.3040 O.3    66  A66        -0.3112
    941  C2'       13.8800    0.9040   -8.8080 C.3    66  A66         0.2309
    942  O2'       14.7010   -0.2430   -8.6840 O.3    66  A66        -0.2156
    943  C1'       13.3850    1.3600   -7.4410 C.3    66  A66         0.2408
    944  N1         8.3180    0.5330   -7.9920 N.ar   66  A66        -0.2040
    945  C2         9.3670   -0.3030   -8.0040 C.ar   66  A66         0.2016
    946  N3        10.6640   -0.0170   -7.8490 N.ar   66  A66        -0.2048
    947  C4        10.8540    1.3060   -7.6700 C.ar   66  A66         0.1692
    948  C5         9.8760    2.2860   -7.6370 C.ar   66  A66         0.1518
    949  C6         8.5400    1.8550   -7.8070 C.ar   66  A66         0.1919
    950  N6         7.4950    2.6880   -7.7960 N.pl3  66  A66        -0.1054
    951  N7        10.4400    3.5350   -7.4360 N.ar   66  A66        -0.2193
    952  C8        11.7270    3.2910   -7.3520 C.ar   66  A66         0.1816
    953  N9        12.0500    1.9670   -7.4860 N.ar   66  A66        -0.2693
    954  OP1       16.1090    6.9630   -8.3480 O.2    66  A66        -0.5172
    955  OP2       13.5930    7.1240   -7.9390 O.co2  66  A66        -0.4373
    956  P         15.2480    2.4570  -11.7750 P.3    67  A67         0.2141
    957  C5'       14.6410   -0.0020  -12.4560 C.3    67  A67         0.1812
    958  O5'       14.2380    1.3620  -12.3640 O.3    67  A67        -0.3114
    959  C4'       13.4500   -0.9360  -12.5200 C.3    67  A67         0.1773
    960  O4'       12.6320   -0.7520  -11.3380 O.3    67  A67        -0.3307
    961  C3'       12.4860   -0.7030  -13.6740 C.3    67  A67         0.1860
    962  O3'       12.9560   -1.3070  -14.8770 O.3    67  A67        -0.3112
    963  C2'       11.2280   -1.3690  -13.1270 C.3    67  A67         0.2309
    964  O2'       11.2910   -2.7840  -13.1740 O.3    67  A67        -0.2156
    965  C1'       11.2650   -0.8820  -11.6830 C.3    67  A67         0.2408
    966  N1         6.7440    1.5170  -11.0900 N.ar   67  A67        -0.2040
    967  C2         7.0540    0.2270  -11.2890 C.ar   67  A67         0.2016
    968  N3         8.2590   -0.3280  -11.4340 N.ar   67  A67        -0.2048
    969  C4         9.2300    0.6030  -11.3630 C.ar   67  A67         0.1692
    970  C5         9.0660    1.9670  -11.1620 C.ar   67  A67         0.1518
    971  C6         7.7370    2.4320  -11.0200 C.ar   67  A67         0.1919
    972  N6         7.4140    3.7140  -10.8200 N.pl3  67  A67        -0.1054
    973  N7        10.2910    2.6110  -11.1410 N.ar   67  A67        -0.2193
    974  C8        11.1570    1.6410  -11.3250 C.ar   67  A67         0.1816
    975  N9        10.5870    0.4010  -11.4670 N.ar   67  A67        -0.2693
    976  OP1       16.5180    2.4190  -12.5340 O.2    67  A67        -0.5172
    977  OP2       14.5050    3.7360  -11.6530 O.co2  67  A67        -0.4373
    978  P         12.4750   -0.7420  -16.2990 P.3    68  C68         0.2141
    979  C5'        9.9220   -0.3770  -16.6760 C.3    68  C68         0.1812
    980  O5'       10.9710   -1.2720  -16.3860 O.3    68  C68        -0.3114
    981  C4'        8.5990   -0.9460  -16.2170 C.3    68  C68         0.1773
    982  O4'        8.2690   -0.4030  -14.9170 O.3    68  C68        -0.3307
    983  C3'        7.4450   -0.5600  -17.1210 C.3    68  C68         0.1860
    984  O3'        7.2970   -1.5410  -18.1420 O.3    68  C68        -0.3112
    985  C2'        6.2480   -0.4970  -16.1730 C.3    68  C68         0.2309
    986  O2'        5.6340   -1.7580  -15.9620 O.3    68  C68        -0.2156
    987  C1'        6.9030   -0.0210  -14.8800 C.3    68  C68         0.2420
    988  N1         6.7790    1.4590  -14.5850 N.ar   68  C68        -0.2535
    989  C2         5.5830    1.9480  -14.0250 C.ar   68  C68         0.3532
    990  O2         4.6480    1.1660  -13.8050 O.2    68  C68        -0.2443
    991  N3         5.4780    3.2750  -13.7410 N.ar   68  C68        -0.1739
    992  C4         6.5000    4.1000  -13.9860 C.ar   68  C68         0.1759
    993  N4         6.3350    5.3910  -13.6820 N.pl3  68  C68        -0.1070
    994  C5         7.7310    3.6280  -14.5510 C.ar   68  C68         0.0566
    995  C6         7.8260    2.3160  -14.8290 C.ar   68  C68         0.0850
    996  OP1       13.2490   -1.4160  -17.3650 O.2    68  C68        -0.5172
    997  OP2       12.4540    0.7360  -16.2330 O.co2  68  C68        -0.4373
    998  P          6.9310   -1.0810  -19.6260 P.3    69  C69         0.2141
    999  C5'        4.3680   -1.4440  -19.0740 C.3    69  C69         0.1812
   1000  O5'        5.4230   -0.5730  -19.4740 O.3    69  C69        -0.3114
   1001  C4'        3.0900   -0.6410  -18.9330 C.3    69  C69         0.1773
   1002  O4'        3.2880    0.3930  -17.9370 O.3    69  C69        -0.3307
   1003  C3'        2.6920    0.0760  -20.2190 C.3    69  C69         0.1860
   1004  O3'        1.4470   -0.3990  -20.6940 O.3    69  C69        -0.3112
   1005  C2'        2.6460    1.5620  -19.8660 C.3    69  C69         0.2309
   1006  O2'        1.5060    2.2270  -20.3890 O.3    69  C69        -0.2156
   1007  C1'        2.6010    1.5550  -18.3440 C.3    69  C69         0.2420
   1008  N1         3.2460    2.7790  -17.7730 N.ar   69  C69        -0.2535
   1009  C2         2.4400    3.8500  -17.3510 C.ar   69  C69         0.3532
   1010  O2         1.2090    3.7580  -17.4320 O.2    69  C69        -0.2443
   1011  N3         3.0360    4.9630  -16.8510 N.ar   69  C69        -0.1739
   1012  C4         4.3680    5.0330  -16.7740 C.ar   69  C69         0.1759
   1013  N4         4.9020    6.1510  -16.2750 N.pl3  69  C69        -0.1070
   1014  C5         5.2070    3.9610  -17.2080 C.ar   69  C69         0.0566
   1015  C6         4.6120    2.8670  -17.6990 C.ar   69  C69         0.0850
   1016  OP1        6.9690   -2.2840  -20.4880 O.2    69  C69        -0.5172
   1017  OP2        7.7560    0.1000  -19.9720 O.co2  69  C69        -0.4373
   1018  P          1.2590   -0.6370  -22.2690 P.3    70  U70         0.2141
   1019  C5'       -1.2670   -0.1400  -21.7870 C.3    70  U70         0.1812
   1020  O5'       -0.1260    0.1020  -22.5910 O.3    70  U70        -0.3114
   1021  C4'       -2.3910   -0.7520  -22.6000 C.3    70  U70         0.1773
   1022  O4'       -1.9110   -1.8200  -23.4570 O.3    70  U70        -0.3307
   1023  C3'       -3.4660   -1.4300  -21.7760 C.3    70  U70         0.1860
   1024  O3'       -4.3250   -0.4600  -21.2160 O.3    70  U70        -0.3112
   1025  C2'       -4.1570   -2.2540  -22.8530 C.3    70  U70         0.2309
   1026  O2'       -5.0020   -1.4740  -23.6780 O.3    70  U70        -0.2156
   1027  C1'       -2.9610   -2.7540  -23.6600 C.3    70  U70         0.2420
   1028  N1        -2.5000   -4.1480  -23.2930 N.ar   70  U70        -0.2534
   1029  C2        -3.2810   -5.2580  -23.6240 C.ar   70  U70         0.3546
   1030  O2        -4.3510   -5.1940  -24.2070 O.2    70  U70        -0.2443
   1031  N3        -2.7530   -6.4720  -23.2470 N.ar   70  U70        -0.1530
   1032  C4        -1.5580   -6.6890  -22.5820 C.ar   70  U70         0.2846
   1033  O4        -1.2180   -7.8300  -22.3030 O.2    70  U70        -0.2650
   1034  C5        -0.8050   -5.4990  -22.2720 C.ar   70  U70         0.0814
   1035  C6        -1.2930   -4.3040  -22.6320 C.ar   70  U70         0.0870
   1036  OP1        1.1020   -2.0990  -22.4660 O.3    70  U70        -0.4373
   1037  OP2        2.3210    0.0940  -22.9980 O.co2  70  U70        -0.5172
   1038  P         -5.3690   -0.8240  -20.0630 P.3    71  A71         0.2141
   1039  C5'       -3.7120   -0.0260  -18.1950 C.3    71  A71         0.1812
   1040  O5'       -4.9130    0.1960  -18.9220 O.3    71  A71        -0.3114
   1041  C4'       -3.8320    0.5670  -16.8050 C.3    71  A71         0.1773
   1042  O4'       -4.3590    1.9130  -16.9190 O.3    71  A71        -0.3307
   1043  C3'       -4.7650   -0.1850  -15.8520 C.3    71  A71         0.1860
   1044  O3'       -4.1510   -0.3220  -14.5900 O.3    71  A71        -0.3112
   1045  C2'       -5.9930    0.7120  -15.7430 C.3    71  A71         0.2309
   1046  O2'       -6.5870    0.6710  -14.4610 O.3    71  A71        -0.2156
   1047  C1'       -5.4060    2.0920  -15.9910 C.3    71  A71         0.2408
   1048  N1        -8.4230    6.2080  -15.2730 N.ar   71  A71        -0.2040
   1049  C2        -7.5560    5.5830  -14.4560 C.ar   71  A71         0.2016
   1050  N3        -6.7930    4.5140  -14.7050 N.ar   71  A71        -0.2048
   1051  C4        -6.9860    4.0680  -15.9580 C.ar   71  A71         0.1692
   1052  C5        -7.8450    4.5960  -16.9040 C.ar   71  A71         0.1518
   1053  C6        -8.5940    5.7290  -16.5260 C.ar   71  A71         0.1919
   1054  N6        -9.4570    6.3320  -17.3380 N.pl3  71  A71        -0.1054
   1055  N7        -7.7840    3.8730  -18.0790 N.ar   71  A71        -0.2193
   1056  C8        -6.9090    2.9320  -17.8300 C.ar   71  A71         0.1816
   1057  N9        -6.3850    2.9940  -16.5710 N.ar   71  A71        -0.2693
   1058  OP1       -5.1360   -2.2120  -19.6080 O.3    71  A71        -0.4373
   1059  OP2       -6.7110   -0.4240  -20.5390 O.co2  71  A71        -0.5172
   1060  P         -3.6820   -1.7490  -14.0440 P.3    72  U72         0.2141
   1061  C5'       -1.8960   -0.5160  -12.6370 C.3    72  U72         0.1812
   1062  O5'       -3.0750   -1.3040  -12.6410 O.3    72  U72        -0.3114
   1063  C4'       -0.7430   -1.3370  -12.0930 C.3    72  U72         0.1773
   1064  O4'        0.4950   -0.5830  -12.2100 O.3    72  U72        -0.3307
   1065  C3'       -0.8770   -1.6790  -10.6130 C.3    72  U72         0.1860
   1066  O3'       -0.2140   -2.9130  -10.3330 O.3    72  U72        -0.3112
   1067  C2'       -0.1610   -0.4880   -9.9890 C.3    72  U72         0.2309
   1068  O2'        0.2060   -0.6950   -8.6400 O.3    72  U72        -0.2156
   1069  C1'        1.0490   -0.4510  -10.9180 C.3    72  U72         0.2420
   1070  N1         1.9220    0.7690  -10.8360 N.ar   72  U72        -0.2534
   1071  C2         3.2700    0.6370  -11.1380 C.ar   72  U72         0.3546
   1072  O2         3.7860   -0.4170  -11.4790 O.2    72  U72        -0.2443
   1073  N3         4.0050    1.7940  -11.0270 N.ar   72  U72        -0.1530
   1074  C4         3.5430    3.0440  -10.6520 C.ar   72  U72         0.2846
   1075  O4         4.3240    3.9910  -10.5990 O.2    72  U72        -0.2650
   1076  C5         2.1310    3.1040  -10.3550 C.ar   72  U72         0.0814
   1077  C6         1.3900    1.9900  -10.4540 C.ar   72  U72         0.0870
   1078  OP1       -2.5940   -2.2620  -14.9140 O.2    72  U72        -0.5172
   1079  OP2       -4.8790   -2.5790  -13.7840 O.co2  72  U72        -0.4373
   1080  P         -1.0350   -4.2850  -10.1770 P.3    73  U73         0.2141
   1081  C5'        0.6170   -4.7430   -8.1790 C.3    73  U73         0.1812
   1082  O5'       -0.0170   -5.2240   -9.3680 O.3    73  U73        -0.3114
   1083  C4'        2.1190   -4.9440   -8.2770 C.3    73  U73         0.1773
   1084  O4'        2.7100   -3.9690   -9.1800 O.3    73  U73        -0.3307
   1085  C3'        2.9060   -4.7270   -6.9960 C.3    73  U73         0.1860
   1086  O3'        2.7500   -5.8020   -6.0710 O.3    73  U73        -0.3112
   1087  C2'        4.3170   -4.6250   -7.5680 C.3    73  U73         0.2309
   1088  O2'        4.8620   -5.8760   -7.9470 O.3    73  U73        -0.2156
   1089  C1'        4.0660   -3.7600   -8.8020 C.3    73  U73         0.2420
   1090  N1         4.3330   -2.2910   -8.5610 N.ar   73  U73        -0.2534
   1091  C2         5.6260   -1.8050   -8.6880 C.ar   73  U73         0.3546
   1092  O2         6.5830   -2.4990   -8.9920 O.2    73  U73        -0.2443
   1093  N3         5.7630   -0.4560   -8.4430 N.ar   73  U73        -0.1530
   1094  C4         4.7650    0.4400   -8.0900 C.ar   73  U73         0.2846
   1095  O4         5.0400    1.6210   -7.9010 O.2    73  U73        -0.2650
   1096  C5         3.4500   -0.1390   -7.9670 C.ar   73  U73         0.0814
   1097  C6         3.2890   -1.4500   -8.2050 C.ar   73  U73         0.0870
   1098  OP1       -1.2250   -4.8520  -11.5330 O.2    73  U73        -0.5172
   1099  OP2       -2.2040   -4.0350   -9.3020 O.co2  73  U73        -0.4373
   1100  P          2.7880   -5.4990   -4.4970 P.3    74  U74         0.2141
   1101  C5'        5.3090   -6.2750   -4.3560 C.3    74  U74         0.1812
   1102  O5'        4.3410   -5.2360   -4.2120 O.3    74  U74        -0.3114
   1103  C4'        6.7130   -5.6960   -4.4170 C.3    74  U74         0.1773
   1104  O4'        6.8020   -4.6910   -5.4610 O.3    74  U74        -0.3307
   1105  C3'        7.1680   -4.9430   -3.1790 C.3    74  U74         0.1860
   1106  O3'        7.5540   -5.8290   -2.1340 O.3    74  U74        -0.3112
   1107  C2'        8.3400   -4.1510   -3.7510 C.3    74  U74         0.2309
   1108  O2'        9.5060   -4.9300   -3.9410 O.3    74  U74        -0.2156
   1109  C1'        7.7620   -3.7110   -5.0960 C.3    74  U74         0.2420
   1110  N1         7.1210   -2.3410   -5.0400 N.ar   74  U74        -0.2534
   1111  C2         7.9280   -1.2080   -5.0340 C.ar   74  U74         0.3546
   1112  O2         9.1460   -1.2410   -5.0820 O.2    74  U74        -0.2443
   1113  N3         7.2490   -0.0130   -4.9740 N.ar   74  U74        -0.1530
   1114  C4         5.8770    0.1690   -4.9140 C.ar   74  U74         0.2846
   1115  O4         5.4180    1.3050   -4.8630 O.2    74  U74        -0.2650
   1116  C5         5.1010   -1.0480   -4.9210 C.ar   74  U74         0.0814
   1117  C6         5.7380   -2.2290   -4.9800 C.ar   74  U74         0.0870
   1118  OP1        2.3590   -6.7250   -3.7850 O.3    74  U74        -0.4373
   1119  OP2        2.0830   -4.2210   -4.2500 O.co2  74  U74        -0.5172
   1120  P          7.4260   -5.3620   -0.6050 P.3    75  G75         0.2141
   1121  C5'        9.9910   -4.8530   -0.3570 C.3    75  G75         0.1812
   1122  O5'        8.6590   -4.3490   -0.4490 O.3    75  G75        -0.3114
   1123  C4'       11.0170   -3.7340   -0.3080 C.3    75  G75         0.1773
   1124  O4'       10.8530   -2.8330   -1.4350 O.3    75  G75        -0.3307
   1125  C3'       10.9310   -2.8070    0.8940 C.3    75  G75         0.1860
   1126  O3'       11.4740   -3.4190    2.0590 O.3    75  G75        -0.3112
   1127  C2'       11.7660   -1.6330    0.3910 C.3    75  G75         0.2309
   1128  O2'       13.1620   -1.8700    0.4280 O.3    75  G75        -0.2156
   1129  C1'       11.2700   -1.5280   -1.0550 C.3    75  G75         0.2408
   1130  N1         9.6670    3.3160   -0.6570 N.ar   75  G75        -0.1709
   1131  C2        10.9270    2.7990   -0.4490 C.ar   75  G75         0.2606
   1132  N2        11.8800    3.6710   -0.0910 N.pl3  75  G75        -0.0859
   1133  N3        11.2310    1.5120   -0.5860 N.ar   75  G75        -0.1918
   1134  C4        10.1540    0.7620   -0.9540 C.ar   75  G75         0.1723
   1135  C5         8.8600    1.1860   -1.1810 C.ar   75  G75         0.1748
   1136  C6         8.5500    2.5640   -1.0330 C.ar   75  G75         0.3023
   1137  O6         7.4570    3.1250   -1.1970 O.2    75  G75        -0.2633
   1138  N7         8.0490    0.1180   -1.5420 N.ar   75  G75        -0.2173
   1139  C8         8.8470   -0.9110   -1.5230 C.ar   75  G75         0.1817
   1140  N9        10.1430   -0.6000   -1.1830 N.ar   75  G75        -0.2693
   1141  OP1        7.6490   -6.5500    0.2510 O.3    75  G75        -0.4373
   1142  OP2        6.1760   -4.5810   -0.4530 O.co2  75  G75        -0.5172
   1143  P         10.8110   -3.1450    3.4960 P.3    76  G76         0.2141
   1144  C5'       12.6390   -1.3570    4.0810 C.3    76  G76         0.1812
   1145  O5'       11.2670   -1.6390    3.8110 O.3    76  G76        -0.3114
   1146  C4'       12.9060    0.1230    4.3040 C.3    76  G76         0.1773
   1147  O4'       12.5910    0.8940    3.1170 O.3    76  G76        -0.3307
   1148  C3'       12.0830    0.8250    5.3740 C.3    76  G76         0.1860
   1149  O3'       12.4880    0.4670    6.6900 O.3    76  G76        -0.3112
   1150  C2'       12.4100    2.2770    5.0290 C.3    76  G76         0.2309
   1151  O2'       13.7160    2.6750    5.4120 O.3    76  G76        -0.2156
   1152  C1'       12.2870    2.2280    3.5060 C.3    76  G76         0.2408
   1153  N1         8.9020    5.9760    2.7810 N.ar   76  G76        -0.1709
   1154  C2        10.1970    6.0540    3.2470 C.ar   76  G76         0.2606
   1155  N2        10.6480    7.2790    3.5600 N.pl3  76  G76        -0.0859
   1156  N3        10.9940    5.0000    3.3920 N.ar   76  G76        -0.1918
   1157  C4        10.3790    3.8410    3.0310 C.ar   76  G76         0.1723
   1158  C5         9.0950    3.6650    2.5590 C.ar   76  G76         0.1748
   1159  C6         8.2580    4.7960    2.4050 C.ar   76  G76         0.3023
   1160  O6         7.0880    4.8290    1.9980 O.2    76  G76        -0.2633
   1161  N7         8.8410    2.3270    2.3000 N.ar   76  G76        -0.2173
   1162  C8         9.9530    1.7250    2.6160 C.ar   76  G76         0.1817
   1163  N9        10.9360    2.5790    3.0620 N.ar   76  G76        -0.2693
   1164  OP1       11.4440   -4.0670    4.4650 O.3    76  G76        -0.4373
   1165  OP2        9.3360   -3.1520    3.3410 O.co2  76  G76        -0.5172
   1166  P         11.4040    0.3910    7.8700 P.3    77  A77         0.2141
   1167  C5'       11.7400    2.8490    8.7000 C.3    77  A77         0.1812
   1168  O5'       10.9180    1.9080    8.0210 O.3    77  A77        -0.3114
   1169  C4'       11.2390    4.2710    8.5240 C.3    77  A77         0.1773
   1170  O4'       10.8860    4.5300    7.1430 O.3    77  A77        -0.3307
   1171  C3'        9.9680    4.6220    9.2760 C.3    77  A77         0.1860
   1172  O3'       10.2340    4.8370   10.6560 O.3    77  A77        -0.3112
   1173  C2'        9.5720    5.9050    8.5510 C.3    77  A77         0.2309
   1174  O2'       10.3480    7.0290    8.9350 O.3    77  A77        -0.2156
   1175  C1'        9.8660    5.5180    7.0990 C.3    77  A77         0.2408
   1176  N1         5.2090    6.5080    5.0720 N.ar   77  A77        -0.2040
   1177  C2         6.1080    7.3030    5.6740 C.ar   77  A77         0.2016
   1178  N3         7.3030    6.9800    6.1770 N.ar   77  A77        -0.2048
   1179  C4         7.5610    5.6660    6.0180 C.ar   77  A77         0.1692
   1180  C5         6.7340    4.7280    5.4200 C.ar   77  A77         0.1518
   1181  C6         5.4940    5.1930    4.9230 C.ar   77  A77         0.1919
   1182  N6         4.5940    4.4050    4.3220 N.pl3  77  A77        -0.1054
   1183  N7         7.3270    3.4770    5.4350 N.ar   77  A77        -0.2193
   1184  C8         8.4770    3.6770    6.0320 C.ar   77  A77         0.1816
   1185  N9         8.6900    4.9750    6.4100 N.ar   77  A77        -0.2693
   1186  OP1       12.1150   -0.0220    9.1030 O.3    77  A77        -0.4373
   1187  OP2       10.2500   -0.4050    7.3940 O.co2  77  A77        -0.5172
   1188  P          9.2410    4.2450   11.7700 P.3    78  G78         0.2141
   1189  C5'        7.8100    6.4390   11.9140 C.3    78  G78         0.1812
   1190  O5'        7.8890    5.0710   11.5240 O.3    78  G78        -0.3114
   1191  C4'        6.6650    7.1660   11.2280 C.3    78  G78         0.1773
   1192  O4'        6.6240    6.8550    9.8120 O.3    78  G78        -0.3307
   1193  C3'        5.2650    6.7950   11.6860 C.3    78  G78         0.1860
   1194  O3'        4.9670    7.3530   12.9620 O.3    78  G78        -0.3112
   1195  C2'        4.4500    7.4290   10.5620 C.3    78  G78         0.2309
   1196  O2'        4.3540    8.8390   10.6620 O.3    78  G78        -0.2156
   1197  C1'        5.2930    7.0340    9.3470 C.3    78  G78         0.2408
   1198  N1         1.5840    4.8830    6.5730 N.ar   78  G78        -0.1709
   1199  C2         1.6990    6.1820    7.0210 C.ar   78  G78         0.2606
   1200  N2         0.7050    7.0230    6.6970 N.pl3  78  G78        -0.0859
   1201  N3         2.7250    6.6280    7.7410 N.ar   78  G78        -0.1918
   1202  C4         3.6430    5.6550    7.9880 C.ar   78  G78         0.1723
   1203  C5         3.6170    4.3330    7.5870 C.ar   78  G78         0.1748
   1204  C6         2.5160    3.8700    6.8140 C.ar   78  G78         0.3023
   1205  O6         2.3170    2.7310    6.3620 O.2    78  G78        -0.2633
   1206  N7         4.7470    3.6610    8.0400 N.ar   78  G78        -0.2173
   1207  C8         5.4190    4.5690    8.6940 C.ar   78  G78         0.1817
   1208  N9         4.8140    5.8060    8.7020 N.ar   78  G78        -0.2693
   1209  OP1        9.7980    4.5940   13.0980 O.3    78  G78        -0.4373
   1210  OP2        8.9730    2.8240   11.4430 O.co2  78  G78        -0.5172
   1211  P          3.8700    6.6640   13.9090 P.3    79  A79         0.2141
   1212  C5'        2.2020    8.6020   13.3080 C.3    79  A79         0.1812
   1213  O5'        2.4890    7.2040   13.3060 O.3    79  A79        -0.3114
   1214  C4'        0.9640    8.9160   12.4860 C.3    79  A79         0.1773
   1215  O4'        1.1420    8.4660   11.1230 O.3    79  A79        -0.3307
   1216  C3'       -0.3140    8.2230   12.9330 C.3    79  A79         0.1860
   1217  O3'       -0.8890    8.9220   14.0350 O.3    79  A79        -0.3112
   1218  C2'       -1.1670    8.3350   11.6690 C.3    79  A79         0.2309
   1219  O2'       -1.7460    9.6190   11.5090 O.3    79  A79        -0.2156
   1220  C1'       -0.1190    8.1030   10.5780 C.3    79  A79         0.2408
   1221  N1        -2.4910    4.3280    7.9270 N.ar   79  A79        -0.2040
   1222  C2        -2.8690    5.5820    8.2250 C.ar   79  A79         0.2016
   1223  N3        -2.2050    6.5150    8.9160 N.ar   79  A79        -0.2048
   1224  C4        -1.0110    6.0500    9.3390 C.ar   79  A79         0.1692
   1225  C5        -0.4900    4.7840    9.1140 C.ar   79  A79         0.1518
   1226  C6        -1.2880    3.8870    8.3650 C.ar   79  A79         0.1919
   1227  N6        -0.9100    2.6350    8.0720 N.pl3  79  A79        -0.1054
   1228  N7         0.7580    4.6560    9.6980 N.ar   79  A79        -0.2193
   1229  C8         0.9660    5.8260   10.2570 C.ar   79  A79         0.1816
   1230  N9        -0.0570    6.7200   10.0820 N.ar   79  A79        -0.2693
   1231  OP1        4.0560    7.2080   15.2720 O.3    79  A79        -0.4373
   1232  OP2        3.9070    5.1980   13.6980 O.co2  79  A79        -0.5172
   1233  P         -1.6230    8.1240   15.2180 P.3    80  C80         0.2141
   1234  C5'       -3.9880    8.4790   14.1210 C.3    80  C80         0.1812
   1235  O5'       -2.9540    7.5760   14.5100 O.3    80  C80        -0.3114
   1236  C4'       -5.0860    7.7500   13.3690 C.3    80  C80         0.1773
   1237  O4'       -4.5390    7.1430   12.1730 O.3    80  C80        -0.3307
   1238  C3'       -5.7140    6.5900   14.1210 C.3    80  C80         0.1860
   1239  O3'       -6.7300    7.0580   15.0100 O.3    80  C80        -0.3112
   1240  C2'       -6.2780    5.7400   12.9840 C.3    80  C80         0.2309
   1241  O2'       -7.5710    6.1370   12.5670 O.3    80  C80        -0.2156
   1242  C1'       -5.2620    5.9610   11.8640 C.3    80  C80         0.2420
   1243  N1        -4.3030    4.8090   11.6640 N.ar   80  C80        -0.2535
   1244  C2        -4.7260    3.6430   10.9900 C.ar   80  C80         0.3532
   1245  O2        -5.8860    3.5590   10.5650 O.2    80  C80        -0.2443
   1246  N3        -3.8430    2.6220   10.8190 N.ar   80  C80        -0.1739
   1247  C4        -2.5940    2.7260   11.2830 C.ar   80  C80         0.1759
   1248  N4        -1.7700    1.6910   11.0840 N.pl3  80  C80        -0.1070
   1249  C5        -2.1400    3.8980   11.9680 C.ar   80  C80         0.0566
   1250  C6        -3.0170    4.9020   12.1330 C.ar   80  C80         0.0850
   1251  OP1       -1.9940    9.1100   16.2630 O.3    80  C80        -0.4373
   1252  OP2       -0.7870    6.9590   15.5860 O.co2  80  C80        -0.5172
   1253  P         -6.8700    6.4190   16.4720 P.3    81  U81         0.2141
   1254  C5'       -8.7380    4.8040   15.5510 C.3    81  U81         0.1812
   1255  O5'       -7.4560    4.9600   16.1710 O.3    81  U81        -0.3114
   1256  C4'       -8.9490    3.3760   15.0830 C.3    81  U81         0.1773
   1257  O4'       -8.0430    3.0570   13.9920 O.3    81  U81        -0.3307
   1258  C3'       -8.6410    2.3050   16.1150 C.3    81  U81         0.1860
   1259  O3'       -9.7030    2.1800   17.0540 O.3    81  U81        -0.3112
   1260  C2'       -8.5010    1.0820   15.2170 C.3    81  U81         0.2309
   1261  O2'       -9.7470    0.5450   14.8100 O.3    81  U81        -0.2156
   1262  C1'       -7.7430    1.6680   14.0210 C.3    81  U81         0.2420
   1263  N1        -6.2440    1.4540   14.0970 N.ar   81  U81        -0.2534
   1264  C2        -5.7050    0.2130   13.7770 C.ar   81  U81         0.3546
   1265  O2        -6.3690   -0.7470   13.4200 O.2    81  U81        -0.2443
   1266  N3        -4.3340    0.1300   13.8900 N.ar   81  U81        -0.1530
   1267  C4        -3.4610    1.1340   14.2810 C.ar   81  U81         0.2846
   1268  O4        -2.2550    0.9100   14.3340 O.2    81  U81        -0.2650
   1269  C5        -4.0910    2.3920   14.6010 C.ar   81  U81         0.0814
   1270  C6        -5.4240    2.5000   14.4990 C.ar   81  U81         0.0870
   1271  OP1       -7.8860    7.2050   17.2130 O.3    81  U81        -0.4373
   1272  OP2       -5.5120    6.2490   17.0420 O.co2  81  U81        -0.5172
   1273  P         -9.3800    1.8240   18.5830 P.3    82  A82         0.2141
   1274  C5'      -10.1870   -0.6460   18.1960 C.3    82  A82         0.1812
   1275  O5'       -9.1290    0.2420   18.5420 O.3    82  A82        -0.3114
   1276  C4'       -9.6550   -1.9560   17.6400 C.3    82  A82         0.1773
   1277  O4'       -8.6590   -1.7170   16.6160 O.3    82  A82        -0.3307
   1278  C3'       -8.9240   -2.8380   18.6330 C.3    82  A82         0.1860
   1279  O3'       -9.8570   -3.5260   19.4550 O.3    82  A82        -0.3112
   1280  C2'       -8.1680   -3.7730   17.6920 C.3    82  A82         0.2309
   1281  O2'       -8.9720   -4.8260   17.1920 O.3    82  A82        -0.2156
   1282  C1'       -7.7730   -2.8260   16.5570 C.3    82  A82         0.2408
   1283  N1        -2.7510   -3.9970   16.0460 N.ar   82  A82        -0.2040
   1284  C2        -3.8590   -4.7400   15.8990 C.ar   82  A82         0.2016
   1285  N3        -5.1350   -4.3740   16.0460 N.ar   82  A82        -0.2048
   1286  C4        -5.2360   -3.0730   16.3900 C.ar   82  A82         0.1692
   1287  C5        -4.1880   -2.1860   16.5770 C.ar   82  A82         0.1518
   1288  C6        -2.8810   -2.6940   16.3910 C.ar   82  A82         0.1919
   1289  N6        -1.7760   -1.9550   16.5420 N.pl3  82  A82        -0.1054
   1290  N7        -4.6620   -0.9330   16.9270 N.ar   82  A82        -0.2193
   1291  C8        -5.9660   -1.0820   16.9420 C.ar   82  A82         0.1816
   1292  N9        -6.3870   -2.3470   16.6290 N.ar   82  A82        -0.2693
   1293  OP1      -10.5990    2.1050   19.3760 O.3    82  A82        -0.4373
   1294  OP2       -8.0980    2.4690   18.9550 O.co2  82  A82        -0.5172
   1295  P         -9.6240   -3.6050   21.0380 P.3    83  U83         0.2141
   1296  C5'       -8.9060   -6.1150   20.7260 C.3    83  U83         0.1812
   1297  O5'       -8.5630   -4.7970   21.1660 O.3    83  U83        -0.3114
   1298  C4'       -7.6710   -6.9310   20.3840 C.3    83  U83         0.1773
   1299  O4'       -6.9080   -6.2840   19.3350 O.3    83  U83        -0.3307
   1300  C3'       -6.6590   -7.0930   21.5070 C.3    83  U83         0.1860
   1301  O3'       -7.0890   -8.0900   22.4260 O.3    83  U83        -0.3112
   1302  C2'       -5.4150   -7.5020   20.7210 C.3    83  U83         0.2309
   1303  O2'       -5.4180   -8.8650   20.3350 O.3    83  U83        -0.2156
   1304  C1'       -5.5320   -6.6040   19.4880 C.3    83  U83         0.2420
   1305  N1        -4.7010   -5.3400   19.5660 N.ar   83  U83        -0.2534
   1306  C2        -3.3440   -5.3950   19.2700 C.ar   83  U83         0.3546
   1307  O2        -2.7600   -6.4140   18.9430 O.2    83  U83        -0.2443
   1308  N3        -2.6780   -4.1960   19.3700 N.ar   83  U83        -0.1530
   1309  C4        -3.2130   -2.9710   19.7290 C.ar   83  U83         0.2846
   1310  O4        -2.4880   -1.9840   19.7720 O.2    83  U83        -0.2650
   1311  C5        -4.6270   -2.9870   20.0210 C.ar   83  U83         0.0814
   1312  C6        -5.2990   -4.1440   19.9320 C.ar   83  U83         0.0870
   1313  OP1      -10.9030   -4.0180   21.6610 O.3    83  U83        -0.4373
   1314  OP2       -8.9610   -2.3560   21.4790 O.co2  83  U83        -0.5172
   1315  P         -6.8840   -7.8870   24.0030 P.3    84  A84         0.2141
   1316  C5'       -4.8710   -9.5710   23.9080 C.3    84  A84         0.1812
   1317  O5'       -5.3390   -8.2540   24.2090 O.3    84  A84        -0.3114
   1318  C4'       -3.3540   -9.6370   23.8540 C.3    84  A84         0.1773
   1319  O4'       -2.8620   -8.9120   22.6960 O.3    84  A84        -0.3307
   1320  C3'       -2.6140   -9.0130   25.0300 C.3    84  A84         0.1860
   1321  O3'       -2.5830   -9.9090   26.1420 O.3    84  A84        -0.3112
   1322  C2'       -1.2360   -8.7850   24.4110 C.3    84  A84         0.2309
   1323  O2'       -0.4520   -9.9630   24.3410 O.3    84  A84        -0.2156
   1324  C1'       -1.6100   -8.3170   23.0050 C.3    84  A84         0.2408
   1325  N1         0.8950   -3.8470   22.3030 N.ar   84  A84        -0.2040
   1326  C2         1.3340   -5.1120   22.3720 C.ar   84  A84         0.2016
   1327  N3         0.6280   -6.2320   22.5520 N.ar   84  A84        -0.2048
   1328  C4        -0.6870   -5.9630   22.6800 C.ar   84  A84         0.1692
   1329  C5        -1.2850   -4.7120   22.6350 C.ar   84  A84         0.1518
   1330  C6        -0.4300   -3.6040   22.4330 C.ar   84  A84         0.1919
   1331  N6        -0.8660   -2.3400   22.3670 N.pl3  84  A84        -0.1054
   1332  N7        -2.6550   -4.8140   22.8040 N.ar   84  A84        -0.2193
   1333  C8        -2.8570   -6.1030   22.9460 C.ar   84  A84         0.1816
   1334  N9        -1.7160   -6.8590   22.8810 N.ar   84  A84        -0.2693
   1335  OP1       -7.7260   -8.9000   24.6800 O.3    84  A84        -0.4373
   1336  OP2       -7.0550   -6.4530   24.3350 O.co2  84  A84        -0.5172
   1337  P         -2.5020   -9.3590   27.6500 P.3    85  A85         0.2141
   1338  C5'        0.0680   -9.9300   27.7410 C.3    85  A85         0.1812
   1339  O5'       -0.9630   -8.9430   27.7940 O.3    85  A85        -0.3114
   1340  C4'        1.4390   -9.2820   27.6710 C.3    85  A85         0.1773
   1341  O4'        1.6010   -8.6030   26.3980 O.3    85  A85        -0.3307
   1342  C3'        1.6970   -8.1840   28.6910 C.3    85  A85         0.1860
   1343  O3'        2.0280   -8.7090   29.9660 O.3    85  A85        -0.3112
   1344  C2'        2.8540   -7.4450   28.0310 C.3    85  A85         0.2309
   1345  O2'        4.0870   -8.1350   28.1190 O.3    85  A85        -0.2156
   1346  C1'        2.3500   -7.4090   26.5900 C.3    85  A85         0.2408
   1347  N1         2.1810   -2.3710   25.4420 N.ar   85  A85        -0.2040
   1348  C2         3.2120   -3.2090   25.6340 C.ar   85  A85         0.2016
   1349  N3         3.1870   -4.5110   25.9290 N.ar   85  A85        -0.2048
   1350  C4         1.9200   -4.9590   26.0310 C.ar   85  A85         0.1692
   1351  C5         0.7610   -4.2150   25.8640 C.ar   85  A85         0.1518
   1352  C6         0.9200   -2.8470   25.5500 C.ar   85  A85         0.1919
   1353  N6        -0.1070   -2.0090   25.3640 N.pl3  85  A85        -0.1054
   1354  N7        -0.3600   -5.0050   26.0450 N.ar   85  A85        -0.2193
   1355  C8         0.1340   -6.1890   26.3140 C.ar   85  A85         0.1816
   1356  N9         1.5030   -6.2410   26.3180 N.ar   85  A85        -0.2693
   1357  OP1       -2.7860  -10.4980   28.5530 O.3    85  A85        -0.4373
   1358  OP2       -3.3120   -8.1220   27.7570 O.co2  85  A85        -0.5172
   1359  P          1.4640   -7.9790   31.2770 P.3    86  G86         0.2141
   1360  C5'        3.7210   -6.6850   31.6770 C.3    86  G86         0.1812
   1361  O5'        2.3340   -6.6300   31.3400 O.3    86  G86        -0.3114
   1362  C4'        4.4820   -5.4530   31.2130 C.3    86  G86         0.1773
   1363  O4'        4.1250   -5.0940   29.8550 O.3    86  G86        -0.3307
   1364  C3'        4.2060   -4.1700   31.9800 C.3    86  G86         0.1860
   1365  O3'        4.8450   -4.1710   33.2480 O.3    86  G86        -0.3112
   1366  C2'        4.8020   -3.1440   31.0200 C.3    86  G86         0.2309
   1367  O2'        6.2180   -3.0790   31.0550 O.3    86  G86        -0.2156
   1368  C1'        4.3120   -3.6960   29.6800 C.3    86  G86         0.2408
   1369  N1         2.0250    0.5450   27.9860 N.ar   86  G86        -0.1709
   1370  C2         3.3560    0.3250   28.2740 C.ar   86  G86         0.2606
   1371  N2         4.1920    1.3580   28.0940 N.pl3  86  G86        -0.0859
   1372  N3         3.8370   -0.8330   28.7090 N.ar   86  G86        -0.1918
   1373  C4         2.8680   -1.7760   28.8410 C.ar   86  G86         0.1723
   1374  C5         1.5190   -1.6550   28.5820 C.ar   86  G86         0.1748
   1375  C6         1.0150   -0.4150   28.1130 C.ar   86  G86         0.3023
   1376  O6        -0.1570   -0.1260   27.8320 O.2    86  G86        -0.2633
   1377  N7         0.8580   -2.8490   28.8380 N.ar   86  G86        -0.2173
   1378  C8         1.8010   -3.6550   29.2440 C.ar   86  G86         0.1817
   1379  N9         3.0500   -3.0760   29.2670 N.ar   86  G86        -0.2693
   1380  OP1        1.7940   -8.8370   32.4390 O.3    86  G86        -0.4373
   1381  OP2        0.0520   -7.5980   31.0260 O.co2  86  G86        -0.5172
   1382  P          4.1260   -3.4620   34.4910 P.3    87  G87         0.2141
   1383  C5'        5.5420   -1.2710   34.1880 C.3    87  G87         0.1812
   1384  O5'        4.2640   -1.9010   34.1520 O.3    87  G87        -0.3114
   1385  C4'        5.5060    0.1160   33.5690 C.3    87  G87         0.1773
   1386  O4'        4.9260    0.0800   32.2400 O.3    87  G87        -0.3307
   1387  C3'        4.6450    1.1370   34.2900 C.3    87  G87         0.1860
   1388  O3'        5.2970    1.6210   35.4540 O.3    87  G87        -0.3112
   1389  C2'        4.5170    2.2040   33.2080 C.3    87  G87         0.2309
   1390  O2'        5.6780    3.0070   33.0860 O.3    87  G87        -0.2156
   1391  C1'        4.3250    1.3400   31.9630 C.3    87  G87         0.2408
   1392  N1         0.0500    3.4230   30.0290 N.ar   87  G87        -0.1709
   1393  C2         1.2850    4.0010   30.2260 C.ar   87  G87         0.2606
   1394  N2         1.4040    5.2860   29.8650 N.pl3  87  G87        -0.0859
   1395  N3         2.3360    3.3610   30.7340 N.ar   87  G87        -0.1918
   1396  C4         2.0500    2.0690   31.0470 C.ar   87  G87         0.1723
   1397  C5         0.8480    1.4030   30.8920 C.ar   87  G87         0.1748
   1398  C6        -0.2630    2.0980   30.3420 C.ar   87  G87         0.3023
   1399  O6        -1.4060    1.6650   30.1300 O.2    87  G87        -0.2633
   1400  N7         0.9500    0.0910   31.3340 N.ar   87  G87        -0.2173
   1401  C8         2.1840   -0.0160   31.7380 C.ar   87  G87         0.1817
   1402  N9         2.9170    1.1430   31.6000 N.ar   87  G87        -0.2693
   1403  OP1        4.9150   -3.7810   35.7030 O.3    87  G87        -0.4373
   1404  OP2        2.6850   -3.8000   34.4500 O.co2  87  G87        -0.5172
   1405  P          4.4430    1.9800   36.7610 P.3    88  U88         0.2141
   1406  C5'        4.4820    4.5560   36.2000 C.3    88  U88         0.1813
   1407  O5'        3.7220    3.3610   36.3810 O.3    88  U88        -0.3114
   1408  C4'        3.7030    5.5860   35.4000 C.3    88  U88         0.1801
   1409  O4'        3.1540    4.9800   34.2050 O.3    88  U88        -0.3306
   1410  C3'        2.5030    6.1780   36.1180 C.3    88  U88         0.2161
   1411  O3'        2.9330    7.2700   36.9190 O.3    88  U88        -0.2175
   1412  C2'        1.6050    6.6170   34.9620 C.3    88  U88         0.2338
   1413  O2'        1.9460    7.8890   34.4370 O.3    88  U88        -0.2155
   1414  C1'        1.8860    5.5420   33.9120 C.3    88  U88         0.2421
   1415  N1         0.8400    4.4460   33.8000 N.ar   88  U88        -0.2534
   1416  C2        -0.3730    4.7210   33.1780 C.ar   88  U88         0.3546
   1417  O2        -0.6620    5.8150   32.7240 O.2    88  U88        -0.2443
   1418  N3        -1.2520    3.6610   33.1110 N.ar   88  U88        -0.1530
   1419  C4        -1.0430    2.3770   33.5930 C.ar   88  U88         0.2846
   1420  O4        -1.9190    1.5270   33.4610 O.2    88  U88        -0.2650
   1421  C5         0.2420    2.1630   34.2210 C.ar   88  U88         0.0814
   1422  C6         1.1130    3.1800   34.2960 C.ar   88  U88         0.0870
   1423  OP1        5.3990    2.2220   37.8690 O.3    88  U88        -0.4373
   1424  OP2        3.3910    0.9460   36.9140 O.co2  88  U88        -0.5172
@<TRIPOS>BOND
     1   450   429    2
     2  1030  1029    2
     3  1026  1025    1
     4  1027  1022    1
     5  1027  1028    1
     6  1027  1025    1
     7  1029  1028   ar
     8  1029  1031   ar
     9  1022  1021    1
    10   417   416    1
    11   429   449    1
    12   429   415    1
    13   429   431    1
    14  1028  1035   ar
    15  1031  1032   ar
    16  1037  1018    2
    17  1025  1023    1
    18   415   414    1
    19  1035  1034   ar
    20  1021  1019    1
    21  1021  1023    1
    22  1020  1018    1
    23  1020  1019    1
    24  1032  1033    2
    25  1032  1034   ar
    26   431   430    1
    27  1036  1018    1
    28   472   451    2
    29  1018  1004    1
    30   416   414    1
    31   416   418    1
    32   414   412    1
    33  1023  1024    1
    34   430   432    1
    35   471   451    1
    36  1024  1038    1
    37   427   409    2
    38   451   435    1
    39   451   453    1
    40   428   409    1
    41   421   420    2
    42   418   419    1
    43   418   413    1
    44   459   458    1
    45  1004  1003    1
    46   412   410    1
    47   412   413    1
    48  1059  1038    2
    49   420   419   ar
    50   420   422   ar
    51   409   411    1
    52   409   393    1
    53  1016   998    2
    54   419   426   ar
    55   435   434    1
    56  1006  1005    1
    57   458   456    1
    58   458   460    1
    59   411   410    1
    60   434   432    1
    61   434   436    1
    62   446   447   ar
    63   446   443   ar
    64   491   473    2
    65   447   448   ar
    66  1003  1005    1
    67  1003  1001    1
    68   432   433    1
    69   453   452    1
    70  1038  1058    1
    71  1038  1040    1
    72   422   423   ar
    73   467   466    1
    74  1017   998    1
    75   426   425   ar
    76  1005  1007    1
    77   468   465   ar
    78   468   469   ar
    79   456   457    1
    80   456   454    1
    81   466   465   ar
    82   466   461   ar
    83   407   387    2
    84   465   464   ar
    85   433   438    1
    86   469   470   ar
    87   998  1000    1
    88   998   984    1
    89   461   462   ar
    90   423   425   ar
    91   423   424    2
    92  1000   999    1
    93   464   470   ar
    94   464   463   ar
    95   470   460    1
    96   462   463   ar
    97   452   454    1
    98   457   473    1
    99   473   492    1
   100   473   475    1
   101   445   444    1
   102   460   455    1
   103   448   438    1
   104   448   442   ar
   105   443   444   ar
   106   443   442   ar
   107   408   387    1
   108   999  1001    1
   109   393   392    1
   110  1001  1002    1
   111  1040  1039    1
   112   436   438    1
   113   436   437    1
   114   454   455    1
   115   387   389    1
   116   387   373    1
   117   444   439   ar
   118   442   441   ar
   119  1007  1002    1
   120  1007  1008    1
   121   488   487    2
   122   489   487   ar
   123   489   490   ar
   124   389   388    1
   125  1039  1041    1
   126   392   390    1
   127   392   394    1
   128   984   983    1
   129  1055  1056   ar
   130  1055  1052   ar
   131   385   367    2
   132   388   390    1
   133  1056  1057   ar
   134  1008  1015   ar
   135  1008  1009   ar
   136   475   474    1
   137   487   486   ar
   138  1015  1014   ar
   139   490   483   ar
   140  1010  1009    2
   141   373   372    1
   142   439   440   ar
   143   996   978    2
   144  1009  1011   ar
   145  1054  1053    1
   146   386   367    1
   147   390   391    1
   148   441   440   ar
   149  1014  1012   ar
   150   394   395    1
   151   394   396    1
   152   983   981    1
   153   983   985    1
   154   367   369    1
   155   367   350    1
   156  1042  1041    1
   157  1042  1047    1
   158  1052  1053   ar
   159  1052  1051   ar
   160  1011  1012   ar
   161   505   504    1
   162  1041  1043    1
   163  1012  1013    1
   164   979   980    1
   165   979   981    1
   166   369   368    1
   167   405   404   ar
   168   405   406   ar
   169  1057  1047    1
   170  1057  1051   ar
   171   404   401   ar
   172  1053  1048   ar
   173   474   476    1
   174   504   506   ar
   175   504   503   ar
   176   980   978    1
   177   372   370    1
   178   372   374    1
   179   486   484   ar
   180   978   997    1
   181   978   962    1
   182   506   507   ar
   183   368   370    1
   184   981   982    1
   185   503   509   ar
   186   985   986    1
   187   985   987    1
   188   391   396    1
   189   483   484   ar
   190   483   482    1
   191   406   396    1
   192   406   400   ar
   193   401   402   ar
   194   401   400   ar
   195   403   402    1
   196   365   344    2
   197  1047  1045    1
   198  1051  1050   ar
   199   507   513   ar
   200   507   508   ar
   201   402   397   ar
   202   400   399   ar
   203  1043  1045    1
   204  1043  1044    1
   205   509   508   ar
   206   509   510    2
   207   502   513    1
   208   502   497    1
   209   502   500    1
   210  1045  1046    1
   211   477   476    1
   212   477   482    1
   213   350   349    1
   214   513   512   ar
   215   508   511   ar
   216   497   496    1
   217   370   371    1
   218   480   482    1
   219   480   478    1
   220   480   481    1
   221   484   485    2
   222   397   398   ar
   223   399   398   ar
   224   476   478    1
   225   501   500    1
   226   512   511   ar
   227  1048  1049   ar
   228   374   375    1
   229   374   376    1
   230   478   479    1
   231   366   344    1
   232   982   987    1
   233  1078  1060    2
   234   987   988    1
   235   962   961    1
   236   344   346    1
   237   344   328    1
   238   995   988   ar
   239   995   994   ar
   240   500   498    1
   241  1050  1049   ar
   242   384   383   ar
   243   384   377   ar
   244   345   346    1
   245   345   347    1
   246   383   381   ar
   247  1044  1060    1
   248   988   989   ar
   249   349   347    1
   250   349   351    1
   251   994   992   ar
   252   496   494    1
   253   496   498    1
   254   371   376    1
   255   528   527    1
   256   376   377    1
   257   377   378   ar
   258  1060  1079    1
   259  1060  1062    1
   260   989   990    2
   261   989   991   ar
   262   381   382    1
   263   381   380   ar
   264   992   991   ar
   265   992   993    1
   266   347   348    1
   267   527   529   ar
   268   527   526   ar
   269   529   530   ar
   270   495   494    1
   271   495   493    1
   272   961   963    1
   273   961   959    1
   274   520   525    1
   275   520   519    1
   276   498   499    1
   277   526   532   ar
   278   479   493    1
   279   328   327    1
   280   525   536    1
   281   525   523    1
   282   530   536   ar
   283   530   531   ar
   284   378   380   ar
   285   378   379    2
   286   351   352    1
   287   351   353    1
   288   536   535   ar
   289   532   531   ar
   290   532   533    2
   291   531   534   ar
   292   964   963    1
   293   963   965    1
   294   342   322    2
   295   535   534   ar
   296   524   523    1
   297   493   515    2
   298   493   514    1
   299   519   517    1
   300   519   521    1
   301   499   516    1
   302  1062  1061    1
   303  1061  1063    1
   304   348   353    1
   305   976   956    2
   306   959   957    1
   307   959   960    1
   308   957   958    1
   309   556   555    2
   310   551   550    1
   311   549   555   ar
   312   549   550   ar
   313   327   325    1
   314   327   329    1
   315   958   956    1
   316   523   521    1
   317   363   362   ar
   318   363   364   ar
   319   517   518    1
   320   353   364    1
   321   555   554   ar
   322  1064  1063    1
   323  1064  1069    1
   324   323   324    1
   325   323   325    1
   326   550   552   ar
   327  1063  1065    1
   328   362   359   ar
   329   364   358   ar
   330   324   322    1
   331   322   343    1
   332   322   308    1
   333   554   553   ar
   334   554   557   ar
   335   552   553   ar
   336   956   977    1
   337   956   940    1
   338   518   516    1
   339   965   975    1
   340   965   960    1
   341   325   326    1
   342   553   559   ar
   343   521   522    1
   344  1098  1080    2
   345   359   358   ar
   346   359   360   ar
   347   557   558   ar
   348   358   357   ar
   349  1072  1071    2
   350   975   969   ar
   351   975   974   ar
   352   968   969   ar
   353   968   967   ar
   354   969   970   ar
   355   974   973   ar
   356   516   538    2
   357   516   537    1
   358   329   330    1
   359   329   331    1
   360   967   966   ar
   361   559   558   ar
   362   559   548    1
   363   970   973   ar
   364   970   971   ar
   365  1071  1073   ar
   366  1071  1070   ar
   367   966   971   ar
   368   357   355   ar
   369  1073  1074   ar
   370   971   972    1
   371   360   361    2
   372   360   354   ar
   373  1069  1070    1
   374  1069  1067    1
   375  1070  1077   ar
   376   548   543    1
   377   548   546    1
   378   522   539    1
   379   543   542    1
   380  1074  1075    2
   381  1074  1076   ar
   382  1065  1066    1
   383  1065  1067    1
   384   355   354   ar
   385   355   356    1
   386   308   307    1
   387  1077  1076   ar
   388  1066  1080    1
   389   940   939    1
   390   326   331    1
   391  1080  1082    1
   392  1080  1099    1
   393   331   341    1
   394  1067  1068    1
   395   340   341   ar
   396   340   339   ar
   397   320   302    2
   398   341   335   ar
   399   574   573    2
   400   575   573   ar
   401   575   576   ar
   402   547   546    1
   403   546   544    1
   404   577   576    1
   405   339   336   ar
   406  1082  1081    1
   407   573   572   ar
   408   307   309    1
   409   307   305    1
   410   542   540    1
   411   542   544    1
   412   939   941    1
   413   939   937    1
   414   576   578   ar
   415   335   336   ar
   416   335   334   ar
   417   539   541    1
   418   539   561    2
   419   539   560    1
   420  1084  1089    1
   421  1084  1083    1
   422   336   337   ar
   423   321   302    1
   424  1092  1091    2
   425   334   333   ar
   426   302   304    1
   427   302   285    1
   428   540   541    1
   429   941   942    1
   430   941   943    1
   431  1089  1090    1
   432  1089  1087    1
   433   304   303    1
   434   303   305    1
   435   572   571    1
   436   572   579   ar
   437  1091  1090   ar
   438  1091  1093   ar
   439   578   579   ar
   440   337   338    1
   441   337   332   ar
   442  1090  1097   ar
   443   544   545    1
   444   333   332   ar
   445   571   566    1
   446   571   569    1
   447   309   310    1
   448   309   311    1
   449  1093  1094   ar
   450   305   306    1
   451   954   934    2
   452  1083  1081    1
   453  1083  1085    1
   454   566   565    1
   455  1097  1096   ar
   456  1094  1096   ar
   457  1094  1095    2
   458   936   935    1
   459   936   934    1
   460   945   944   ar
   461   945   946   ar
   462   944   949   ar
   463   937   935    1
   464   937   938    1
   465  1088  1087    1
   466   955   934    1
   467   946   947   ar
   468   949   950    1
   469   949   948   ar
   470   934   918    1
   471   947   948   ar
   472   947   953   ar
   473   948   951   ar
   474  1087  1085    1
   475   953   943    1
   476   953   952   ar
   477   594   593    2
   478   943   938    1
   479   951   952   ar
   480   285   284    1
   481   570   569    1
   482   545   562    1
   483   569   567    1
   484   300   279    2
   485   319   318   ar
   486   319   312   ar
   487   595   593   ar
   488   595   596   ar
   489   311   306    1
   490   311   312    1
   491   593   592   ar
   492   318   316   ar
   493  1085  1086    1
   494   565   563    1
   495   565   567    1
   496   312   313   ar
   497   597   596    2
   498   596   598   ar
   499   316   317    2
   500   316   315   ar
   501   301   279    1
   502   592   591    1
   503   592   599   ar
   504   313   315   ar
   505   313   314    2
   506   591   586    1
   507   591   589    1
   508   564   563    1
   509   564   562    1
   510   284   286    1
   511   284   282    1
   512   586   585    1
   513   279   281    1
   514   279   262    1
   515   598   599   ar
   516   567   568    1
   517   918   917    1
   518  1086  1100    1
   519   581   562    2
   520   562   580    1
   521   281   280    1
   522   280   282    1
   523   613   612   ar
   524   613   614   ar
   525   612   617   ar
   526   590   589    1
   527  1104  1109    1
   528  1104  1103    1
   529   286   287    1
   530   286   288    1
   531   282   283    1
   532   614   615   ar
   533   589   587    1
   534   917   919    1
   535   917   915    1
   536  1109  1110    1
   537  1109  1107    1
   538  1112  1111    2
   539   617   618    1
   540   617   616   ar
   541  1110  1111   ar
   542  1110  1117   ar
   543   568   582    1
   544  1111  1113   ar
   545  1117  1116   ar
   546   585   583    1
   547   585   587    1
   548  1113  1114   ar
   549  1116  1114   ar
   550   278   256    2
   551  1114  1115    2
   552   262   261    1
   553   615   616   ar
   554   615   621   ar
   555   616   619   ar
   556   932   912    2
   557   919   920    1
   558   919   921    1
   559   933   912    1
   560  1100  1119    2
   561  1100  1102    1
   562  1100  1118    1
   563   928   927    1
   564  1103  1101    1
   565  1103  1105    1
   566   914   912    1
   567   914   913    1
   568   583   584    1
   569   621   611    1
   570   621   620   ar
   571  1101  1102    1
   572   611   606    1
   573   611   609    1
   574   922   927   ar
   575   922   923   ar
   576   927   926   ar
   577   619   620   ar
   578   587   588    1
   579   923   924   ar
   580   584   582    1
   581   288   283    1
   582   288   299    1
   583   912   898    1
   584   606   605    1
   585   926   929   ar
   586   926   925   ar
   587   298   299   ar
   588   298   297   ar
   589   913   915    1
   590   277   256    1
   591   299   293   ar
   592  1108  1107    1
   593   929   930   ar
   594   915   916    1
   595   924   925   ar
   596   256   258    1
   597   256   239    1
   598   925   931   ar
   599   297   294   ar
   600  1107  1105    1
   601   261   259    1
   602   261   263    1
   603   582   601    2
   604   582   600    1
   605   293   294   ar
   606   293   292   ar
   607   930   931   ar
   608   258   257    1
   609   931   921    1
   610   294   295   ar
   611   610   609    1
   612   292   290   ar
   613   921   916    1
   614   257   259    1
   615   295   296    2
   616   295   289   ar
   617   290   289   ar
   618   290   291    1
   619   241   240    1
   620   609   607    1
   621  1105  1106    1
   622   588   602    1
   623   636   635    2
   624   605   603    1
   625   605   607    1
   626   259   260    1
   627   263   264    1
   628   263   265    1
   629   635   637   ar
   630   635   634   ar
   631   898   897    1
   632   239   238    1
   633   240   238    1
   634   240   242    1
   635   637   638   ar
   636   911   892    2
   637   238   236    1
   638   603   604    1
   639   633   634    1
   640   633   628    1
   641   633   631    1
   642  1106  1120    1
   643   910   892    1
   644   607   608    1
   645   634   641   ar
   646   628   627    1
   647   604   602    1
   648   638   639    1
   649   638   640   ar
   650   897   899    1
   651   897   895    1
   652   632   631    1
   653   602   623    2
   654   602   622    1
   655   892   894    1
   656   892   878    1
   657   260   265    1
   658  1138  1139   ar
   659  1138  1135   ar
   660   907   906    1
   661   894   893    1
   662  1139  1140   ar
   663   641   640   ar
   664  1124  1129    1
   665  1124  1123    1
   666   265   276    1
   667   908   906   ar
   668   908   909   ar
   669  1137  1136    2
   670   608   624    1
   671  1140  1129    1
   672  1140  1134   ar
   673  1135  1136   ar
   674  1135  1134   ar
   675   906   905   ar
   676   275   276   ar
   677   275   274   ar
   678   276   270   ar
   679   631   629    1
   680   893   895    1
   681  1129  1127    1
   682   851   832    2
   683   870   852    2
   684  1136  1130   ar
   685   242   253    1
   686   242   237    1
   687   891   872    2
   688   899   900    1
   689   899   901    1
   690  1134  1133   ar
   691   627   625    1
   692   627   629    1
   693   909   902   ar
   694   274   271   ar
   695   219   218    1
   696   252   253   ar
   697   252   251   ar
   698   236   234    1
   699   236   237    1
   700   270   269   ar
   701   270   271   ar
   702   253   247   ar
   703   905   903   ar
   704   895   896    1
   705  1130  1131   ar
   706   871   852    1
   707   269   267   ar
   708  1120  1142    2
   709  1120  1122    1
   710  1120  1141    1
   711  1133  1131   ar
   712   271   272   ar
   713   234   235    1
   714   251   248   ar
   715   890   872    1
   716  1131  1132    1
   717  1122  1121    1
   718   247   248   ar
   719   247   246   ar
   720   902   903   ar
   721   902   901    1
   722  1121  1123    1
   723  1123  1125    1
   724   625   626    1
   725   903   904    2
   726   248   249   ar
   727   267   268    1
   728   267   266   ar
   729   656   655    2
   730   246   244   ar
   731   272   266   ar
   732   272   273    2
   733   852   838    1
   734   852   854    1
   735   629   630    1
   736   878   877    1
   737   872   874    1
   738   872   858    1
   739   626   624    1
   740   901   896    1
   741   249   250    2
   742   249   243   ar
   743   244   243   ar
   744   244   245    1
   745   655   657   ar
   746   655   654   ar
   747   624   643    2
   748   624   642    1
   749   832   850    1
   750   832   834    1
   751   832   818    1
   752   648   653    1
   753   648   647    1
   754   218   220    1
   755   218   216    1
   756   653   654    1
   757   653   651    1
   758  1127  1128    1
   759  1127  1125    1
   760   657   658   ar
   761   874   873    1
   762   654   661   ar
   763   877   879    1
   764   877   875    1
   765   833   834    1
   766   833   835    1
   767   254   233    2
   768   887   886    2
   769   217   233    1
   770   217   216    1
   771   630   644    1
   772   235   233    1
   773   838   837    1
   774   888   886   ar
   775   888   889   ar
   776  1125  1126    1
   777   854   853    1
   778   652   651    1
   779   658   659    2
   780   658   660   ar
   781   220   230    1
   782   220   215    1
   783   886   885   ar
   784   661   660   ar
   785   873   875    1
   786   858   857    1
   787   889   882   ar
   788   647   645    1
   789   647   649    1
   790   233   255    1
   791   818   817    1
   792   216   214    1
   793   879   880    1
   794   879   881    1
   795   230   229   ar
   796   230   224   ar
   797   229   228   ar
   798   651   649    1
   799   853   855    1
   800   837   835    1
   801   837   839    1
   802   875   876    1
   803   885   883   ar
   804   835   836    1
   805   228   225   ar
   806   645   646    1
   807   224   223   ar
   808   224   225   ar
   809   857   855    1
   810   857   859    1
   811   882   883   ar
   812   882   881    1
   813   223   222   ar
   814  1160  1159    2
   815   646   644    1
   816   225   226   ar
   817  1126  1143    1
   818   883   884    2
   819   214   215    1
   820   214   212    1
   821   817   819    1
   822   817   815    1
   823   644   662    2
   824   644   663    1
   825  1161  1158   ar
   826  1161  1162   ar
   827   222   221   ar
   828   649   650    1
   829   881   876    1
   830  1159  1158   ar
   831  1159  1153   ar
   832   819   820    1
   833   819   821    1
   834   226   221   ar
   835   226   227    1
   836   855   856    1
   837  1158  1157   ar
   838  1162  1163   ar
   839   868   869   ar
   840   868   866   ar
   841  1153  1154   ar
   842   676   675    1
   843   668   673    1
   844   668   667    1
   845   869   862   ar
   846   836   841    1
   847  1157  1163   ar
   848  1157  1156   ar
   849  1163  1152    1
   850   677   675   ar
   851   677   678   ar
   852   675   674   ar
   853  1147  1152    1
   854  1147  1146    1
   855   859   860    1
   856   859   861    1
   857   839   840    1
   858   839   841    1
   859   650   664    1
   860  1154  1156   ar
   861  1154  1155    1
   862   867   866    2
   863   673   684    1
   864   673   671    1
   865   849   848   ar
   866   849   842   ar
   867   824   823    2
   868  1165  1143    2
   869   866   865   ar
   870   674   680   ar
   871   678   684   ar
   872   678   679   ar
   873   825   823   ar
   874   825   826   ar
   875   848   846   ar
   876   684   683   ar
   877   823   822   ar
   878  1143  1145    1
   879  1143  1164    1
   880  1152  1150    1
   881   856   861    1
   882   827   826    1
   883   814   813    1
   884   814   812    1
   885   831   812    2
   886   212   213    1
   887   826   828   ar
   888   815   813    1
   889   815   816    1
   890   679   680   ar
   891   679   682   ar
   892   680   681    2
   893   830   812    1
   894   822   821    1
   895   822   829   ar
   896   862   861    1
   897   862   863   ar
   898   667   665    1
   899   667   669    1
   900   821   816    1
   901  1145  1144    1
   902   841   842    1
   903   683   682   ar
   904   828   829   ar
   905   665   666    1
   906   842   843   ar
   907  1144  1146    1
   908   812   795    1
   909   865   863   ar
   910   672   671    1
   911  1146  1148    1
   912   213   211    1
   913  1182  1181    1
   914   863   864    2
   915   846   847    1
   916   846   845   ar
   917   666   664    1
   918   671   669    1
   919   664   685    2
   920   664   686    1
   921  1181  1176   ar
   922  1181  1180   ar
   923   195   194    1
   924   195   200    1
   925   843   845   ar
   926   843   844    2
   927  1150  1148    1
   928  1150  1151    1
   929  1176  1177   ar
   930   669   670    1
   931   194   192    1
   932   194   196    1
   933  1148  1149    1
   934  1180  1183   ar
   935  1180  1179   ar
   936  1183  1184   ar
   937   192   193    1
   938   209   191    2
   939  1177  1178   ar
   940   795   794    1
   941   670   687    1
   942   200   201    1
   943   200   198    1
   944   211   231    2
   945   211   232    1
   946   211   197    1
   947   203   202    2
   948   201   202   ar
   949   201   208   ar
   950   202   204   ar
   951   208   207   ar
   952  1179  1178   ar
   953  1179  1185   ar
   954   204   205   ar
   955  1184  1185   ar
   956   193   191    1
   957   207   205   ar
   958   205   206    1
   959   794   796    1
   960   794   792    1
   961  1205  1204    2
   962   197   196    1
   963   806   805    2
   964  1185  1175    1
   965  1198  1204   ar
   966  1198  1199   ar
   967   799   805   ar
   968   799   800   ar
   969   805   804   ar
   970   196   198    1
   971   191   210    1
   972   191   175    1
   973  1149  1166    1
   974  1200  1199    1
   975   801   800    1
   976  1204  1203   ar
   977   800   802   ar
   978   796   797    1
   979   796   798    1
   980  1199  1201   ar
   981   804   807   ar
   982   804   803   ar
   983  1175  1170    1
   984  1175  1173    1
   985  1170  1169    1
   986   790   792    1
   987   790   791    1
   988   198   199    1
   989   802   803   ar
   990   807   808   ar
   991   803   809   ar
   992  1187  1166    2
   993   687   707    2
   994   687   689    1
   995   687   708    1
   996   792   793    1
   997   688   689    1
   998   688   690    1
   999  1203  1202   ar
  1000  1203  1206   ar
  1001   808   809   ar
  1002   809   798    1
  1003  1201  1202   ar
  1004  1166  1168    1
  1005  1166  1186    1
  1006   175   174    1
  1007   811   789    2
  1008  1221  1222   ar
  1009  1221  1226   ar
  1010  1202  1208   ar
  1011  1168  1167    1
  1012  1206  1207   ar
  1013  1227  1226    1
  1014   798   793    1
  1015   791   789    1
  1016  1222  1223   ar
  1017   810   789    1
  1018  1226  1225   ar
  1019  1169  1167    1
  1020  1169  1171    1
  1021  1173  1174    1
  1022  1173  1171    1
  1023   789   775    1
  1024  1207  1208   ar
  1025  1208  1197    1
  1026   690   691    1
  1027   690   692    1
  1028  1223  1224   ar
  1029   174   176    1
  1030   174   172    1
  1031  1225  1224   ar
  1032  1225  1228   ar
  1033  1171  1172    1
  1034   177   176    1
  1035   691   696    1
  1036  1224  1230   ar
  1037  1197  1192    1
  1038  1197  1195    1
  1039   176   178    1
  1040   788   769    2
  1041  1228  1229   ar
  1042   693   692    1
  1043   693   709    1
  1044  1192  1191    1
  1045   768   749    2
  1046   727   709    2
  1047   189   169    2
  1048   692   694    1
  1049  1230  1229   ar
  1050  1230  1220    1
  1051   775   774    1
  1052   172   170    1
  1053   172   173    1
  1054   728   709    1
  1055   784   783    1
  1056   787   769    1
  1057   170   171    1
  1058   709   711    1
  1059   171   169    1
  1060  1195  1196    1
  1061  1195  1193    1
  1062  1245  1244    2
  1063  1220  1215    1
  1064  1220  1218    1
  1065   769   771    1
  1066   769   755    1
  1067  1172  1188    1
  1068   774   776    1
  1069   774   772    1
  1070   696   694    1
  1071   696   706    1
  1072   783   785   ar
  1073   783   782   ar
  1074  1246  1244   ar
  1075  1246  1247   ar
  1076   169   190    1
  1077   169   155    1
  1078   785   786   ar
  1079  1244  1243   ar
  1080   771   770    1
  1081   782   780   ar
  1082  1248  1247    1
  1083   705   706   ar
  1084   705   704   ar
  1085   694   695    1
  1086   178   173    1
  1087   178   188    1
  1088  1215  1214    1
  1089   749   767    1
  1090   749   751    1
  1091   749   735    1
  1092  1191  1193    1
  1093  1191  1189    1
  1094   776   777    1
  1095   776   778    1
  1096  1247  1249   ar
  1097   706   700   ar
  1098  1210  1188    2
  1099   786   779   ar
  1100   751   750    1
  1101  1219  1218    1
  1102  1190  1188    1
  1103  1190  1189    1
  1104   780   779   ar
  1105   780   781    2
  1106   188   187   ar
  1107   188   182   ar
  1108   770   772    1
  1109  1243  1242    1
  1110  1243  1250   ar
  1111  1218  1216    1
  1112  1193  1194    1
  1113   187   186   ar
  1114   779   778    1
  1115  1188  1209    1
  1116  1242  1237    1
  1117  1242  1240    1
  1118   772   773    1
  1119   704   701   ar
  1120  1249  1250   ar
  1121   711   710    1
  1122   755   754    1
  1123   182   181   ar
  1124   182   183   ar
  1125   750   752    1
  1126   181   180   ar
  1127  1237  1236    1
  1128   186   183   ar
  1129   778   773    1
  1130   735   734    1
  1131   737   736    1
  1132   155   154    1
  1133   183   184   ar
  1134  1214  1216    1
  1135  1214  1212    1
  1136   710   712    1
  1137   700   701   ar
  1138   700   699   ar
  1139   754   752    1
  1140   754   756    1
  1141  1241  1240    1
  1142   180   179   ar
  1143   701   702   ar
  1144   765   766   ar
  1145   765   763   ar
  1146  1216  1217    1
  1147   184   179   ar
  1148   184   185    1
  1149  1194  1211    1
  1150  1240  1238    1
  1151   764   763    1
  1152   752   753    1
  1153   734   736    1
  1154   734   732    1
  1155   766   759   ar
  1156   699   698   ar
  1157  1213  1212    1
  1158  1213  1211    1
  1159  1236  1238    1
  1160  1236  1234    1
  1161   763   762   ar
  1162   154   156    1
  1163   154   152    1
  1164  1265  1264    2
  1165   736   738    1
  1166  1232  1211    2
  1167   756   758    1
  1168   756   757    1
  1169  1264  1266   ar
  1170  1264  1263   ar
  1171   748   729    2
  1172  1266  1267   ar
  1173   167   149    2
  1174  1211  1231    1
  1175   712   713    1
  1176   712   714    1
  1177   702   703    1
  1178   702   697   ar
  1179   725   726   ar
  1180   725   723   ar
  1181   713   718    1
  1182  1257  1262    1
  1183  1257  1256    1
  1184   156   157    1
  1185   156   158    1
  1186  1262  1263    1
  1187  1262  1260    1
  1188  1217  1233    1
  1189   759   758    1
  1190   759   760   ar
  1191   753   758    1
  1192   726   719   ar
  1193  1263  1270   ar
  1194  1238  1239    1
  1195  1234  1235    1
  1196   698   697   ar
  1197   762   760   ar
  1198  1267  1268    2
  1199  1267  1269   ar
  1200   151   150    1
  1201   151   149    1
  1202   168   149    1
  1203  1270  1269   ar
  1204  1235  1233    1
  1205   732   730    1
  1206   732   733    1
  1207   738   733    1
  1208   738   739    1
  1209   150   152    1
  1210   760   761    2
  1211   152   153    1
  1212   149   133    1
  1213  1261  1260    1
  1214   724   723    1
  1215   741   740    2
  1216   723   722   ar
  1217   714   715    1
  1218   714   716    1
  1219  1239  1253    1
  1220  1256  1254    1
  1221  1256  1258    1
  1222   719   718    1
  1223   719   720   ar
  1224  1260  1258    1
  1225  1233  1252    2
  1226  1233  1251    1
  1227   718   716    1
  1228   729   715    1
  1229   729   731    1
  1230   729   747    1
  1231   730   731    1
  1232   166   165   ar
  1233   166   159   ar
  1234   165   163   ar
  1235   158   159    1
  1236   158   153    1
  1237   159   160   ar
  1238   739   740   ar
  1239   739   746   ar
  1240   163   164    2
  1241   163   162   ar
  1242   740   742   ar
  1243  1254  1255    1
  1244   160   162   ar
  1245   160   161    2
  1246  1284  1283   ar
  1247  1284  1285   ar
  1248   722   720   ar
  1249   716   717    1
  1250   720   721    2
  1251  1283  1288   ar
  1252  1285  1286   ar
  1253  1258  1259    1
  1254   746   745   ar
  1255  1255  1253    1
  1256   133   132    1
  1257   742   743   ar
  1258  1286  1287   ar
  1259  1286  1292   ar
  1260  1288  1289    1
  1261  1288  1287   ar
  1262  1253  1272    2
  1263  1253  1271    1
  1264  1282  1277    1
  1265  1282  1292    1
  1266  1282  1280    1
  1267  1287  1290   ar
  1268  1277  1276    1
  1269  1292  1291   ar
  1270   745   743   ar
  1271  1290  1291   ar
  1272   743   744    1
  1273  1259  1273    1
  1274   132   134    1
  1275   132   130    1
  1276  1281  1280    1
  1277   148   127    2
  1278   147   127    1
  1279   129   127    1
  1280   129   128    1
  1281  1276  1274    1
  1282  1276  1278    1
  1283  1280  1278    1
  1284   134   135    1
  1285   134   136    1
  1286   127   113    1
  1287   128   130    1
  1288  1274  1275    1
  1289   130   131    1
  1290  1275  1273    1
  1291  1273  1294    2
  1292  1273  1293    1
  1293  1278  1279    1
  1294   143   142    1
  1295   144   145   ar
  1296   144   141   ar
  1297   145   146   ar
  1298   142   141   ar
  1299   142   137   ar
  1300   141   140   ar
  1301  1307  1306    2
  1302   137   138   ar
  1303   146   140   ar
  1304   146   136    1
  1305   140   139   ar
  1306   138   139   ar
  1307   136   131    1
  1308  1306  1308   ar
  1309  1306  1305   ar
  1310  1299  1304    1
  1311  1299  1298    1
  1312  1308  1309   ar
  1313  1279  1295    1
  1314   113   112    1
  1315  1304  1305    1
  1316  1304  1302    1
  1317  1305  1312   ar
  1318   125   107    2
  1319  1309  1310    2
  1320  1309  1311   ar
  1321  1312  1311   ar
  1322   126   107    1
  1323   108   110    1
  1324   108   109    1
  1325   112   110    1
  1326   112   114    1
  1327  1303  1302    1
  1328  1298  1296    1
  1329  1298  1300    1
  1330   107   109    1
  1331   107    93    1
  1332  1302  1300    1
  1333  1296  1297    1
  1334   110   111    1
  1335  1295  1297    1
  1336  1295  1314    2
  1337  1295  1313    1
  1338   114   115    1
  1339   114   116    1
  1340   123   124   ar
  1341   123   121   ar
  1342   122   121    2
  1343   105    87    2
  1344  1300  1301    1
  1345   124   117   ar
  1346   121   120   ar
  1347   106    87    1
  1348    93    92    1
  1349   117   116    1
  1350   117   118   ar
  1351   111   116    1
  1352   120   118   ar
  1353    87    89    1
  1354    87    73    1
  1355   118   119    2
  1356  1325  1326   ar
  1357  1325  1330   ar
  1358  1331  1330    1
  1359  1326  1327   ar
  1360  1301  1315    1
  1361  1330  1329   ar
  1362    85    67    2
  1363  1327  1328   ar
  1364  1329  1328   ar
  1365  1329  1332   ar
  1366    89    88    1
  1367  1328  1334   ar
  1368  1319  1324    1
  1369  1319  1318    1
  1370    92    94    1
  1371    92    90    1
  1372  1332  1333   ar
  1373  1334  1333   ar
  1374  1334  1324    1
  1375    86    67    1
  1376  1324  1322    1
  1377    88    90    1
  1378    67    69    1
  1379    67    53    1
  1380    94    95    1
  1381    94    96    1
  1382    65    47    2
  1383    73    72    1
  1384    90    91    1
  1385  1318  1316    1
  1386  1318  1320    1
  1387  1316  1317    1
  1388  1315  1317    1
  1389  1315  1336    2
  1390  1315  1335    1
  1391   103   104   ar
  1392   103   101   ar
  1393    69    68    1
  1394   104    97   ar
  1395  1323  1322    1
  1396   102   101    2
  1397   101   100   ar
  1398  1322  1320    1
  1399    66    47    1
  1400    72    70    1
  1401    72    74    1
  1402    97    96    1
  1403    97    98   ar
  1404    53    52    1
  1405    96    91    1
  1406    68    70    1
  1407    47    49    1
  1408    47    30    1
  1409   100    98   ar
  1410    45    24    2
  1411    98    99    2
  1412  1320  1321    1
  1413    49    48    1
  1414    48    50    1
  1415  1353  1352    1
  1416  1347  1352   ar
  1417  1347  1348   ar
  1418    70    71    1
  1419  1352  1351   ar
  1420    52    50    1
  1421    52    54    1
  1422  1348  1349   ar
  1423    74    75    1
  1424    74    76    1
  1425    83    84   ar
  1426    83    81   ar
  1427  1351  1350   ar
  1428  1351  1354   ar
  1429    84    77   ar
  1430  1349  1350   ar
  1431  1350  1356   ar
  1432  1354  1355   ar
  1433    30    29    1
  1434  1321  1337    1
  1435    82    81    1
  1436    50    51    1
  1437    81    80   ar
  1438  1355  1356   ar
  1439  1356  1346    1
  1440    24    46    1
  1441    24    26    1
  1442    24     7    1
  1443  1341  1346    1
  1444  1341  1340    1
  1445    71    76    1
  1446    77    76    1
  1447    77    78   ar
  1448  1346  1344    1
  1449    80    78   ar
  1450    26    25    1
  1451    54    55    1
  1452    54    56    1
  1453    78    79    2
  1454    25    27    1
  1455    29    27    1
  1456    29    31    1
  1457     7     6    1
  1458    64    63   ar
  1459    64    57   ar
  1460    51    56    1
  1461    63    61   ar
  1462  1337  1358    2
  1463  1337  1339    1
  1464  1337  1357    1
  1465  1340  1338    1
  1466  1340  1342    1
  1467  1338  1339    1
  1468    27    28    1
  1469  1376  1375    2
  1470    56    57    1
  1471  1369  1375   ar
  1472  1369  1370   ar
  1473    57    58   ar
  1474  1344  1345    1
  1475  1344  1342    1
  1476    22     1    1
  1477  1371  1370    1
  1478  1375  1374   ar
  1479    61    62    1
  1480    61    60   ar
  1481  1370  1372   ar
  1482     2     3    1
  1483     2     4    1
  1484    31    32    1
  1485    31    33    1
  1486     6     4    1
  1487     6     8    1
  1488  1374  1377   ar
  1489  1374  1373   ar
  1490     1     3    1
  1491     1    23    1
  1492  1342  1343    1
  1493  1372  1373   ar
  1494  1377  1378   ar
  1495  1373  1379   ar
  1496    58    60   ar
  1497    58    59    2
  1498     4     5    1
  1499    28    33    1
  1500  1378  1379   ar
  1501  1379  1368    1
  1502    33    44    1
  1503     9     8    1
  1504    43    44   ar
  1505    43    42   ar
  1506  1368  1363    1
  1507  1368  1366    1
  1508     8    10    1
  1509  1363  1362    1
  1510  1394  1393    1
  1511    44    38   ar
  1512  1343  1359    1
  1513  1392  1393   ar
  1514  1392  1398   ar
  1515    42    39   ar
  1516  1399  1398    2
  1517  1393  1395   ar
  1518  1398  1397   ar
  1519     5    10    1
  1520    38    39   ar
  1521    38    37   ar
  1522  1395  1396   ar
  1523    39    40   ar
  1524    10    21    1
  1525  1397  1396   ar
  1526  1397  1400   ar
  1527  1366  1367    1
  1528  1366  1364    1
  1529  1381  1359    2
  1530  1396  1402   ar
  1531    37    35   ar
  1532  1362  1360    1
  1533  1362  1364    1
  1534    20    21   ar
  1535    20    19   ar
  1536  1359  1361    1
  1537  1359  1380    1
  1538  1400  1401   ar
  1539  1361  1360    1
  1540    21    15   ar
  1541    40    41    2
  1542    40    34   ar
  1543  1402  1401   ar
  1544  1402  1391    1
  1545    35    34   ar
  1546    35    36    1
  1547    19    16   ar
  1548  1391  1386    1
  1549  1391  1389    1
  1550  1364  1365    1
  1551    15    16   ar
  1552    15    14   ar
  1553  1386  1385    1
  1554    16    17   ar
  1555    14    12   ar
  1556  1417  1416    2
  1557    17    18    2
  1558    17    11   ar
  1559    12    11   ar
  1560    12    13    1
  1561  1390  1389    1
  1562  1418  1416   ar
  1563  1418  1419   ar
  1564  1416  1415   ar
  1565  1389  1387    1
  1566  1365  1382    1
  1567  1420  1419    2
  1568  1385  1383    1
  1569  1385  1387    1
  1570  1419  1421   ar
  1571  1415  1414    1
  1572  1415  1422   ar
  1573  1414  1409    1
  1574  1414  1412    1
  1575  1384  1383    1
  1576  1384  1382    1
  1577  1409  1408    1
  1578  1421  1422   ar
  1579  1387  1388    1
  1580  1413  1412    1
  1581  1404  1382    2
  1582  1382  1403    1
  1583  1412  1410    1
  1584  1408  1410    1
  1585  1408  1406    1
  1586  1388  1405    1
  1587  1410  1411    1
  1588  1406  1407    1
  1589  1407  1405    1
  1590  1405  1424    2
  1591  1405  1423    1
