1byj cryst
  DSViewer          3D                             0

 48 50  0  0  0  0  0  0  0  0999 V2000
    8.8420    2.0620   -0.6160 C   0  0  0  0  0  0  0  0  0  1
    7.6180    2.1910   -1.4080 O   0  0  0  0  0  0  0  0  0  2
    6.6140    3.1640   -0.9910 C   0  0  0  0  0  0  0  0  0  3
    7.0960    4.5330   -1.1650 O   0  0  0  0  0  0  0  0  0  4
    6.2200    2.8940    0.4930 C   0  0  0  0  0  0  0  0  0  5
    5.2040    3.8340    1.0060 N   0  3  0  0  0  0  0  0  0  6
    5.5600    4.7760    0.9520 H   0  0  0  0  0  0  0  0  0  7
    4.3650    3.7590    0.4500 H   0  0  0  0  0  0  0  0  0  8
    4.9920    3.6090    1.9660 H   0  0  0  0  0  0  0  0  0  9
    7.4830    2.9200    1.3920 C   0  0  0  0  0  0  0  0  0 10
    8.5320    1.9120    0.8990 C   0  0  0  0  0  0  0  0  0 11
    9.6340    0.8330   -1.0960 C   0  0  0  0  0  0  0  0  0 12
    9.9950    0.8780   -2.5190 N   0  3  0  0  0  0  0  0  0 13
    9.1560    0.9300   -3.0770 H   0  0  0  0  0  0  0  0  0 14
   10.5670    1.6900   -2.6950 H   0  0  0  0  0  0  0  0  0 15
   10.5100    0.0450   -2.7620 H   0  0  0  0  0  0  0  0  0 16
    7.4300    6.6060   -2.4540 C   0  0  0  0  0  0  0  0  0 17
    6.8130    7.5790   -3.4880 C   0  0  0  0  0  0  0  0  0 18
    5.4250    8.0780   -3.0040 C   0  0  0  0  0  0  0  0  0 19
    4.8840    9.0630   -3.9600 N   0  3  0  0  0  0  0  0  0 20
    5.5150    9.8480   -4.0270 H   0  0  0  0  0  0  0  0  0 21
    4.7850    8.6320   -4.8670 H   0  0  0  0  0  0  0  0  0 22
    3.9820    9.3830   -3.6390 H   0  0  0  0  0  0  0  0  0 23
    4.4600    6.8740   -2.8020 C   0  0  0  0  0  0  0  0  0 24
    5.0660    5.8090   -1.8540 C   0  0  0  0  0  0  0  0  0 25
    4.1860    4.6950   -1.8800 O   0  0  0  0  0  0  0  0  0 26
    4.5270    4.0010   -1.2990 H   0  0  0  0  0  0  0  0  0 27
    6.5170    5.3570   -2.2250 C   0  0  0  0  0  0  0  0  0 28
    8.7890    6.2190   -2.8720 N   0  3  0  0  0  0  0  0  0 29
    8.7470    5.7640   -3.7720 H   0  0  0  0  0  0  0  0  0 30
    9.3680    7.0430   -2.9380 H   0  0  0  0  0  0  0  0  0 31
    9.1820    5.5850   -2.1920 H   0  0  0  0  0  0  0  0  0 32
    1.1320    5.1500   -1.6380 C   0  0  0  0  0  0  0  0  0 33
   -0.1410    5.9080   -1.1880 C   0  0  1  0  0  0  0  0  0 34
   -1.1670    5.5950   -2.1290 O   0  0  0  0  0  0  0  0  0 35
   -1.9820    6.0520   -1.8810 H   0  0  0  0  0  0  0  0  0 36
    0.1500    7.4560   -1.1680 C   0  0  0  0  0  0  0  0  0 37
    0.8370    7.9640   -2.4810 C   0  0  0  0  0  0  0  0  0 38
    1.9960    7.0550   -2.9630 C   0  0  0  0  0  0  0  0  0 39
    3.2070    7.3160   -2.2060 O   0  0  0  0  0  0  0  0  0 40
    1.6150    5.6510   -2.9130 O   0  0  0  0  0  0  0  0  0 41
    1.3270    9.2940   -2.3320 O   0  0  0  0  0  0  0  0  0 42
    1.7440    9.5780   -3.1570 H   0  0  0  0  0  0  0  0  0 43
   -1.1190    8.2060   -0.9120 N   0  3  0  0  0  0  0  0  0 44
   -1.5660    8.3523   -1.7945 H   0  0  0  0  0  0  0  0  0 45
   -0.9990    9.5210   -0.2500 C   0  0  0  0  0  0  0  0  0 46
   -0.5900    5.3500    0.1850 C   0  0  0  0  0  0  0  0  0 47
   -1.6987    7.6300   -0.3356 H   0  0  0  0  0  0  0  0  0  0
  1 11  1  0  0  0
  1 12  1  0  0  0
  1  2  1  0  0  0
  2  3  1  0  0  0
  3  5  1  0  0  0
  3  4  1  0  0  0
  4 28  1  0  0  0
  5 10  1  0  0  0
  5  6  1  0  0  0
  6  9  1  0  0  0
  6  8  1  0  0  0
  6  7  1  0  0  0
 10 11  1  0  0  0
 12 13  1  0  0  0
 13 16  1  0  0  0
 13 15  1  0  0  0
 13 14  1  0  0  0
 17 18  1  0  0  0
 17 28  1  0  0  0
 17 29  1  0  0  0
 18 19  1  0  0  0
 19 24  1  0  0  0
 19 20  1  0  0  0
 20 23  1  0  0  0
 20 22  1  0  0  0
 20 21  1  0  0  0
 24 25  1  0  0  0
 24 40  1  0  0  0
 25 28  1  0  0  0
 25 26  1  0  0  0
 26 27  1  0  0  0
 29 32  1  0  0  0
 29 31  1  0  0  0
 29 30  1  0  0  0
 33 34  1  0  0  0
 33 41  1  0  0  0
 34 47  1  0  0  0
 34 37  1  0  0  0
 34 35  1  0  0  0
 35 36  1  0  0  0
 37 38  1  0  0  0
 37 44  1  0  0  0
 38 39  1  0  0  0
 38 42  1  0  0  0
 39 41  1  0  0  0
 39 40  1  0  0  0
 42 43  1  0  0  0
 44 45  1  0  0  0
 44 46  1  0  0  0
 44 48  1  0  0  0
M  END
