1byj cryst
 OpenBabel11021811383D
libRbt.so/2013.1/901 2013/11/27
 31 33  0  0  0  0  0  0  0  0999 V2000
    8.8648    1.5669   -1.8856 C   0  0  1  0  0  0  0  0  0  0  0  0
    7.6020    1.7580   -2.6004 O   0  0  0  0  0  0  0  0  0  0  0  0
    6.5925    2.6341   -2.0157 C   0  0  2  0  0  0  0  0  0  0  0  0
    7.0284    4.0293   -2.0273 O   0  0  0  0  0  0  0  0  0  0  0  0
    6.2758    2.1590   -0.5650 C   0  0  2  0  0  0  0  0  0  0  0  0
    5.2597    2.9895    0.1109 N   0  3  0  0  0  0  0  0  0  0  0  0
    7.5783    2.1088    0.2746 C   0  0  0  0  0  0  0  0  0  0  0  0
    8.6301    1.2094   -0.3919 C   0  0  0  0  0  0  0  0  0  0  0  0
    9.6666    0.4383   -2.5575 C   0  0  0  0  0  0  0  0  0  0  0  0
   11.0599    0.3473   -2.1017 N   0  3  0  0  0  0  0  0  0  0  0  0
    7.2813    6.2162   -3.1336 C   0  0  1  0  0  0  0  0  0  0  0  0
    6.5814    7.3054   -3.9824 C   0  0  0  0  0  0  0  0  0  0  0  0
    5.2794    7.7841   -3.2857 C   0  0  1  0  0  0  0  0  0  0  0  0
    4.6645    8.8753   -4.0655 N   0  3  0  0  0  0  0  0  0  0  0  0
    4.3026    6.5887   -3.0892 C   0  0  1  0  0  0  0  0  0  0  0  0
    4.9781    5.4173   -2.3333 C   0  0  1  0  0  0  0  0  0  0  0  0
    4.0619    4.3330   -2.3633 O   0  0  0  0  0  0  0  0  0  0  0  0
    6.3577    4.9721   -2.9213 C   0  0  2  0  0  0  0  0  0  0  0  0
    8.5664    5.8427   -3.7504 N   0  3  0  0  0  0  0  0  0  0  0  0
    0.7935    5.0543   -2.4326 C   0  0  0  0  0  0  0  0  0  0  0  0
   -0.3546    5.7475   -1.6588 C   0  0  2  0  0  0  0  0  0  0  0  0
   -1.4257    5.9358   -2.5827 O   0  0  0  0  0  0  0  0  0  0  0  0
    0.1515    7.1290   -1.0960 C   0  0  1  0  0  0  0  0  0  0  0  0
    0.8874    7.9939   -2.1751 C   0  0  2  0  0  0  0  0  0  0  0  0
    1.9011    7.1878   -3.0264 C   0  0  1  0  0  0  0  0  0  0  0  0
    3.1457    6.9960   -2.3041 O   0  0  0  0  0  0  0  0  0  0  0  0
    1.3269    5.9245   -3.4661 O   0  0  0  0  0  0  0  0  0  0  0  0
    1.5615    9.1019   -1.5842 O   0  0  0  0  0  0  0  0  0  0  0  0
   -0.9961    7.8858   -0.5057 N   0  3  0  0  0  0  0  0  0  0  0  0
   -0.6665    9.0040    0.4014 C   0  0  0  0  0  0  0  0  0  0  0  0
   -0.8612    4.7844   -0.5571 C   0  0  0  0  0  0  0  0  0  0  0  0
  1  8  1  0  0  0  0
  1  9  1  6  0  0  0
  1  2  1  0  0  0  0
  2  3  1  0  0  0  0
  3  5  1  0  0  0  0
  3  4  1  1  0  0  0
  5  7  1  0  0  0  0
  5  6  1  1  0  0  0
  7  8  1  0  0  0  0
  9 10  1  0  0  0  0
 11 12  1  0  0  0  0
 11 18  1  0  0  0  0
 11 19  1  6  0  0  0
 12 13  1  0  0  0  0
 13 15  1  0  0  0  0
 13 14  1  6  0  0  0
 15 16  1  0  0  0  0
 15 26  1  1  0  0  0
 16 18  1  0  0  0  0
 16 17  1  6  0  0  0
 18  4  1  1  0  0  0
 20 21  1  0  0  0  0
 20 27  1  0  0  0  0
 21 31  1  1  0  0  0
 21 23  1  0  0  0  0
 21 22  1  0  0  0  0
 23 24  1  0  0  0  0
 23 29  1  6  0  0  0
 24 25  1  0  0  0  0
 24 28  1  1  0  0  0
 25 27  1  0  0  0  0
 25 26  1  1  0  0  0
 29 30  1  0  0  0  0
M  CHG  5   6   1  10   1  14   1  19   1  29   1
M  END
>  <CHROM.1>
167.99285633,110.36251227,-160.28972665,36.43188248,170.32534523,-69.83249208
-178.95813587,104.94520451,62.05399856,176.20618015,-76.01756335,60.73470777
-163.69357710,4.38023060,5.15208516,-2.05656887,0.48246526,-0.28738270,2.69040136

>  <Name>
1byj cryst

>  <RI>
0

>  <Rbt.Current_Directory>
/home/itssahil/PROJECTS/Mol_Feturizer/New_Systems/rnas/1byj

>  <Rbt.Executable>
rbdock ($Id: //depot/dev/client3/rdock/2013.1/src/exe/rbdock.cxx#4 $)

>  <Rbt.Library>
libRbt.so (2013.1, Build901 2013/11/27)

>  <Rbt.Parameter_File>
/export/apps/rDock/src/rDock_2013.1_src/data/scripts/dock_solv.prm

>  <Rbt.Receptor>
prm/pocket_docking_7.prm

>  <SCORE>
-43.1623

>  <SCORE.INTER>
-37.0958

>  <SCORE.INTER.CONST>
1

>  <SCORE.INTER.POLAR>
-4.44199

>  <SCORE.INTER.ROT>
6

>  <SCORE.INTER.SOLV>
25.7209

>  <SCORE.INTER.VDW>
-26.0975

>  <SCORE.INTER.norm>
-1.19664

>  <SCORE.INTRA>
-6.06646

>  <SCORE.INTRA.DIHEDRAL>
0.712

>  <SCORE.INTRA.DIHEDRAL.0>
18.4149

>  <SCORE.INTRA.POLAR>
-1.15134

>  <SCORE.INTRA.POLAR.0>
0

>  <SCORE.INTRA.REPUL>
-0.092687

>  <SCORE.INTRA.REPUL.0>
0.092687

>  <SCORE.INTRA.SOLV>
-0.550969

>  <SCORE.INTRA.SOLV.lig_0>
-120.37

>  <SCORE.INTRA.VDW>
-1.76898

>  <SCORE.INTRA.VDW.0>
-1.75542

>  <SCORE.INTRA.norm>
-0.195692

>  <SCORE.RESTR>
0

>  <SCORE.RESTR.CAVITY>
0

>  <SCORE.RESTR.norm>
0

>  <SCORE.SYSTEM>
0

>  <SCORE.SYSTEM.CONST>
0

>  <SCORE.SYSTEM.DIHEDRAL>
0

>  <SCORE.SYSTEM.SOLV>
0

>  <SCORE.SYSTEM.norm>
0

>  <SCORE.heavy>
31

>  <SCORE.norm>
-1.39233

>  <RMSD>
0.912

$$$$
1byj cryst
 OpenBabel11021811383D
libRbt.so/2013.1/901 2013/11/27
 31 33  0  0  0  0  0  0  0  0999 V2000
    8.8905    2.2698   -0.5786 C   0  0  1  0  0  0  0  0  0  0  0  0
    7.7006    2.0670   -1.4063 O   0  0  0  0  0  0  0  0  0  0  0  0
    6.4137    2.5430   -0.9103 C   0  0  2  0  0  0  0  0  0  0  0  0
    6.3673    4.0034   -0.8685 O   0  0  0  0  0  0  0  0  0  0  0  0
    6.1481    1.9343    0.5001 C   0  0  2  0  0  0  0  0  0  0  0  0
    4.8622    2.3613    1.0859 N   0  3  0  0  0  0  0  0  0  0  0  0
    7.3186    2.2781    1.4571 C   0  0  0  0  0  0  0  0  0  0  0  0
    8.6598    1.7972    0.8833 C   0  0  0  0  0  0  0  0  0  0  0  0
   10.0721    1.4912   -1.1832 C   0  0  0  0  0  0  0  0  0  0  0  0
   10.6414    2.1148   -2.3850 N   0  3  0  0  0  0  0  0  0  0  0  0
    6.9136    5.5913   -2.6714 C   0  0  1  0  0  0  0  0  0  0  0  0
    6.3470    6.4690   -3.8139 C   0  0  0  0  0  0  0  0  0  0  0  0
    5.2533    7.4278   -3.2714 C   0  0  1  0  0  0  0  0  0  0  0  0
    4.7779    8.3110   -4.3534 N   0  3  0  0  0  0  0  0  0  0  0  0
    4.0909    6.6133   -2.6334 C   0  0  1  0  0  0  0  0  0  0  0  0
    4.6070    5.6352   -1.5485 C   0  0  1  0  0  0  0  0  0  0  0  0
    3.4990    4.8348   -1.1638 O   0  0  0  0  0  0  0  0  0  0  0  0
    5.7953    4.7254   -2.0040 C   0  0  2  0  0  0  0  0  0  0  0  0
    8.0206    4.7590   -3.1747 N   0  3  0  0  0  0  0  0  0  0  0  0
    0.7716    5.6356   -2.4860 C   0  0  0  0  0  0  0  0  0  0  0  0
   -0.4038    6.2355   -1.6760 C   0  0  2  0  0  0  0  0  0  0  0  0
   -1.4294    6.5654   -2.6117 O   0  0  0  0  0  0  0  0  0  0  0  0
    0.0899    7.5190   -0.9077 C   0  0  1  0  0  0  0  0  0  0  0  0
    0.8832    8.5108   -1.8248 C   0  0  2  0  0  0  0  0  0  0  0  0
    1.9267    7.8119   -2.7328 C   0  0  1  0  0  0  0  0  0  0  0  0
    3.1349    7.5032   -1.9893 O   0  0  0  0  0  0  0  0  0  0  0  0
    1.3606    6.6298   -3.3661 O   0  0  0  0  0  0  0  0  0  0  0  0
    1.5406    9.5168   -1.0586 O   0  0  0  0  0  0  0  0  0  0  0  0
   -1.0759    8.2070   -0.2706 N   0  3  0  0  0  0  0  0  0  0  0  0
   -0.7739    9.2516    0.7291 C   0  0  0  0  0  0  0  0  0  0  0  0
   -0.9701    5.1396   -0.7399 C   0  0  0  0  0  0  0  0  0  0  0  0
  1  8  1  0  0  0  0
  1  9  1  6  0  0  0
  1  2  1  0  0  0  0
  2  3  1  0  0  0  0
  3  5  1  0  0  0  0
  3  4  1  1  0  0  0
  5  7  1  0  0  0  0
  5  6  1  1  0  0  0
  7  8  1  0  0  0  0
  9 10  1  0  0  0  0
 11 12  1  0  0  0  0
 11 18  1  0  0  0  0
 11 19  1  6  0  0  0
 12 13  1  0  0  0  0
 13 15  1  0  0  0  0
 13 14  1  6  0  0  0
 15 16  1  0  0  0  0
 15 26  1  1  0  0  0
 16 18  1  0  0  0  0
 16 17  1  6  0  0  0
 18  4  1  1  0  0  0
 20 21  1  0  0  0  0
 20 27  1  0  0  0  0
 21 31  1  1  0  0  0
 21 23  1  0  0  0  0
 21 22  1  0  0  0  0
 23 24  1  0  0  0  0
 23 29  1  6  0  0  0
 24 25  1  0  0  0  0
 24 28  1  1  0  0  0
 25 27  1  0  0  0  0
 25 26  1  1  0  0  0
 29 30  1  0  0  0  0
M  CHG  5   6   1  10   1  14   1  19   1  29   1
M  END
>  <CHROM.1>
75.01963657,94.66252723,-115.86334641,-173.25712070,-74.88237302,162.16850516
62.04593771,99.79262114,64.73117349,-86.66768244,-71.96036218,69.64447442
168.06630486,4.22564467,5.36219593,-1.53046074,0.44764588,-0.34999305,2.41611529

>  <Name>
1byj cryst

>  <RI>
0

>  <Rbt.Current_Directory>
/home/itssahil/PROJECTS/Mol_Feturizer/New_Systems/rnas/1byj

>  <Rbt.Executable>
rbdock ($Id: //depot/dev/client3/rdock/2013.1/src/exe/rbdock.cxx#4 $)

>  <Rbt.Library>
libRbt.so (2013.1, Build901 2013/11/27)

>  <Rbt.Parameter_File>
/export/apps/rDock/src/rDock_2013.1_src/data/scripts/dock_solv.prm

>  <Rbt.Receptor>
prm/pocket_docking_2.prm

>  <SCORE>
-33.0226

>  <SCORE.INTER>
-34.0489

>  <SCORE.INTER.CONST>
1

>  <SCORE.INTER.POLAR>
-4.57739

>  <SCORE.INTER.ROT>
6

>  <SCORE.INTER.SOLV>
21.6278

>  <SCORE.INTER.VDW>
-22.2505

>  <SCORE.INTER.norm>
-1.09835

>  <SCORE.INTRA>
0.446091

>  <SCORE.INTRA.DIHEDRAL>
5.43668

>  <SCORE.INTRA.DIHEDRAL.0>
18.4149

>  <SCORE.INTRA.POLAR>
-0.0436587

>  <SCORE.INTRA.POLAR.0>
0

>  <SCORE.INTRA.REPUL>
-0.092687

>  <SCORE.INTRA.REPUL.0>
0.092687

>  <SCORE.INTRA.SOLV>
1.4173

>  <SCORE.INTRA.SOLV.lig_0>
-120.37

>  <SCORE.INTRA.VDW>
-2.36903

>  <SCORE.INTRA.VDW.0>
-1.75542

>  <SCORE.INTRA.norm>
0.01439

>  <SCORE.RESTR>
0.580244

>  <SCORE.RESTR.CAVITY>
0.580244

>  <SCORE.RESTR.norm>
0.0187175

>  <SCORE.SYSTEM>
0

>  <SCORE.SYSTEM.CONST>
0

>  <SCORE.SYSTEM.DIHEDRAL>
0

>  <SCORE.SYSTEM.SOLV>
0

>  <SCORE.SYSTEM.norm>
0

>  <SCORE.heavy>
31

>  <SCORE.norm>
-1.06524

>  <RMSD>
0.932

$$$$
1byj cryst
 OpenBabel11021811383D
libRbt.so/2013.1/901 2013/11/27
 31 33  0  0  0  0  0  0  0  0999 V2000
    9.3967    1.8492   -2.2203 C   0  0  1  0  0  0  0  0  0  0  0  0
    7.9775    2.0290   -2.5297 O   0  0  0  0  0  0  0  0  0  0  0  0
    7.1805    2.9037   -1.6763 C   0  0  2  0  0  0  0  0  0  0  0  0
    7.5837    4.3011   -1.8233 O   0  0  0  0  0  0  0  0  0  0  0  0
    7.3113    2.4367   -0.1947 C   0  0  2  0  0  0  0  0  0  0  0  0
    6.5354    3.2664    0.7480 N   0  3  0  0  0  0  0  0  0  0  0  0
    8.8044    2.3989    0.2215 C   0  0  0  0  0  0  0  0  0  0  0  0
    9.6177    1.5006   -0.7225 C   0  0  0  0  0  0  0  0  0  0  0  0
    9.9712    0.7204   -3.0942 C   0  0  0  0  0  0  0  0  0  0  0  0
    9.9889    1.0313   -4.5296 N   0  3  0  0  0  0  0  0  0  0  0  0
    7.8537    6.3211   -3.2080 C   0  0  1  0  0  0  0  0  0  0  0  0
    7.1601    7.2984   -4.1879 C   0  0  0  0  0  0  0  0  0  0  0  0
    5.8691    7.8805   -3.5521 C   0  0  1  0  0  0  0  0  0  0  0  0
    5.2611    8.8679   -4.4644 N   0  3  0  0  0  0  0  0  0  0  0  0
    4.8799    6.7335   -3.1950 C   0  0  1  0  0  0  0  0  0  0  0  0
    5.5475    5.6627   -2.2961 C   0  0  1  0  0  0  0  0  0  0  0  0
    4.6185    4.5954   -2.1784 O   0  0  0  0  0  0  0  0  0  0  0  0
    6.9173    5.1271   -2.8290 C   0  0  2  0  0  0  0  0  0  0  0  0
    9.1297    5.8539   -3.7782 N   0  3  0  0  0  0  0  0  0  0  0  0
    1.2470    5.5043   -2.1948 C   0  0  0  0  0  0  0  0  0  0  0  0
    0.1658    6.4193   -1.5692 C   0  0  2  0  0  0  0  0  0  0  0  0
   -0.9060    6.5000   -2.5079 O   0  0  0  0  0  0  0  0  0  0  0  0
    0.7797    7.8436   -1.2935 C   0  0  1  0  0  0  0  0  0  0  0  0
    1.5554    8.4218   -2.5255 C   0  0  2  0  0  0  0  0  0  0  0  0
    2.4930    7.3911   -3.2041 C   0  0  1  0  0  0  0  0  0  0  0  0
    3.7339    7.2545   -2.4630 O   0  0  0  0  0  0  0  0  0  0  0  0
    1.8220    6.1117   -3.3824 O   0  0  0  0  0  0  0  0  0  0  0  0
    2.3177    9.5719   -2.1686 O   0  0  0  0  0  0  0  0  0  0  0  0
   -0.2999    8.7845   -0.8604 N   0  3  0  0  0  0  0  0  0  0  0  0
   -0.7202    8.7177    0.5541 C   0  0  0  0  0  0  0  0  0  0  0  0
   -0.3879    5.7326   -0.2965 C   0  0  0  0  0  0  0  0  0  0  0  0
  1  8  1  0  0  0  0
  1  9  1  6  0  0  0
  1  2  1  0  0  0  0
  2  3  1  0  0  0  0
  3  5  1  0  0  0  0
  3  4  1  1  0  0  0
  5  7  1  0  0  0  0
  5  6  1  1  0  0  0
  7  8  1  0  0  0  0
  9 10  1  0  0  0  0
 11 12  1  0  0  0  0
 11 18  1  0  0  0  0
 11 19  1  6  0  0  0
 12 13  1  0  0  0  0
 13 15  1  0  0  0  0
 13 14  1  6  0  0  0
 15 16  1  0  0  0  0
 15 26  1  1  0  0  0
 16 18  1  0  0  0  0
 16 17  1  6  0  0  0
 18  4  1  1  0  0  0
 20 21  1  0  0  0  0
 20 27  1  0  0  0  0
 21 31  1  1  0  0  0
 21 23  1  0  0  0  0
 21 22  1  0  0  0  0
 23 24  1  0  0  0  0
 23 29  1  6  0  0  0
 24 25  1  0  0  0  0
 24 28  1  1  0  0  0
 25 27  1  0  0  0  0
 25 26  1  1  0  0  0
 29 30  1  0  0  0  0
M  CHG  5   6   1  10   1  14   1  19   1  29   1
M  END
>  <CHROM.1>
65.69892596,90.66763040,-157.02377569,-173.59362066,-177.79114711,-61.23177336
-169.83020156,103.73706211,-61.37737057,56.78480301,-158.37739316,-63.57034756
-158.02357361,4.92682452,5.47017923,-2.19071763,0.42824577,-0.38400995,2.55971758

>  <Name>
1byj cryst

>  <RI>
0

>  <Rbt.Current_Directory>
/home/itssahil/PROJECTS/Mol_Feturizer/New_Systems/rnas/1byj

>  <Rbt.Executable>
rbdock ($Id: //depot/dev/client3/rdock/2013.1/src/exe/rbdock.cxx#4 $)

>  <Rbt.Library>
libRbt.so (2013.1, Build901 2013/11/27)

>  <Rbt.Parameter_File>
/export/apps/rDock/src/rDock_2013.1_src/data/scripts/dock_solv.prm

>  <Rbt.Receptor>
prm/pocket_docking_2.prm

>  <SCORE>
-34.5065

>  <SCORE.INTER>
-30.8263

>  <SCORE.INTER.CONST>
1

>  <SCORE.INTER.POLAR>
-3.16005

>  <SCORE.INTER.ROT>
6

>  <SCORE.INTER.SOLV>
23.2889

>  <SCORE.INTER.VDW>
-25.3803

>  <SCORE.INTER.norm>
-0.994398

>  <SCORE.INTRA>
-4.03236

>  <SCORE.INTRA.DIHEDRAL>
-2.42442

>  <SCORE.INTRA.DIHEDRAL.0>
18.4149

>  <SCORE.INTRA.POLAR>
-0.0868036

>  <SCORE.INTRA.POLAR.0>
0

>  <SCORE.INTRA.REPUL>
-0.092687

>  <SCORE.INTRA.REPUL.0>
0.092687

>  <SCORE.INTRA.SOLV>
-2.53739

>  <SCORE.INTRA.SOLV.lig_0>
-120.37

>  <SCORE.INTRA.VDW>
-0.79289

>  <SCORE.INTRA.VDW.0>
-1.75542

>  <SCORE.INTRA.norm>
-0.130076

>  <SCORE.RESTR>
0.352179

>  <SCORE.RESTR.CAVITY>
0.352179

>  <SCORE.RESTR.norm>
0.0113606

>  <SCORE.SYSTEM>
0

>  <SCORE.SYSTEM.CONST>
0

>  <SCORE.SYSTEM.DIHEDRAL>
0

>  <SCORE.SYSTEM.SOLV>
0

>  <SCORE.SYSTEM.norm>
0

>  <SCORE.heavy>
31

>  <SCORE.norm>
-1.11311

>  <RMSD>
1.123

$$$$
1byj cryst
 OpenBabel11021811383D
libRbt.so/2013.1/901 2013/11/27
 31 33  0  0  0  0  0  0  0  0999 V2000
    9.1387    2.2418   -2.6555 C   0  0  1  0  0  0  0  0  0  0  0  0
    7.6758    2.2470   -2.6129 O   0  0  0  0  0  0  0  0  0  0  0  0
    7.0108    2.8944   -1.4872 C   0  0  2  0  0  0  0  0  0  0  0  0
    7.2033    4.3431   -1.5177 O   0  0  0  0  0  0  0  0  0  0  0  0
    7.5450    2.2870   -0.1545 C   0  0  2  0  0  0  0  0  0  0  0  0
    6.9268    2.8832    1.0462 N   0  3  0  0  0  0  0  0  0  0  0  0
    9.0884    2.4200   -0.0901 C   0  0  0  0  0  0  0  0  0  0  0  0
    9.7502    1.7620   -1.3102 C   0  0  0  0  0  0  0  0  0  0  0  0
    9.6136    1.3146   -3.7881 C   0  0  0  0  0  0  0  0  0  0  0  0
   11.0243    1.4980   -4.1534 N   0  3  0  0  0  0  0  0  0  0  0  0
    7.3526    6.3787   -2.8977 C   0  0  1  0  0  0  0  0  0  0  0  0
    6.6019    7.3153   -3.8755 C   0  0  0  0  0  0  0  0  0  0  0  0
    5.2786    7.8181   -3.2385 C   0  0  1  0  0  0  0  0  0  0  0  0
    4.6128    8.7696   -4.1486 N   0  3  0  0  0  0  0  0  0  0  0  0
    4.3595    6.6134   -2.8841 C   0  0  1  0  0  0  0  0  0  0  0  0
    5.0896    5.5822   -1.9876 C   0  0  1  0  0  0  0  0  0  0  0  0
    4.2258    4.4612   -1.8724 O   0  0  0  0  0  0  0  0  0  0  0  0
    6.4889    5.1303   -2.5216 C   0  0  2  0  0  0  0  0  0  0  0  0
    8.6540    5.9897   -3.4689 N   0  3  0  0  0  0  0  0  0  0  0  0
    0.8654    5.0896   -2.3632 C   0  0  0  0  0  0  0  0  0  0  0  0
   -0.3192    5.7668   -1.6313 C   0  0  2  0  0  0  0  0  0  0  0  0
   -1.3590    5.9405   -2.5930 O   0  0  0  0  0  0  0  0  0  0  0  0
    0.1474    7.1550   -1.0512 C   0  0  1  0  0  0  0  0  0  0  0  0
    0.9094    8.0302   -2.1035 C   0  0  2  0  0  0  0  0  0  0  0  0
    1.9640    7.2383   -2.9176 C   0  0  1  0  0  0  0  0  0  0  0  0
    3.1845    7.0636   -2.1511 O   0  0  0  0  0  0  0  0  0  0  0  0
    1.4234    5.9673   -3.3772 O   0  0  0  0  0  0  0  0  0  0  0  0
    1.5466    9.1473   -1.4891 O   0  0  0  0  0  0  0  0  0  0  0  0
   -1.0310    7.8959   -0.5027 N   0  3  0  0  0  0  0  0  0  0  0  0
   -0.7546    8.9583    0.4857 C   0  0  0  0  0  0  0  0  0  0  0  0
   -0.8517    4.7966   -0.5481 C   0  0  0  0  0  0  0  0  0  0  0  0
  1  8  1  0  0  0  0
  1  9  1  6  0  0  0
  1  2  1  0  0  0  0
  2  3  1  0  0  0  0
  3  5  1  0  0  0  0
  3  4  1  1  0  0  0
  5  7  1  0  0  0  0
  5  6  1  1  0  0  0
  7  8  1  0  0  0  0
  9 10  1  0  0  0  0
 11 12  1  0  0  0  0
 11 18  1  0  0  0  0
 11 19  1  6  0  0  0
 12 13  1  0  0  0  0
 13 15  1  0  0  0  0
 13 14  1  6  0  0  0
 15 16  1  0  0  0  0
 15 26  1  1  0  0  0
 16 18  1  0  0  0  0
 16 17  1  6  0  0  0
 18  4  1  1  0  0  0
 20 21  1  0  0  0  0
 20 27  1  0  0  0  0
 21 31  1  1  0  0  0
 21 23  1  0  0  0  0
 21 22  1  0  0  0  0
 23 24  1  0  0  0  0
 23 29  1  6  0  0  0
 24 25  1  0  0  0  0
 24 28  1  1  0  0  0
 25 27  1  0  0  0  0
 25 26  1  1  0  0  0
 29 30  1  0  0  0  0
M  CHG  5   6   1  10   1  14   1  19   1  29   1
M  END
>  <CHROM.1>
164.81502629,72.59095068,-149.29342467,-177.03609210,-65.76373858,-56.31914760
-173.53170186,98.58693491,-168.51308623,56.70368788,-80.05160855,59.42852449
-166.41061355,4.61565004,5.33213173,-2.06402258,0.37210618,-0.31641011,2.61916474

>  <Name>
1byj cryst

>  <RI>
0

>  <Rbt.Current_Directory>
/home/itssahil/PROJECTS/Mol_Feturizer/New_Systems/rnas/1byj

>  <Rbt.Executable>
rbdock ($Id: //depot/dev/client3/rdock/2013.1/src/exe/rbdock.cxx#4 $)

>  <Rbt.Library>
libRbt.so (2013.1, Build901 2013/11/27)

>  <Rbt.Parameter_File>
/export/apps/rDock/src/rDock_2013.1_src/data/scripts/dock_solv.prm

>  <Rbt.Receptor>
prm/pocket_docking_2.prm

>  <SCORE>
-47.253

>  <SCORE.INTER>
-41.2851

>  <SCORE.INTER.CONST>
1

>  <SCORE.INTER.POLAR>
-5.31779

>  <SCORE.INTER.ROT>
6

>  <SCORE.INTER.SOLV>
24.2392

>  <SCORE.INTER.VDW>
-25.4772

>  <SCORE.INTER.norm>
-1.33178

>  <SCORE.INTRA>
-6.05416

>  <SCORE.INTRA.DIHEDRAL>
-4.83842

>  <SCORE.INTRA.DIHEDRAL.0>
18.4149

>  <SCORE.INTRA.POLAR>
0

>  <SCORE.INTRA.POLAR.0>
0

>  <SCORE.INTRA.REPUL>
-0.092687

>  <SCORE.INTRA.REPUL.0>
0.092687

>  <SCORE.INTRA.SOLV>
-2.90791

>  <SCORE.INTRA.SOLV.lig_0>
-120.37

>  <SCORE.INTRA.VDW>
-1.71756

>  <SCORE.INTRA.VDW.0>
-1.75542

>  <SCORE.INTRA.norm>
-0.195295

>  <SCORE.RESTR>
0.0862588

>  <SCORE.RESTR.CAVITY>
0.0862588

>  <SCORE.RESTR.norm>
0.00278254

>  <SCORE.SYSTEM>
0

>  <SCORE.SYSTEM.CONST>
0

>  <SCORE.SYSTEM.DIHEDRAL>
0

>  <SCORE.SYSTEM.SOLV>
0

>  <SCORE.SYSTEM.norm>
0

>  <SCORE.heavy>
31

>  <SCORE.norm>
-1.52429

>  <RMSD>
1.168

$$$$
1byj cryst
 OpenBabel11021811383D
libRbt.so/2013.1/901 2013/11/27
 31 33  0  0  0  0  0  0  0  0999 V2000
    9.4981    2.3524   -1.9642 C   0  0  1  0  0  0  0  0  0  0  0  0
    8.2750    2.1540   -2.7432 O   0  0  0  0  0  0  0  0  0  0  0  0
    6.9874    2.2892   -2.0706 C   0  0  2  0  0  0  0  0  0  0  0  0
    6.7366    3.6741   -1.6759 O   0  0  0  0  0  0  0  0  0  0  0  0
    6.9494    1.3396   -0.8348 C   0  0  2  0  0  0  0  0  0  0  0  0
    5.6784    1.4076   -0.0871 N   0  3  0  0  0  0  0  0  0  0  0  0
    8.1456    1.6408    0.1046 C   0  0  0  0  0  0  0  0  0  0  0  0
    9.4801    1.5274   -0.6478 C   0  0  0  0  0  0  0  0  0  0  0  0
   10.7150    1.9344   -2.8083 C   0  0  0  0  0  0  0  0  0  0  0  0
   10.5870    0.6033   -3.4160 N   0  3  0  0  0  0  0  0  0  0  0  0
    7.2701    5.7001   -2.9726 C   0  0  1  0  0  0  0  0  0  0  0  0
    6.7189    6.7831   -3.9317 C   0  0  0  0  0  0  0  0  0  0  0  0
    5.4807    7.4818   -3.3084 C   0  0  1  0  0  0  0  0  0  0  0  0
    5.0136    8.5628   -4.1973 N   0  3  0  0  0  0  0  0  0  0  0  0
    4.3607    6.4398   -3.0231 C   0  0  1  0  0  0  0  0  0  0  0  0
    4.8782    5.2697   -2.1494 C   0  0  1  0  0  0  0  0  0  0  0  0
    3.8342    4.3088   -2.0985 O   0  0  0  0  0  0  0  0  0  0  0  0
    6.1967    4.6047   -2.6660 C   0  0  2  0  0  0  0  0  0  0  0  0
    8.5039    5.1148   -3.5263 N   0  3  0  0  0  0  0  0  0  0  0  0
    0.9107    5.1071   -2.3907 C   0  0  0  0  0  0  0  0  0  0  0  0
   -0.2419    5.8155   -1.6375 C   0  0  2  0  0  0  0  0  0  0  0  0
   -1.3106    5.9782   -2.5690 O   0  0  0  0  0  0  0  0  0  0  0  0
    0.2586    7.2118   -1.1070 C   0  0  1  0  0  0  0  0  0  0  0  0
    0.9953    8.0523   -2.2046 C   0  0  2  0  0  0  0  0  0  0  0  0
    2.0140    7.2288   -3.0328 C   0  0  1  0  0  0  0  0  0  0  0  0
    3.2569    7.0583   -2.3023 O   0  0  0  0  0  0  0  0  0  0  0  0
    1.4448    5.9535   -3.4434 O   0  0  0  0  0  0  0  0  0  0  0  0
    1.6644    9.1763   -1.6387 O   0  0  0  0  0  0  0  0  0  0  0  0
   -0.8931    7.9794   -0.5388 N   0  3  0  0  0  0  0  0  0  0  0  0
   -0.5797    9.0042    0.4778 C   0  0  0  0  0  0  0  0  0  0  0  0
   -0.7491    4.8780   -0.5142 C   0  0  0  0  0  0  0  0  0  0  0  0
  1  8  1  0  0  0  0
  1  9  1  6  0  0  0
  1  2  1  0  0  0  0
  2  3  1  0  0  0  0
  3  5  1  0  0  0  0
  3  4  1  1  0  0  0
  5  7  1  0  0  0  0
  5  6  1  1  0  0  0
  7  8  1  0  0  0  0
  9 10  1  0  0  0  0
 11 12  1  0  0  0  0
 11 18  1  0  0  0  0
 11 19  1  6  0  0  0
 12 13  1  0  0  0  0
 13 15  1  0  0  0  0
 13 14  1  6  0  0  0
 15 16  1  0  0  0  0
 15 26  1  1  0  0  0
 16 18  1  0  0  0  0
 16 17  1  6  0  0  0
 18  4  1  1  0  0  0
 20 21  1  0  0  0  0
 20 27  1  0  0  0  0
 21 31  1  1  0  0  0
 21 23  1  0  0  0  0
 21 22  1  0  0  0  0
 23 24  1  0  0  0  0
 23 29  1  6  0  0  0
 24 25  1  0  0  0  0
 24 28  1  1  0  0  0
 25 27  1  0  0  0  0
 25 26  1  1  0  0  0
 29 30  1  0  0  0  0
M  CHG  5   6   1  10   1  14   1  19   1  29   1
M  END
>  <CHROM.1>
-50.39317985,82.73860980,-113.92603661,63.07051629,-64.60808037,-118.56313869
-55.46042471,110.07773613,64.21703426,-177.28474677,-83.81827909,64.60143114
-172.94895047,4.56257098,5.05556393,-2.10422860,0.45179127,-0.30715059,2.67988771

>  <Name>
1byj cryst

>  <RI>
0

>  <Rbt.Current_Directory>
/home/itssahil/PROJECTS/Mol_Feturizer/New_Systems/rnas/1byj

>  <Rbt.Executable>
rbdock ($Id: //depot/dev/client3/rdock/2013.1/src/exe/rbdock.cxx#4 $)

>  <Rbt.Library>
libRbt.so (2013.1, Build901 2013/11/27)

>  <Rbt.Parameter_File>
/export/apps/rDock/src/rDock_2013.1_src/data/scripts/dock_solv.prm

>  <Rbt.Receptor>
prm/pocket_docking_2.prm

>  <SCORE>
-40.1852

>  <SCORE.INTER>
-38.8024

>  <SCORE.INTER.CONST>
1

>  <SCORE.INTER.POLAR>
-4.21933

>  <SCORE.INTER.ROT>
6

>  <SCORE.INTER.SOLV>
23.5926

>  <SCORE.INTER.VDW>
-27.268

>  <SCORE.INTER.norm>
-1.25169

>  <SCORE.INTRA>
-1.76501

>  <SCORE.INTRA.DIHEDRAL>
3.74567

>  <SCORE.INTRA.DIHEDRAL.0>
18.4149

>  <SCORE.INTRA.POLAR>
-0.539167

>  <SCORE.INTRA.POLAR.0>
0

>  <SCORE.INTRA.REPUL>
-0.092687

>  <SCORE.INTRA.REPUL.0>
0.092687

>  <SCORE.INTRA.SOLV>
1.21957

>  <SCORE.INTRA.SOLV.lig_0>
-120.37

>  <SCORE.INTRA.VDW>
-1.95103

>  <SCORE.INTRA.VDW.0>
-1.75542

>  <SCORE.INTRA.norm>
-0.0569358

>  <SCORE.RESTR>
0.382199

>  <SCORE.RESTR.CAVITY>
0.382199

>  <SCORE.RESTR.norm>
0.012329

>  <SCORE.SYSTEM>
0

>  <SCORE.SYSTEM.CONST>
0

>  <SCORE.SYSTEM.DIHEDRAL>
0

>  <SCORE.SYSTEM.SOLV>
0

>  <SCORE.SYSTEM.norm>
0

>  <SCORE.heavy>
31

>  <SCORE.norm>
-1.2963

>  <RMSD>
1.195

$$$$
1byj cryst
 OpenBabel11021811383D
libRbt.so/2013.1/901 2013/11/27
 31 33  0  0  0  0  0  0  0  0999 V2000
    9.1666    2.1706   -2.6879 C   0  0  1  0  0  0  0  0  0  0  0  0
    7.7043    2.1960   -2.6314 O   0  0  0  0  0  0  0  0  0  0  0  0
    7.0590    2.8625   -1.5053 C   0  0  2  0  0  0  0  0  0  0  0  0
    7.2707    4.3081   -1.5510 O   0  0  0  0  0  0  0  0  0  0  0  0
    7.5979    2.2600   -0.1723 C   0  0  2  0  0  0  0  0  0  0  0  0
    6.9994    2.8752    1.0287 N   0  3  0  0  0  0  0  0  0  0  0  0
    9.1435    2.3727   -0.1239 C   0  0  0  0  0  0  0  0  0  0  0  0
    9.7846    1.6948   -1.3442 C   0  0  0  0  0  0  0  0  0  0  0  0
    9.6180    1.2269   -3.8164 C   0  0  0  0  0  0  0  0  0  0  0  0
   11.0237    1.3975   -4.2064 N   0  3  0  0  0  0  0  0  0  0  0  0
    7.3453    6.3938   -2.8604 C   0  0  1  0  0  0  0  0  0  0  0  0
    6.5623    7.3331   -3.8097 C   0  0  0  0  0  0  0  0  0  0  0  0
    5.2178    7.7619   -3.1629 C   0  0  1  0  0  0  0  0  0  0  0  0
    4.5188    8.7172   -4.0436 N   0  3  0  0  0  0  0  0  0  0  0  0
    4.3453    6.5109   -2.8542 C   0  0  1  0  0  0  0  0  0  0  0  0
    5.1119    5.4790   -1.9895 C   0  0  1  0  0  0  0  0  0  0  0  0
    4.2922    4.3219   -1.9167 O   0  0  0  0  0  0  0  0  0  0  0  0
    6.5298    5.1005   -2.5313 C   0  0  2  0  0  0  0  0  0  0  0  0
    8.6632    6.0755   -3.4377 N   0  3  0  0  0  0  0  0  0  0  0  0
    0.7681    4.9952   -2.3429 C   0  0  0  0  0  0  0  0  0  0  0  0
   -0.3981    5.7112   -1.6184 C   0  0  2  0  0  0  0  0  0  0  0  0
   -1.4247    5.9207   -2.5871 O   0  0  0  0  0  0  0  0  0  0  0  0
    0.1109    7.0824   -1.0335 C   0  0  1  0  0  0  0  0  0  0  0  0
    0.9093    7.9323   -2.0795 C   0  0  2  0  0  0  0  0  0  0  0  0
    1.9423    7.1061   -2.8871 C   0  0  1  0  0  0  0  0  0  0  0  0
    3.1508    6.8897   -2.1124 O   0  0  0  0  0  0  0  0  0  0  0  0
    1.3624    5.8545   -3.3520 O   0  0  0  0  0  0  0  0  0  0  0  0
    1.5794    9.0267   -1.4594 O   0  0  0  0  0  0  0  0  0  0  0  0
   -1.0457    7.8620   -0.4923 N   0  3  0  0  0  0  0  0  0  0  0  0
   -0.7405    8.9138    0.4988 C   0  0  0  0  0  0  0  0  0  0  0  0
   -0.9705    4.7584   -0.5401 C   0  0  0  0  0  0  0  0  0  0  0  0
  1  8  1  0  0  0  0
  1  9  1  6  0  0  0
  1  2  1  0  0  0  0
  2  3  1  0  0  0  0
  3  5  1  0  0  0  0
  3  4  1  1  0  0  0
  5  7  1  0  0  0  0
  5  6  1  1  0  0  0
  7  8  1  0  0  0  0
  9 10  1  0  0  0  0
 11 12  1  0  0  0  0
 11 18  1  0  0  0  0
 11 19  1  6  0  0  0
 12 13  1  0  0  0  0
 13 15  1  0  0  0  0
 13 14  1  6  0  0  0
 15 16  1  0  0  0  0
 15 26  1  1  0  0  0
 16 18  1  0  0  0  0
 16 17  1  6  0  0  0
 18  4  1  1  0  0  0
 20 21  1  0  0  0  0
 20 27  1  0  0  0  0
 21 31  1  1  0  0  0
 21 23  1  0  0  0  0
 21 22  1  0  0  0  0
 23 24  1  0  0  0  0
 23 29  1  6  0  0  0
 24 25  1  0  0  0  0
 24 28  1  1  0  0  0
 25 27  1  0  0  0  0
 25 26  1  1  0  0  0
 29 30  1  0  0  0  0
M  CHG  5   6   1  10   1  14   1  19   1  29   1
M  END
>  <CHROM.1>
164.22285044,74.23244120,-153.79544096,-53.08808882,49.23726690,-178.07912160
-60.26951223,95.68249802,-60.33212099,-179.32548146,-80.03189442,-70.42665617
-161.32958991,4.60394340,5.27850835,-2.05618640,0.37463829,-0.30589468,2.64770555

>  <Name>
1byj cryst

>  <RI>
0

>  <Rbt.Current_Directory>
/home/itssahil/PROJECTS/Mol_Feturizer/New_Systems/rnas/1byj

>  <Rbt.Executable>
rbdock ($Id: //depot/dev/client3/rdock/2013.1/src/exe/rbdock.cxx#4 $)

>  <Rbt.Library>
libRbt.so (2013.1, Build901 2013/11/27)

>  <Rbt.Parameter_File>
/export/apps/rDock/src/rDock_2013.1_src/data/scripts/dock_solv.prm

>  <Rbt.Receptor>
prm/pocket_docking_2.prm

>  <SCORE>
-47.5585

>  <SCORE.INTER>
-42.2765

>  <SCORE.INTER.CONST>
1

>  <SCORE.INTER.POLAR>
-5.30345

>  <SCORE.INTER.ROT>
6

>  <SCORE.INTER.SOLV>
24.3473

>  <SCORE.INTER.VDW>
-26.2219

>  <SCORE.INTER.norm>
-1.36376

>  <SCORE.INTRA>
-5.43774

>  <SCORE.INTRA.DIHEDRAL>
-5.19245

>  <SCORE.INTRA.DIHEDRAL.0>
18.4149

>  <SCORE.INTRA.POLAR>
-0.00537424

>  <SCORE.INTRA.POLAR.0>
0

>  <SCORE.INTRA.REPUL>
-0.092687

>  <SCORE.INTRA.REPUL.0>
0.092687

>  <SCORE.INTRA.SOLV>
-2.28098

>  <SCORE.INTRA.SOLV.lig_0>
-120.37

>  <SCORE.INTRA.VDW>
-1.21932

>  <SCORE.INTRA.VDW.0>
-1.75542

>  <SCORE.INTRA.norm>
-0.175411

>  <SCORE.RESTR>
0.155731

>  <SCORE.RESTR.CAVITY>
0.155731

>  <SCORE.RESTR.norm>
0.00502357

>  <SCORE.SYSTEM>
0

>  <SCORE.SYSTEM.CONST>
0

>  <SCORE.SYSTEM.DIHEDRAL>
0

>  <SCORE.SYSTEM.SOLV>
0

>  <SCORE.SYSTEM.norm>
0

>  <SCORE.heavy>
31

>  <SCORE.norm>
-1.53414

>  <RMSD>
1.198

$$$$
1byj cryst
 OpenBabel11021811383D
libRbt.so/2013.1/901 2013/11/27
 31 33  0  0  0  0  0  0  0  0999 V2000
    9.1120    1.7707   -2.6552 C   0  0  1  0  0  0  0  0  0  0  0  0
    7.6521    1.8386   -2.5771 O   0  0  0  0  0  0  0  0  0  0  0  0
    7.0438    2.5766   -1.4753 C   0  0  2  0  0  0  0  0  0  0  0  0
    7.2929    4.0120   -1.5954 O   0  0  0  0  0  0  0  0  0  0  0  0
    7.5891    2.0254   -0.1228 C   0  0  2  0  0  0  0  0  0  0  0  0
    7.0276    2.7146    1.0556 N   0  3  0  0  0  0  0  0  0  0  0  0
    9.1378    2.0982   -0.1043 C   0  0  0  0  0  0  0  0  0  0  0  0
    9.7399    1.3443   -1.2995 C   0  0  0  0  0  0  0  0  0  0  0  0
    9.5190    0.7610   -3.7428 C   0  0  0  0  0  0  0  0  0  0  0  0
   10.9701    0.5640   -3.8569 N   0  3  0  0  0  0  0  0  0  0  0  0
    7.2508    6.1384   -2.8392 C   0  0  1  0  0  0  0  0  0  0  0  0
    6.4218    7.0552   -3.7713 C   0  0  0  0  0  0  0  0  0  0  0  0
    5.0441    7.3767   -3.1324 C   0  0  1  0  0  0  0  0  0  0  0  0
    4.2969    8.3126   -3.9942 N   0  3  0  0  0  0  0  0  0  0  0  0
    4.2497    6.0635   -2.8755 C   0  0  1  0  0  0  0  0  0  0  0  0
    5.0694    5.0560   -2.0310 C   0  0  1  0  0  0  0  0  0  0  0  0
    4.3248    3.8472   -2.0063 O   0  0  0  0  0  0  0  0  0  0  0  0
    6.5158    4.7860   -2.5623 C   0  0  2  0  0  0  0  0  0  0  0  0
    8.5940    5.9232   -3.4057 N   0  3  0  0  0  0  0  0  0  0  0  0
    0.6053    4.4792   -2.0833 C   0  0  0  0  0  0  0  0  0  0  0  0
   -0.5383    5.3096   -1.4507 C   0  0  2  0  0  0  0  0  0  0  0  0
   -1.5742    5.4043   -2.4275 O   0  0  0  0  0  0  0  0  0  0  0  0
    0.0024    6.7380   -1.0648 C   0  0  1  0  0  0  0  0  0  0  0  0
    0.8011    7.4216   -2.2261 C   0  0  2  0  0  0  0  0  0  0  0  0
    1.8084    6.4732   -2.9245 C   0  0  1  0  0  0  0  0  0  0  0  0
    3.0235    6.3417   -2.1409 O   0  0  0  0  0  0  0  0  0  0  0  0
    1.2007    5.1811   -3.2071 O   0  0  0  0  0  0  0  0  0  0  0  0
    1.4984    8.5775   -1.7692 O   0  0  0  0  0  0  0  0  0  0  0  0
   -1.1330    7.6061   -0.6225 N   0  3  0  0  0  0  0  0  0  0  0  0
   -0.7890    8.8234    0.1402 C   0  0  0  0  0  0  0  0  0  0  0  0
   -1.1123    4.5243   -0.2458 C   0  0  0  0  0  0  0  0  0  0  0  0
  1  8  1  0  0  0  0
  1  9  1  6  0  0  0
  1  2  1  0  0  0  0
  2  3  1  0  0  0  0
  3  5  1  0  0  0  0
  3  4  1  6  0  0  0
  5  7  1  0  0  0  0
  5  6  1  1  0  0  0
  7  8  1  0  0  0  0
  9 10  1  0  0  0  0
 11 12  1  0  0  0  0
 11 18  1  0  0  0  0
 11 19  1  6  0  0  0
 12 13  1  0  0  0  0
 13 15  1  0  0  0  0
 13 14  1  6  0  0  0
 15 16  1  0  0  0  0
 15 26  1  1  0  0  0
 16 18  1  0  0  0  0
 16 17  1  6  0  0  0
 18  4  1  1  0  0  0
 20 21  1  0  0  0  0
 20 27  1  0  0  0  0
 21 31  1  1  0  0  0
 21 23  1  0  0  0  0
 21 22  1  0  0  0  0
 23 24  1  0  0  0  0
 23 29  1  6  0  0  0
 24 25  1  0  0  0  0
 24 28  1  1  0  0  0
 25 27  1  0  0  0  0
 25 26  1  1  0  0  0
 29 30  1  0  0  0  0
M  CHG  5   6   1  10   1  14   1  19   1  29   1
M  END
>  <CHROM.1>
-177.01131646,76.82233897,-161.84459535,-54.13056897,-45.42334445,-177.39928165
171.36709827,97.10662594,-56.40365056,72.10818829,-76.31577758,-163.69356100
-151.20229373,4.52476518,4.88700406,-2.03948369,0.39331068,-0.27477730,2.69441086

>  <Name>
1byj cryst

>  <RI>
0

>  <Rbt.Current_Directory>
/home/itssahil/PROJECTS/Mol_Feturizer/New_Systems/rnas/1byj

>  <Rbt.Executable>
rbdock ($Id: //depot/dev/client3/rdock/2013.1/src/exe/rbdock.cxx#4 $)

>  <Rbt.Library>
libRbt.so (2013.1, Build901 2013/11/27)

>  <Rbt.Parameter_File>
/export/apps/rDock/src/rDock_2013.1_src/data/scripts/dock_solv.prm

>  <Rbt.Receptor>
prm/pocket_docking_2.prm

>  <SCORE>
-43.33

>  <SCORE.INTER>
-39.2992

>  <SCORE.INTER.CONST>
1

>  <SCORE.INTER.POLAR>
-4.7447

>  <SCORE.INTER.ROT>
6

>  <SCORE.INTER.SOLV>
26.6818

>  <SCORE.INTER.VDW>
-26.8777

>  <SCORE.INTER.norm>
-1.26772

>  <SCORE.INTRA>
-4.03078

>  <SCORE.INTRA.DIHEDRAL>
-3.41284

>  <SCORE.INTRA.DIHEDRAL.0>
18.4149

>  <SCORE.INTRA.POLAR>
-0.0107086

>  <SCORE.INTRA.POLAR.0>
0

>  <SCORE.INTRA.REPUL>
-0.092687

>  <SCORE.INTRA.REPUL.0>
0.092687

>  <SCORE.INTRA.SOLV>
-2.57626

>  <SCORE.INTRA.SOLV.lig_0>
-120.37

>  <SCORE.INTRA.VDW>
-0.536388

>  <SCORE.INTRA.VDW.0>
-1.75542

>  <SCORE.INTRA.norm>
-0.130025

>  <SCORE.RESTR>
0

>  <SCORE.RESTR.CAVITY>
0

>  <SCORE.RESTR.norm>
0

>  <SCORE.SYSTEM>
0

>  <SCORE.SYSTEM.CONST>
0

>  <SCORE.SYSTEM.DIHEDRAL>
0

>  <SCORE.SYSTEM.SOLV>
0

>  <SCORE.SYSTEM.norm>
0

>  <SCORE.heavy>
31

>  <SCORE.norm>
-1.39774

>  <RMSD>
1.268

$$$$
1byj cryst
 OpenBabel11021811383D
libRbt.so/2013.1/901 2013/11/27
 31 33  0  0  0  0  0  0  0  0999 V2000
    9.8277    2.0967   -2.3554 C   0  0  1  0  0  0  0  0  0  0  0  0
    8.5362    2.1111   -3.0438 O   0  0  0  0  0  0  0  0  0  0  0  0
    7.4226    2.8243   -2.4276 C   0  0  2  0  0  0  0  0  0  0  0  0
    7.6515    4.2681   -2.4265 O   0  0  0  0  0  0  0  0  0  0  0  0
    7.2079    2.2909   -0.9785 C   0  0  2  0  0  0  0  0  0  0  0  0
    6.0962    2.9569   -0.2716 N   0  3  0  0  0  0  0  0  0  0  0  0
    8.5208    2.4201   -0.1639 C   0  0  0  0  0  0  0  0  0  0  0  0
    9.6779    1.6910   -0.8631 C   0  0  0  0  0  0  0  0  0  0  0  0
   10.7706    1.1046   -3.0588 C   0  0  0  0  0  0  0  0  0  0  0  0
   10.8829    1.3176   -4.5077 N   0  3  0  0  0  0  0  0  0  0  0  0
    7.5170    6.5040   -3.4526 C   0  0  1  0  0  0  0  0  0  0  0  0
    6.6301    7.4905   -4.2505 C   0  0  0  0  0  0  0  0  0  0  0  0
    5.2802    7.7211   -3.5195 C   0  0  1  0  0  0  0  0  0  0  0  0
    4.4781    8.7214   -4.2495 N   0  3  0  0  0  0  0  0  0  0  0  0
    4.5191    6.3737   -3.3556 C   0  0  1  0  0  0  0  0  0  0  0  0
    5.3939    5.3053   -2.6532 C   0  0  1  0  0  0  0  0  0  0  0  0
    4.6698    4.0853   -2.7122 O   0  0  0  0  0  0  0  0  0  0  0  0
    6.8168    5.1168   -3.2755 C   0  0  2  0  0  0  0  0  0  0  0  0
    8.8343    6.3714   -4.0997 N   0  3  0  0  0  0  0  0  0  0  0  0
    1.1866    4.4789   -1.8829 C   0  0  0  0  0  0  0  0  0  0  0  0
   -0.0048    5.2840   -1.3085 C   0  0  2  0  0  0  0  0  0  0  0  0
   -1.1159    5.0598   -2.1752 O   0  0  0  0  0  0  0  0  0  0  0  0
    0.3705    6.8131   -1.2598 C   0  0  1  0  0  0  0  0  0  0  0  0
    0.9805    7.3340   -2.6054 C   0  0  2  0  0  0  0  0  0  0  0  0
    2.0477    6.3853   -3.2078 C   0  0  1  0  0  0  0  0  0  0  0  0
    3.3260    6.5550   -2.5407 O   0  0  0  0  0  0  0  0  0  0  0  0
    1.5961    5.0019   -3.1747 O   0  0  0  0  0  0  0  0  0  0  0  0
    1.5520    8.6305   -2.4513 O   0  0  0  0  0  0  0  0  0  0  0  0
   -0.8324    7.6173   -0.8792 N   0  3  0  0  0  0  0  0  0  0  0  0
   -0.5914    8.8872   -0.1644 C   0  0  0  0  0  0  0  0  0  0  0  0
   -0.3760    4.6986    0.0763 C   0  0  0  0  0  0  0  0  0  0  0  0
  1  8  1  0  0  0  0
  1  9  1  6  0  0  0
  1  2  1  0  0  0  0
  2  3  1  0  0  0  0
  3  5  1  0  0  0  0
  3  4  1  1  0  0  0
  5  7  1  0  0  0  0
  5  6  1  1  0  0  0
  7  8  1  0  0  0  0
  9 10  1  0  0  0  0
 11 12  1  0  0  0  0
 11 18  1  0  0  0  0
 11 19  1  6  0  0  0
 12 13  1  0  0  0  0
 13 15  1  0  0  0  0
 13 14  1  6  0  0  0
 15 16  1  0  0  0  0
 15 26  1  1  0  0  0
 16 18  1  0  0  0  0
 16 17  1  6  0  0  0
 18  4  1  1  0  0  0
 20 21  1  0  0  0  0
 20 27  1  0  0  0  0
 21 31  1  1  0  0  0
 21 23  1  0  0  0  0
 21 22  1  0  0  0  0
 23 24  1  0  0  0  0
 23 29  1  6  0  0  0
 24 25  1  0  0  0  0
 24 28  1  1  0  0  0
 25 27  1  0  0  0  0
 25 26  1  1  0  0  0
 29 30  1  0  0  0  0
M  CHG  5   6   1  10   1  14   1  19   1  29   1
M  END
>  <CHROM.1>
51.91384330,111.46703291,-162.36041445,38.77447882,-54.99442211,-35.04200966
-177.71533775,112.88854794,62.68362363,-51.87016794,-87.71657080,-162.91912863
-146.72380096,4.78333317,5.09511720,-2.38681529,0.33980888,-0.30597852,2.65556826

>  <Name>
1byj cryst

>  <RI>
0

>  <Rbt.Current_Directory>
/home/itssahil/PROJECTS/Mol_Feturizer/New_Systems/rnas/1byj

>  <Rbt.Executable>
rbdock ($Id: //depot/dev/client3/rdock/2013.1/src/exe/rbdock.cxx#4 $)

>  <Rbt.Library>
libRbt.so (2013.1, Build901 2013/11/27)

>  <Rbt.Parameter_File>
/export/apps/rDock/src/rDock_2013.1_src/data/scripts/dock_solv.prm

>  <Rbt.Receptor>
prm/pocket_docking_2.prm

>  <SCORE>
-46.1141

>  <SCORE.INTER>
-44.7252

>  <SCORE.INTER.CONST>
1

>  <SCORE.INTER.POLAR>
-5.58885

>  <SCORE.INTER.ROT>
6

>  <SCORE.INTER.SOLV>
25.1716

>  <SCORE.INTER.VDW>
-27.1778

>  <SCORE.INTER.norm>
-1.44275

>  <SCORE.INTRA>
-2.4325

>  <SCORE.INTRA.DIHEDRAL>
7.32618

>  <SCORE.INTRA.DIHEDRAL.0>
18.4149

>  <SCORE.INTRA.POLAR>
-1.14791

>  <SCORE.INTRA.POLAR.0>
0

>  <SCORE.INTRA.REPUL>
-0.092687

>  <SCORE.INTRA.REPUL.0>
0.092687

>  <SCORE.INTRA.SOLV>
0.199345

>  <SCORE.INTRA.SOLV.lig_0>
-120.37

>  <SCORE.INTRA.VDW>
-1.82894

>  <SCORE.INTRA.VDW.0>
-1.75542

>  <SCORE.INTRA.norm>
-0.0784677

>  <SCORE.RESTR>
1.04361

>  <SCORE.RESTR.CAVITY>
1.04361

>  <SCORE.RESTR.norm>
0.0336648

>  <SCORE.SYSTEM>
0

>  <SCORE.SYSTEM.CONST>
0

>  <SCORE.SYSTEM.DIHEDRAL>
0

>  <SCORE.SYSTEM.SOLV>
0

>  <SCORE.SYSTEM.norm>
0

>  <SCORE.heavy>
31

>  <SCORE.norm>
-1.48755

>  <RMSD>
1.286

$$$$
1byj cryst
 OpenBabel11021811383D
libRbt.so/2013.1/901 2013/11/27
 31 33  0  0  0  0  0  0  0  0999 V2000
    9.4330    1.5648   -2.1997 C   0  0  1  0  0  0  0  0  0  0  0  0
    8.0038    1.5543   -2.5147 O   0  0  0  0  0  0  0  0  0  0  0  0
    7.0855    2.2538   -1.6224 C   0  0  2  0  0  0  0  0  0  0  0  0
    7.2817    3.7010   -1.6858 O   0  0  0  0  0  0  0  0  0  0  0  0
    7.2781    1.7263   -0.1681 C   0  0  2  0  0  0  0  0  0  0  0  0
    6.3869    2.3792    0.8109 N   0  3  0  0  0  0  0  0  0  0  0  0
    8.7596    1.8815    0.2623 C   0  0  0  0  0  0  0  0  0  0  0  0
    9.6977    1.1663   -0.7215 C   0  0  0  0  0  0  0  0  0  0  0  0
   10.1683    0.5832   -3.1293 C   0  0  0  0  0  0  0  0  0  0  0  0
   10.0576    0.9195   -4.5547 N   0  3  0  0  0  0  0  0  0  0  0  0
    7.2456    5.8282   -2.9284 C   0  0  1  0  0  0  0  0  0  0  0  0
    6.4191    6.7481   -3.8597 C   0  0  0  0  0  0  0  0  0  0  0  0
    5.0424    7.0733   -3.2202 C   0  0  1  0  0  0  0  0  0  0  0  0
    4.2979    8.0120   -4.0812 N   0  3  0  0  0  0  0  0  0  0  0  0
    4.2442    5.7623   -2.9638 C   0  0  1  0  0  0  0  0  0  0  0  0
    5.0611    4.7518   -2.1202 C   0  0  1  0  0  0  0  0  0  0  0  0
    4.3130    3.5453   -2.0960 O   0  0  0  0  0  0  0  0  0  0  0  0
    6.5066    4.4778   -2.6520 C   0  0  2  0  0  0  0  0  0  0  0  0
    8.5880    5.6093   -3.4954 N   0  3  0  0  0  0  0  0  0  0  0  0
    0.4937    4.3318   -2.1219 C   0  0  0  0  0  0  0  0  0  0  0  0
   -0.5971    5.2457   -1.5116 C   0  0  2  0  0  0  0  0  0  0  0  0
   -1.6269    5.3764   -2.4907 O   0  0  0  0  0  0  0  0  0  0  0  0
    0.0288    6.6488   -1.1637 C   0  0  1  0  0  0  0  0  0  0  0  0
    0.8653    7.2523   -2.3427 C   0  0  2  0  0  0  0  0  0  0  0  0
    1.8129    6.2271   -3.0156 C   0  0  1  0  0  0  0  0  0  0  0  0
    3.0191    6.0438   -2.2287 O   0  0  0  0  0  0  0  0  0  0  0  0
    1.1284    4.9667   -3.2638 O   0  0  0  0  0  0  0  0  0  0  0  0
    1.6313    8.3761   -1.9165 O   0  0  0  0  0  0  0  0  0  0  0  0
   -1.0519    7.5949   -0.7447 N   0  3  0  0  0  0  0  0  0  0  0  0
   -0.6292    8.8418   -0.0751 C   0  0  0  0  0  0  0  0  0  0  0  0
   -1.2153    4.5284   -0.2864 C   0  0  0  0  0  0  0  0  0  0  0  0
  1  8  1  0  0  0  0
  1  9  1  6  0  0  0
  1  2  1  0  0  0  0
  2  3  1  0  0  0  0
  3  5  1  0  0  0  0
  3  4  1  1  0  0  0
  5  7  1  0  0  0  0
  5  6  1  1  0  0  0
  7  8  1  0  0  0  0
  9 10  1  0  0  0  0
 11 12  1  0  0  0  0
 11 18  1  0  0  0  0
 11 19  1  6  0  0  0
 12 13  1  0  0  0  0
 13 15  1  0  0  0  0
 13 14  1  6  0  0  0
 15 16  1  0  0  0  0
 15 26  1  1  0  0  0
 16 18  1  0  0  0  0
 16 17  1  6  0  0  0
 18  4  1  1  0  0  0
 20 21  1  0  0  0  0
 20 27  1  0  0  0  0
 21 31  1  1  0  0  0
 21 23  1  0  0  0  0
 21 22  1  0  0  0  0
 23 24  1  0  0  0  0
 23 29  1  6  0  0  0
 24 25  1  0  0  0  0
 24 28  1  1  0  0  0
 25 27  1  0  0  0  0
 25 26  1  1  0  0  0
 29 30  1  0  0  0  0
M  CHG  5   6   1  10   1  14   1  19   1  29   1
M  END
>  <CHROM.1>
61.24581005,90.59332633,-158.22051278,-54.15891315,-174.42307915,172.51469304
164.40255394,94.95824988,-56.27641081,64.85217930,-73.31131257,-162.68823113
-147.17069353,4.48546608,4.69172185,-2.08524807,0.38545602,-0.29553877,2.62062899

>  <Name>
1byj cryst

>  <RI>
0

>  <Rbt.Current_Directory>
/home/itssahil/PROJECTS/Mol_Feturizer/New_Systems/rnas/1byj

>  <Rbt.Executable>
rbdock ($Id: //depot/dev/client3/rdock/2013.1/src/exe/rbdock.cxx#4 $)

>  <Rbt.Library>
libRbt.so (2013.1, Build901 2013/11/27)

>  <Rbt.Parameter_File>
/export/apps/rDock/src/rDock_2013.1_src/data/scripts/dock_solv.prm

>  <Rbt.Receptor>
prm/pocket_docking_2.prm

>  <SCORE>
-43.9461

>  <SCORE.INTER>
-41.597

>  <SCORE.INTER.CONST>
1

>  <SCORE.INTER.POLAR>
-4.5846

>  <SCORE.INTER.ROT>
6

>  <SCORE.INTER.SOLV>
24.5874

>  <SCORE.INTER.VDW>
-28.2452

>  <SCORE.INTER.norm>
-1.34184

>  <SCORE.INTRA>
-2.42467

>  <SCORE.INTRA.DIHEDRAL>
-0.716435

>  <SCORE.INTRA.DIHEDRAL.0>
18.4149

>  <SCORE.INTRA.POLAR>
-0.0120672

>  <SCORE.INTRA.POLAR.0>
0

>  <SCORE.INTRA.REPUL>
-0.092687

>  <SCORE.INTRA.REPUL.0>
0.092687

>  <SCORE.INTRA.SOLV>
-1.79242

>  <SCORE.INTRA.SOLV.lig_0>
-120.37

>  <SCORE.INTRA.VDW>
-0.665778

>  <SCORE.INTRA.VDW.0>
-1.75542

>  <SCORE.INTRA.norm>
-0.0782151

>  <SCORE.RESTR>
0.0755845

>  <SCORE.RESTR.CAVITY>
0.0755845

>  <SCORE.RESTR.norm>
0.00243821

>  <SCORE.SYSTEM>
0

>  <SCORE.SYSTEM.CONST>
0

>  <SCORE.SYSTEM.DIHEDRAL>
0

>  <SCORE.SYSTEM.SOLV>
0

>  <SCORE.SYSTEM.norm>
0

>  <SCORE.heavy>
31

>  <SCORE.norm>
-1.41762

>  <RMSD>
1.288

$$$$
1byj cryst
 OpenBabel11021811383D
libRbt.so/2013.1/901 2013/11/27
 31 33  0  0  0  0  0  0  0  0999 V2000
    9.3279    1.5056   -2.2640 C   0  0  1  0  0  0  0  0  0  0  0  0
    7.8968    1.5151   -2.5703 O   0  0  0  0  0  0  0  0  0  0  0  0
    6.9884    2.1888   -1.6486 C   0  0  2  0  0  0  0  0  0  0  0  0
    7.1936    3.6360   -1.6627 O   0  0  0  0  0  0  0  0  0  0  0  0
    7.1863    1.6096   -0.2148 C   0  0  2  0  0  0  0  0  0  0  0  0
    6.3052    2.2335    0.7919 N   0  3  0  0  0  0  0  0  0  0  0  0
    8.6712    1.7403    0.2116 C   0  0  0  0  0  0  0  0  0  0  0  0
    9.5989    1.0541   -0.8023 C   0  0  0  0  0  0  0  0  0  0  0  0
   10.0512    0.5525   -3.2318 C   0  0  0  0  0  0  0  0  0  0  0  0
   10.0326    1.0001   -4.6306 N   0  3  0  0  0  0  0  0  0  0  0  0
    7.2339    5.7736   -2.8872 C   0  0  1  0  0  0  0  0  0  0  0  0
    6.4427    6.7282   -3.8141 C   0  0  0  0  0  0  0  0  0  0  0  0
    5.0747    7.0937   -3.1778 C   0  0  1  0  0  0  0  0  0  0  0  0
    4.3657    8.0638   -4.0340 N   0  3  0  0  0  0  0  0  0  0  0  0
    4.2322    5.8079   -2.9361 C   0  0  1  0  0  0  0  0  0  0  0  0
    5.0112    4.7637   -2.0976 C   0  0  1  0  0  0  0  0  0  0  0  0
    4.2233    3.5826   -2.0868 O   0  0  0  0  0  0  0  0  0  0  0  0
    6.4492    4.4463   -2.6255 C   0  0  2  0  0  0  0  0  0  0  0  0
    8.5709    5.5150   -3.4502 N   0  3  0  0  0  0  0  0  0  0  0  0
    0.5303    4.3502   -2.1229 C   0  0  0  0  0  0  0  0  0  0  0  0
   -0.5827    5.2293   -1.5014 C   0  0  2  0  0  0  0  0  0  0  0  0
   -1.6147    5.3484   -2.4796 O   0  0  0  0  0  0  0  0  0  0  0  0
    0.0090    6.6421   -1.1337 C   0  0  1  0  0  0  0  0  0  0  0  0
    0.8316    7.2816   -2.3035 C   0  0  2  0  0  0  0  0  0  0  0  0
    1.8040    6.2887   -2.9894 C   0  0  1  0  0  0  0  0  0  0  0  0
    3.0138    6.1238   -2.2038 O   0  0  0  0  0  0  0  0  0  0  0  0
    1.1502    5.0157   -3.2554 O   0  0  0  0  0  0  0  0  0  0  0  0
    1.5700    8.4175   -1.8614 O   0  0  0  0  0  0  0  0  0  0  0  0
   -1.0944    7.5561   -0.7030 N   0  3  0  0  0  0  0  0  0  0  0  0
   -0.7131    8.7360    0.0997 C   0  0  0  0  0  0  0  0  0  0  0  0
   -1.1843    4.4806   -0.2866 C   0  0  0  0  0  0  0  0  0  0  0  0
  1  8  1  0  0  0  0
  1  9  1  6  0  0  0
  1  2  1  0  0  0  0
  2  3  1  0  0  0  0
  3  5  1  0  0  0  0
  3  4  1  1  0  0  0
  5  7  1  0  0  0  0
  5  6  1  1  0  0  0
  7  8  1  0  0  0  0
  9 10  1  0  0  0  0
 11 12  1  0  0  0  0
 11 18  1  0  0  0  0
 11 19  1  6  0  0  0
 12 13  1  0  0  0  0
 13 15  1  0  0  0  0
 13 14  1  6  0  0  0
 15 16  1  0  0  0  0
 15 26  1  1  0  0  0
 16 18  1  0  0  0  0
 16 17  1  6  0  0  0
 18  4  1  1  0  0  0
 20 21  1  0  0  0  0
 20 27  1  0  0  0  0
 21 31  1  1  0  0  0
 21 23  1  0  0  0  0
 21 22  1  0  0  0  0
 23 24  1  0  0  0  0
 23 29  1  6  0  0  0
 24 25  1  0  0  0  0
 24 28  1  1  0  0  0
 25 27  1  0  0  0  0
 25 26  1  1  0  0  0
 29 30  1  0  0  0  0
M  CHG  5   6   1  10   1  14   1  19   1  29   1
M  END
>  <CHROM.1>
66.21522894,88.66468954,-155.81178664,-57.98175512,-172.62286263,52.09616130
49.88745562,97.90184362,-57.90624880,67.73579566,-79.17233047,-166.94317166
-150.49393754,4.44880641,4.67021643,-2.07742579,0.39010889,-0.30403657,2.63348853

>  <Name>
1byj cryst

>  <RI>
0

>  <Rbt.Current_Directory>
/home/itssahil/PROJECTS/Mol_Feturizer/New_Systems/rnas/1byj

>  <Rbt.Executable>
rbdock ($Id: //depot/dev/client3/rdock/2013.1/src/exe/rbdock.cxx#4 $)

>  <Rbt.Library>
libRbt.so (2013.1, Build901 2013/11/27)

>  <Rbt.Parameter_File>
/export/apps/rDock/src/rDock_2013.1_src/data/scripts/dock_solv.prm

>  <Rbt.Receptor>
prm/pocket_docking_2.prm

>  <SCORE>
-44.3593

>  <SCORE.INTER>
-41.3753

>  <SCORE.INTER.CONST>
1

>  <SCORE.INTER.POLAR>
-4.63091

>  <SCORE.INTER.ROT>
6

>  <SCORE.INTER.SOLV>
24.5885

>  <SCORE.INTER.VDW>
-27.9433

>  <SCORE.INTER.norm>
-1.33469

>  <SCORE.INTRA>
-3.0423

>  <SCORE.INTRA.DIHEDRAL>
-0.914683

>  <SCORE.INTRA.DIHEDRAL.0>
18.4149

>  <SCORE.INTRA.POLAR>
-0.00812593

>  <SCORE.INTRA.POLAR.0>
0

>  <SCORE.INTRA.REPUL>
-0.092687

>  <SCORE.INTRA.REPUL.0>
0.092687

>  <SCORE.INTRA.SOLV>
-2.14767

>  <SCORE.INTRA.SOLV.lig_0>
-120.37

>  <SCORE.INTRA.VDW>
-1.02006

>  <SCORE.INTRA.VDW.0>
-1.75542

>  <SCORE.INTRA.norm>
-0.0981387

>  <SCORE.RESTR>
0.0582836

>  <SCORE.RESTR.CAVITY>
0.0582836

>  <SCORE.RESTR.norm>
0.00188012

>  <SCORE.SYSTEM>
0

>  <SCORE.SYSTEM.CONST>
0

>  <SCORE.SYSTEM.DIHEDRAL>
0

>  <SCORE.SYSTEM.SOLV>
0

>  <SCORE.SYSTEM.norm>
0

>  <SCORE.heavy>
31

>  <SCORE.norm>
-1.43094

>  <RMSD>
1.304

$$$$
1byj cryst
 OpenBabel11021811383D
libRbt.so/2013.1/901 2013/11/27
 31 33  0  0  0  0  0  0  0  0999 V2000
    9.4196    1.5531   -2.2217 C   0  0  1  0  0  0  0  0  0  0  0  0
    7.9959    1.5231   -2.5598 O   0  0  0  0  0  0  0  0  0  0  0  0
    7.0481    2.1647   -1.6549 C   0  0  2  0  0  0  0  0  0  0  0  0
    7.2115    3.6173   -1.6565 O   0  0  0  0  0  0  0  0  0  0  0  0
    7.2309    1.5827   -0.2202 C   0  0  2  0  0  0  0  0  0  0  0  0
    6.3100    2.1747    0.7700 N   0  3  0  0  0  0  0  0  0  0  0  0
    8.7017    1.7537    0.2399 C   0  0  0  0  0  0  0  0  0  0  0  0
    9.6710    1.1007   -0.7568 C   0  0  0  0  0  0  0  0  0  0  0  0
   10.1915    0.6272   -3.1783 C   0  0  0  0  0  0  0  0  0  0  0  0
   10.0426    0.9811   -4.5960 N   0  3  0  0  0  0  0  0  0  0  0  0
    7.2500    5.7361   -2.9132 C   0  0  1  0  0  0  0  0  0  0  0  0
    6.4587    6.6750   -3.8560 C   0  0  0  0  0  0  0  0  0  0  0  0
    5.0887    7.0473   -3.2280 C   0  0  1  0  0  0  0  0  0  0  0  0
    4.3794    8.0028   -4.1002 N   0  3  0  0  0  0  0  0  0  0  0  0
    4.2483    5.7636   -2.9684 C   0  0  1  0  0  0  0  0  0  0  0  0
    5.0278    4.7338   -2.1126 C   0  0  1  0  0  0  0  0  0  0  0  0
    4.2422    3.5514   -2.0855 O   0  0  0  0  0  0  0  0  0  0  0  0
    6.4674    4.4113   -2.6330 C   0  0  2  0  0  0  0  0  0  0  0  0
    8.5885    5.4717   -3.4697 N   0  3  0  0  0  0  0  0  0  0  0  0
    0.5320    4.3320   -2.1602 C   0  0  0  0  0  0  0  0  0  0  0  0
   -0.5777    5.2231   -1.5502 C   0  0  2  0  0  0  0  0  0  0  0  0
   -1.6046    5.3420   -2.5338 O   0  0  0  0  0  0  0  0  0  0  0  0
    0.0220    6.6347   -1.1904 C   0  0  1  0  0  0  0  0  0  0  0  0
    0.8540    7.2598   -2.3614 C   0  0  2  0  0  0  0  0  0  0  0  0
    1.8227    6.2553   -3.0355 C   0  0  1  0  0  0  0  0  0  0  0  0
    3.0278    6.0881   -2.2434 O   0  0  0  0  0  0  0  0  0  0  0  0
    1.1614    4.9847   -3.2949 O   0  0  0  0  0  0  0  0  0  0  0  0
    1.5982    8.3940   -1.9245 O   0  0  0  0  0  0  0  0  0  0  0  0
   -1.0770    7.5593   -0.7715 N   0  3  0  0  0  0  0  0  0  0  0  0
   -0.6843    8.7763   -0.0321 C   0  0  0  0  0  0  0  0  0  0  0  0
   -1.1896    4.4877   -0.3325 C   0  0  0  0  0  0  0  0  0  0  0  0
  1  8  1  0  0  0  0
  1  9  1  6  0  0  0
  1  2  1  0  0  0  0
  2  3  1  0  0  0  0
  3  5  1  0  0  0  0
  3  4  1  1  0  0  0
  5  7  1  0  0  0  0
  5  6  1  1  0  0  0
  7  8  1  0  0  0  0
  9 10  1  0  0  0  0
 11 12  1  0  0  0  0
 11 18  1  0  0  0  0
 11 19  1  6  0  0  0
 12 13  1  0  0  0  0
 13 15  1  0  0  0  0
 13 14  1  6  0  0  0
 15 16  1  0  0  0  0
 15 26  1  1  0  0  0
 16 18  1  0  0  0  0
 16 17  1  6  0  0  0
 18  4  1  1  0  0  0
 20 21  1  0  0  0  0
 20 27  1  0  0  0  0
 21 31  1  1  0  0  0
 21 23  1  0  0  0  0
 21 22  1  0  0  0  0
 23 24  1  0  0  0  0
 23 29  1  6  0  0  0
 24 25  1  0  0  0  0
 24 28  1  1  0  0  0
 25 27  1  0  0  0  0
 25 26  1  1  0  0  0
 29 30  1  0  0  0  0
M  CHG  5   6   1  10   1  14   1  19   1  29   1
M  END
>  <CHROM.1>
58.49295759,88.54855859,-153.48287352,-179.69558895,53.96340976,-70.22879199
48.92832710,97.14650512,-176.81876782,67.73887792,-76.30086268,-164.82165005
-150.26421712,4.47927644,4.65229442,-2.10179598,0.38832770,-0.29979915,2.61846345

>  <Name>
1byj cryst

>  <RI>
0

>  <Rbt.Current_Directory>
/home/itssahil/PROJECTS/Mol_Feturizer/New_Systems/rnas/1byj

>  <Rbt.Executable>
rbdock ($Id: //depot/dev/client3/rdock/2013.1/src/exe/rbdock.cxx#4 $)

>  <Rbt.Library>
libRbt.so (2013.1, Build901 2013/11/27)

>  <Rbt.Parameter_File>
/export/apps/rDock/src/rDock_2013.1_src/data/scripts/dock_solv.prm

>  <Rbt.Receptor>
prm/pocket_docking_2.prm

>  <SCORE>
-43.9882

>  <SCORE.INTER>
-41.645

>  <SCORE.INTER.CONST>
1

>  <SCORE.INTER.POLAR>
-4.51201

>  <SCORE.INTER.ROT>
6

>  <SCORE.INTER.SOLV>
25.1235

>  <SCORE.INTER.VDW>
-28.6978

>  <SCORE.INTER.norm>
-1.34339

>  <SCORE.INTRA>
-2.40124

>  <SCORE.INTRA.DIHEDRAL>
-0.561153

>  <SCORE.INTRA.DIHEDRAL.0>
18.4149

>  <SCORE.INTRA.POLAR>
0

>  <SCORE.INTRA.POLAR.0>
0

>  <SCORE.INTRA.REPUL>
-0.092687

>  <SCORE.INTRA.REPUL.0>
0.092687

>  <SCORE.INTRA.SOLV>
-1.44036

>  <SCORE.INTRA.SOLV.lig_0>
-120.37

>  <SCORE.INTRA.VDW>
-0.937054

>  <SCORE.INTRA.VDW.0>
-1.75542

>  <SCORE.INTRA.norm>
-0.0774595

>  <SCORE.RESTR>
0.0579837

>  <SCORE.RESTR.CAVITY>
0.0579837

>  <SCORE.RESTR.norm>
0.00187044

>  <SCORE.SYSTEM>
0

>  <SCORE.SYSTEM.CONST>
0

>  <SCORE.SYSTEM.DIHEDRAL>
0

>  <SCORE.SYSTEM.SOLV>
0

>  <SCORE.SYSTEM.norm>
0

>  <SCORE.heavy>
31

>  <SCORE.norm>
-1.41898

>  <RMSD>
1.318

$$$$
1byj cryst
 OpenBabel11021811383D
libRbt.so/2013.1/901 2013/11/27
 31 33  0  0  0  0  0  0  0  0999 V2000
    8.8020    1.8779   -2.9714 C   0  0  1  0  0  0  0  0  0  0  0  0
    7.3604    2.0558   -3.1508 O   0  0  0  0  0  0  0  0  0  0  0  0
    6.5952    2.6894   -2.0824 C   0  0  2  0  0  0  0  0  0  0  0  0
    6.9435    4.1024   -1.9450 O   0  0  0  0  0  0  0  0  0  0  0  0
    6.8392    1.9208   -0.7482 C   0  0  2  0  0  0  0  0  0  0  0  0
    6.1024    2.4922    0.3962 N   0  3  0  0  0  0  0  0  0  0  0  0
    8.3573    1.8617   -0.4382 C   0  0  0  0  0  0  0  0  0  0  0  0
    9.1335    1.2253   -1.6010 C   0  0  0  0  0  0  0  0  0  0  0  0
    9.3520    0.9908   -4.1022 C   0  0  0  0  0  0  0  0  0  0  0  0
   10.8074    0.7994   -4.0521 N   0  3  0  0  0  0  0  0  0  0  0  0
    7.5790    6.1087   -3.2262 C   0  0  1  0  0  0  0  0  0  0  0  0
    7.0902    7.2092   -4.1992 C   0  0  0  0  0  0  0  0  0  0  0  0
    5.8601    7.9494   -3.6087 C   0  0  1  0  0  0  0  0  0  0  0  0
    5.4534    9.0451   -4.5092 N   0  3  0  0  0  0  0  0  0  0  0  0
    4.6986    6.9457   -3.3536 C   0  0  1  0  0  0  0  0  0  0  0  0
    5.1531    5.7594   -2.4670 C   0  0  1  0  0  0  0  0  0  0  0  0
    4.0763    4.8341   -2.4442 O   0  0  0  0  0  0  0  0  0  0  0  0
    6.4616    5.0502   -2.9487 C   0  0  2  0  0  0  0  0  0  0  0  0
    8.8067    5.4820   -3.7472 N   0  3  0  0  0  0  0  0  0  0  0  0
    1.2373    5.7137   -2.2302 C   0  0  0  0  0  0  0  0  0  0  0  0
    0.1280    6.5826   -1.5884 C   0  0  2  0  0  0  0  0  0  0  0  0
   -0.9845    6.5652   -2.4819 O   0  0  0  0  0  0  0  0  0  0  0  0
    0.6629    8.0503   -1.3855 C   0  0  1  0  0  0  0  0  0  0  0  0
    1.3498    8.6312   -2.6680 C   0  0  2  0  0  0  0  0  0  0  0  0
    2.3210    7.6364   -3.3528 C   0  0  1  0  0  0  0  0  0  0  0  0
    3.5974    7.6013   -2.6621 O   0  0  0  0  0  0  0  0  0  0  0  0
    1.7241    6.3131   -3.4605 O   0  0  0  0  0  0  0  0  0  0  0  0
    2.0532    9.8373   -2.3817 O   0  0  0  0  0  0  0  0  0  0  0  0
   -0.4543    8.9384   -0.9368 N   0  3  0  0  0  0  0  0  0  0  0  0
   -0.8638    8.8378    0.4789 C   0  0  0  0  0  0  0  0  0  0  0  0
   -0.3291    5.9083   -0.2713 C   0  0  0  0  0  0  0  0  0  0  0  0
  1  8  1  0  0  0  0
  1  9  1  6  0  0  0
  1  2  1  0  0  0  0
  2  3  1  0  0  0  0
  3  5  1  0  0  0  0
  3  4  1  1  0  0  0
  5  7  1  0  0  0  0
  5  6  1  1  0  0  0
  7  8  1  0  0  0  0
  9 10  1  0  0  0  0
 11 12  1  0  0  0  0
 11 18  1  0  0  0  0
 11 19  1  6  0  0  0
 12 13  1  0  0  0  0
 13 15  1  0  0  0  0
 13 14  1  6  0  0  0
 15 16  1  0  0  0  0
 15 26  1  1  0  0  0
 16 18  1  0  0  0  0
 16 17  1  6  0  0  0
 18  4  1  1  0  0  0
 20 21  1  0  0  0  0
 20 27  1  0  0  0  0
 21 31  1  1  0  0  0
 21 23  1  0  0  0  0
 21 22  1  0  0  0  0
 23 24  1  0  0  0  0
 23 29  1  6  0  0  0
 24 25  1  0  0  0  0
 24 28  1  1  0  0  0
 25 27  1  0  0  0  0
 25 26  1  1  0  0  0
 29 30  1  0  0  0  0
M  CHG  5   6   1  10   1  14   1  19   1  29   1
M  END
>  <CHROM.1>
177.30343515,74.04583513,-141.81082196,-55.66016939,-51.17684097,162.23107131
-155.57734603,118.93392968,-169.18125529,56.69820412,-161.86826670,-67.14728086
-166.78897542,4.69666981,5.46407929,-2.39600171,0.48523361,-0.40079937,2.65919577

>  <Name>
1byj cryst

>  <RI>
0

>  <Rbt.Current_Directory>
/home/itssahil/PROJECTS/Mol_Feturizer/New_Systems/rnas/1byj

>  <Rbt.Executable>
rbdock ($Id: //depot/dev/client3/rdock/2013.1/src/exe/rbdock.cxx#4 $)

>  <Rbt.Library>
libRbt.so (2013.1, Build901 2013/11/27)

>  <Rbt.Parameter_File>
/export/apps/rDock/src/rDock_2013.1_src/data/scripts/dock_solv.prm

>  <Rbt.Receptor>
prm/pocket_docking_2.prm

>  <SCORE>
-37.7938

>  <SCORE.INTER>
-36.2983

>  <SCORE.INTER.CONST>
1

>  <SCORE.INTER.POLAR>
-4.19933

>  <SCORE.INTER.ROT>
6

>  <SCORE.INTER.SOLV>
24.7055

>  <SCORE.INTER.VDW>
-26.0363

>  <SCORE.INTER.norm>
-1.17091

>  <SCORE.INTRA>
-2.35941

>  <SCORE.INTRA.DIHEDRAL>
-0.254357

>  <SCORE.INTRA.DIHEDRAL.0>
18.4149

>  <SCORE.INTRA.POLAR>
-0.0667161

>  <SCORE.INTRA.POLAR.0>
0

>  <SCORE.INTRA.REPUL>
-0.092687

>  <SCORE.INTRA.REPUL.0>
0.092687

>  <SCORE.INTRA.SOLV>
-2.22904

>  <SCORE.INTRA.SOLV.lig_0>
-120.37

>  <SCORE.INTRA.VDW>
-0.427443

>  <SCORE.INTRA.VDW.0>
-1.75542

>  <SCORE.INTRA.norm>
-0.0761101

>  <SCORE.RESTR>
0.863841

>  <SCORE.RESTR.CAVITY>
0.863841

>  <SCORE.RESTR.norm>
0.0278658

>  <SCORE.SYSTEM>
0

>  <SCORE.SYSTEM.CONST>
0

>  <SCORE.SYSTEM.DIHEDRAL>
0

>  <SCORE.SYSTEM.SOLV>
0

>  <SCORE.SYSTEM.norm>
0

>  <SCORE.heavy>
31

>  <SCORE.norm>
-1.21916

>  <RMSD>
1.346

$$$$
1byj cryst
 OpenBabel11021811383D
libRbt.so/2013.1/901 2013/11/27
 31 33  0  0  0  0  0  0  0  0999 V2000
    8.9079    1.8682   -2.9834 C   0  0  1  0  0  0  0  0  0  0  0  0
    7.4625    1.9121   -3.2093 O   0  0  0  0  0  0  0  0  0  0  0  0
    6.6002    2.3875   -2.1327 C   0  0  2  0  0  0  0  0  0  0  0  0
    6.7957    3.8150   -1.8861 O   0  0  0  0  0  0  0  0  0  0  0  0
    6.8772    1.5542   -0.8446 C   0  0  2  0  0  0  0  0  0  0  0  0
    6.0470    1.9652    0.3047 N   0  3  0  0  0  0  0  0  0  0  0  0
    8.3819    1.6265   -0.4774 C   0  0  0  0  0  0  0  0  0  0  0  0
    9.2586    1.1562   -1.6478 C   0  0  0  0  0  0  0  0  0  0  0  0
    9.5846    1.1240   -4.1481 C   0  0  0  0  0  0  0  0  0  0  0  0
   11.0242    1.3904   -4.2663 N   0  3  0  0  0  0  0  0  0  0  0  0
    7.2330    5.9581   -3.0203 C   0  0  1  0  0  0  0  0  0  0  0  0
    6.6395    7.0713   -3.9175 C   0  0  0  0  0  0  0  0  0  0  0  0
    5.3433    7.6456   -3.2853 C   0  0  1  0  0  0  0  0  0  0  0  0
    4.8319    8.7570   -4.1101 N   0  3  0  0  0  0  0  0  0  0  0  0
    4.2849    6.5187   -3.1086 C   0  0  1  0  0  0  0  0  0  0  0  0
    4.8526    5.3229   -2.3036 C   0  0  1  0  0  0  0  0  0  0  0  0
    3.8709    4.2983   -2.3525 O   0  0  0  0  0  0  0  0  0  0  0  0
    6.2239    4.7794   -2.8246 C   0  0  2  0  0  0  0  0  0  0  0  0
    8.5158    5.4914   -3.5753 N   0  3  0  0  0  0  0  0  0  0  0  0
    0.9159    4.9090   -2.3016 C   0  0  0  0  0  0  0  0  0  0  0  0
   -0.2748    5.5893   -1.5826 C   0  0  2  0  0  0  0  0  0  0  0  0
   -1.3608    5.6149   -2.5078 O   0  0  0  0  0  0  0  0  0  0  0  0
    0.1348    7.0494   -1.1563 C   0  0  1  0  0  0  0  0  0  0  0  0
    0.8025    7.8591   -2.3193 C   0  0  2  0  0  0  0  0  0  0  0  0
    1.8667    7.0501   -3.1034 C   0  0  1  0  0  0  0  0  0  0  0  0
    3.1252    7.0144   -2.3806 O   0  0  0  0  0  0  0  0  0  0  0  0
    1.3814    5.7141   -3.4174 O   0  0  0  0  0  0  0  0  0  0  0  0
    1.3991    9.0620   -1.8415 O   0  0  0  0  0  0  0  0  0  0  0  0
   -1.0608    7.7757   -0.6259 N   0  3  0  0  0  0  0  0  0  0  0  0
   -0.8065    8.9116    0.2835 C   0  0  0  0  0  0  0  0  0  0  0  0
   -0.7066    4.7002   -0.3905 C   0  0  0  0  0  0  0  0  0  0  0  0
  1  8  1  0  0  0  0
  1  9  1  6  0  0  0
  1  2  1  0  0  0  0
  2  3  1  0  0  0  0
  3  5  1  0  0  0  0
  3  4  1  1  0  0  0
  5  7  1  0  0  0  0
  5  6  1  1  0  0  0
  7  8  1  0  0  0  0
  9 10  1  0  0  0  0
 11 12  1  0  0  0  0
 11 18  1  0  0  0  0
 11 19  1  6  0  0  0
 12 13  1  0  0  0  0
 13 15  1  0  0  0  0
 13 14  1  6  0  0  0
 15 16  1  0  0  0  0
 15 26  1  1  0  0  0
 16 18  1  0  0  0  0
 16 17  1  6  0  0  0
 18  4  1  1  0  0  0
 20 21  1  0  0  0  0
 20 27  1  0  0  0  0
 21 31  1  1  0  0  0
 21 23  1  0  0  0  0
 21 22  1  0  0  0  0
 23 24  1  0  0  0  0
 23 29  1  6  0  0  0
 24 25  1  0  0  0  0
 24 28  1  1  0  0  0
 25 27  1  0  0  0  0
 25 26  1  1  0  0  0
 29 30  1  0  0  0  0
M  CHG  5   6   1  10   1  14   1  19   1  29   1
M  END
>  <CHROM.1>
161.01722804,75.55467194,-141.07271578,64.61970650,166.70951440,163.84588490
174.31105999,115.27868969,57.21407908,-170.17824869,-82.14350176,-171.96433935
-168.31913067,4.44466379,5.04523293,-2.30306294,0.42558324,-0.33180174,2.72762390

>  <Name>
1byj cryst

>  <RI>
0

>  <Rbt.Current_Directory>
/home/itssahil/PROJECTS/Mol_Feturizer/New_Systems/rnas/1byj

>  <Rbt.Executable>
rbdock ($Id: //depot/dev/client3/rdock/2013.1/src/exe/rbdock.cxx#4 $)

>  <Rbt.Library>
libRbt.so (2013.1, Build901 2013/11/27)

>  <Rbt.Parameter_File>
/export/apps/rDock/src/rDock_2013.1_src/data/scripts/dock_solv.prm

>  <Rbt.Receptor>
prm/pocket_docking_2.prm

>  <SCORE>
-51.4625

>  <SCORE.INTER>
-48.9892

>  <SCORE.INTER.CONST>
1

>  <SCORE.INTER.POLAR>
-6.19105

>  <SCORE.INTER.ROT>
6

>  <SCORE.INTER.SOLV>
24.3214

>  <SCORE.INTER.VDW>
-27.7298

>  <SCORE.INTER.norm>
-1.5803

>  <SCORE.INTRA>
-3.24439

>  <SCORE.INTRA.DIHEDRAL>
0.464776

>  <SCORE.INTRA.DIHEDRAL.0>
18.4149

>  <SCORE.INTRA.POLAR>
0

>  <SCORE.INTRA.POLAR.0>
0

>  <SCORE.INTRA.REPUL>
-0.092687

>  <SCORE.INTRA.REPUL.0>
0.092687

>  <SCORE.INTRA.SOLV>
-1.62674

>  <SCORE.INTRA.SOLV.lig_0>
-120.37

>  <SCORE.INTRA.VDW>
-2.19997

>  <SCORE.INTRA.VDW.0>
-1.75542

>  <SCORE.INTRA.norm>
-0.104658

>  <SCORE.RESTR>
0.771095

>  <SCORE.RESTR.CAVITY>
0.771095

>  <SCORE.RESTR.norm>
0.024874

>  <SCORE.SYSTEM>
0

>  <SCORE.SYSTEM.CONST>
0

>  <SCORE.SYSTEM.DIHEDRAL>
0

>  <SCORE.SYSTEM.SOLV>
0

>  <SCORE.SYSTEM.norm>
0

>  <SCORE.heavy>
31

>  <SCORE.norm>
-1.66008

>  <RMSD>
1.350

$$$$
1byj cryst
 OpenBabel11021811383D
libRbt.so/2013.1/901 2013/11/27
 31 33  0  0  0  0  0  0  0  0999 V2000
    8.8680    1.6989   -2.9848 C   0  0  1  0  0  0  0  0  0  0  0  0
    7.4254    1.8059   -3.2070 O   0  0  0  0  0  0  0  0  0  0  0  0
    6.5914    2.3487   -2.1400 C   0  0  2  0  0  0  0  0  0  0  0  0
    6.8556    3.7710   -1.9303 O   0  0  0  0  0  0  0  0  0  0  0  0
    6.8342    1.5357   -0.8321 C   0  0  2  0  0  0  0  0  0  0  0  0
    6.0296    2.0146    0.3090 N   0  3  0  0  0  0  0  0  0  0  0  0
    8.3423    1.5455   -0.4718 C   0  0  0  0  0  0  0  0  0  0  0  0
    9.1904    1.0048   -1.6327 C   0  0  0  0  0  0  0  0  0  0  0  0
    9.5035    0.8943   -4.1324 C   0  0  0  0  0  0  0  0  0  0  0  0
   10.9702    0.8390   -4.0777 N   0  3  0  0  0  0  0  0  0  0  0  0
    7.2172    5.9516   -3.0187 C   0  0  1  0  0  0  0  0  0  0  0  0
    6.5779    7.0725   -3.8739 C   0  0  0  0  0  0  0  0  0  0  0  0
    5.2833    7.5998   -3.1988 C   0  0  1  0  0  0  0  0  0  0  0  0
    4.7277    8.7190   -3.9834 N   0  3  0  0  0  0  0  0  0  0  0  0
    4.2556    6.4439   -3.0276 C   0  0  1  0  0  0  0  0  0  0  0  0
    4.8690    5.2422   -2.2661 C   0  0  1  0  0  0  0  0  0  0  0  0
    3.9105    4.1960   -2.3196 O   0  0  0  0  0  0  0  0  0  0  0  0
    6.2404    4.7447   -2.8310 C   0  0  2  0  0  0  0  0  0  0  0  0
    8.4976    5.5296   -3.6136 N   0  3  0  0  0  0  0  0  0  0  0  0
    0.7148    4.9926   -2.3626 C   0  0  0  0  0  0  0  0  0  0  0  0
   -0.4260    5.7249   -1.6143 C   0  0  2  0  0  0  0  0  0  0  0  0
   -1.4866    5.9108   -2.5506 O   0  0  0  0  0  0  0  0  0  0  0  0
    0.1015    7.1099   -1.0804 C   0  0  1  0  0  0  0  0  0  0  0  0
    0.8611    7.9353   -2.1739 C   0  0  2  0  0  0  0  0  0  0  0  0
    1.8659    7.0908   -2.9980 C   0  0  1  0  0  0  0  0  0  0  0  0
    3.1015    6.8935   -2.2618 O   0  0  0  0  0  0  0  0  0  0  0  0
    1.2717    5.8282   -3.4122 O   0  0  0  0  0  0  0  0  0  0  0  0
    1.5512    9.0445   -1.6041 O   0  0  0  0  0  0  0  0  0  0  0  0
   -1.0362    7.9014   -0.5170 N   0  3  0  0  0  0  0  0  0  0  0  0
   -0.7014    8.9473    0.4709 C   0  0  0  0  0  0  0  0  0  0  0  0
   -0.9583    4.7976   -0.4941 C   0  0  0  0  0  0  0  0  0  0  0  0
  1  8  1  0  0  0  0
  1  9  1  6  0  0  0
  1  2  1  0  0  0  0
  2  3  1  0  0  0  0
  3  5  1  0  0  0  0
  3  4  1  1  0  0  0
  5  7  1  0  0  0  0
  5  6  1  1  0  0  0
  7  8  1  0  0  0  0
  9 10  1  0  0  0  0
 11 12  1  0  0  0  0
 11 18  1  0  0  0  0
 11 19  1  6  0  0  0
 12 13  1  0  0  0  0
 13 15  1  0  0  0  0
 13 14  1  6  0  0  0
 15 16  1  0  0  0  0
 15 26  1  1  0  0  0
 16 18  1  0  0  0  0
 16 17  1  6  0  0  0
 18  4  1  1  0  0  0
 20 21  1  0  0  0  0
 20 27  1  0  0  0  0
 21 31  1  1  0  0  0
 21 23  1  0  0  0  0
 21 22  1  0  0  0  0
 23 24  1  0  0  0  0
 23 29  1  6  0  0  0
 24 25  1  0  0  0  0
 24 28  1  1  0  0  0
 25 27  1  0  0  0  0
 25 26  1  1  0  0  0
 29 30  1  0  0  0  0
M  CHG  5   6   1  10   1  14   1  19   1  29   1
M  END
>  <CHROM.1>
174.30757268,80.25040943,-146.38229581,64.27754164,64.18988035,43.96214862
61.91589653,107.18896835,-66.61770214,178.97433524,-81.97472948,-70.03221562
-163.81888015,4.40660636,5.02093494,-2.25370148,0.45408611,-0.33195850,2.75875193

>  <Name>
1byj cryst

>  <RI>
0

>  <Rbt.Current_Directory>
/home/itssahil/PROJECTS/Mol_Feturizer/New_Systems/rnas/1byj

>  <Rbt.Executable>
rbdock ($Id: //depot/dev/client3/rdock/2013.1/src/exe/rbdock.cxx#4 $)

>  <Rbt.Library>
libRbt.so (2013.1, Build901 2013/11/27)

>  <Rbt.Parameter_File>
/export/apps/rDock/src/rDock_2013.1_src/data/scripts/dock_solv.prm

>  <Rbt.Receptor>
prm/pocket_docking_2.prm

>  <SCORE>
-46.49

>  <SCORE.INTER>
-43.7486

>  <SCORE.INTER.CONST>
1

>  <SCORE.INTER.POLAR>
-5.09404

>  <SCORE.INTER.ROT>
6

>  <SCORE.INTER.SOLV>
24.9336

>  <SCORE.INTER.VDW>
-28.0969

>  <SCORE.INTER.norm>
-1.41125

>  <SCORE.INTRA>
-3.35374

>  <SCORE.INTRA.DIHEDRAL>
-1.66197

>  <SCORE.INTRA.DIHEDRAL.0>
18.4149

>  <SCORE.INTRA.POLAR>
0

>  <SCORE.INTRA.POLAR.0>
0

>  <SCORE.INTRA.REPUL>
-0.092687

>  <SCORE.INTRA.REPUL.0>
0.092687

>  <SCORE.INTRA.SOLV>
-1.66961

>  <SCORE.INTRA.SOLV.lig_0>
-120.37

>  <SCORE.INTRA.VDW>
-1.22451

>  <SCORE.INTRA.VDW.0>
-1.75542

>  <SCORE.INTRA.norm>
-0.108185

>  <SCORE.RESTR>
0.612363

>  <SCORE.RESTR.CAVITY>
0.612363

>  <SCORE.RESTR.norm>
0.0197536

>  <SCORE.SYSTEM>
0

>  <SCORE.SYSTEM.CONST>
0

>  <SCORE.SYSTEM.DIHEDRAL>
0

>  <SCORE.SYSTEM.SOLV>
0

>  <SCORE.SYSTEM.norm>
0

>  <SCORE.heavy>
31

>  <SCORE.norm>
-1.49968

>  <RMSD>
1.358

$$$$
1byj cryst
 OpenBabel11021811383D
libRbt.so/2013.1/901 2013/11/27
 31 33  0  0  0  0  0  0  0  0999 V2000
    9.2740    1.7878   -1.7851 C   0  0  1  0  0  0  0  0  0  0  0  0
    7.8991    1.5811   -2.2423 O   0  0  0  0  0  0  0  0  0  0  0  0
    6.8034    1.9193   -1.3402 C   0  0  2  0  0  0  0  0  0  0  0  0
    6.7161    3.3629   -1.1278 O   0  0  0  0  0  0  0  0  0  0  0  0
    6.9969    1.1657    0.0107 C   0  0  2  0  0  0  0  0  0  0  0  0
    5.9310    1.4471    0.9923 N   0  3  0  0  0  0  0  0  0  0  0  0
    8.3867    1.4993    0.6117 C   0  0  0  0  0  0  0  0  0  0  0  0
    9.5111    1.1671   -0.3807 C   0  0  0  0  0  0  0  0  0  0  0  0
   10.2484    1.1518   -2.7921 C   0  0  0  0  0  0  0  0  0  0  0  0
   10.2655    1.8156   -4.1022 N   0  3  0  0  0  0  0  0  0  0  0  0
    7.1549    5.0803   -2.8391 C   0  0  1  0  0  0  0  0  0  0  0  0
    6.5198    6.0627   -3.8530 C   0  0  0  0  0  0  0  0  0  0  0  0
    5.5078    7.0000   -3.1409 C   0  0  1  0  0  0  0  0  0  0  0  0
    4.9690    7.9807   -4.1025 N   0  3  0  0  0  0  0  0  0  0  0  0
    4.3795    6.1643   -2.4699 C   0  0  1  0  0  0  0  0  0  0  0  0
    4.9560    5.0876   -1.5167 C   0  0  1  0  0  0  0  0  0  0  0  0
    3.8607    4.2856   -1.1008 O   0  0  0  0  0  0  0  0  0  0  0  0
    6.0714    4.1898   -2.1468 C   0  0  2  0  0  0  0  0  0  0  0  0
    8.1876    4.2656   -3.5032 N   0  3  0  0  0  0  0  0  0  0  0  0
    0.9711    5.3980   -2.1583 C   0  0  0  0  0  0  0  0  0  0  0  0
   -0.0989    6.0224   -1.2294 C   0  0  2  0  0  0  0  0  0  0  0  0
   -1.1455    6.5100   -2.0678 O   0  0  0  0  0  0  0  0  0  0  0  0
    0.5474    7.1941   -0.3983 C   0  0  1  0  0  0  0  0  0  0  0  0
    1.3678    8.1905   -1.2861 C   0  0  2  0  0  0  0  0  0  0  0  0
    2.2923    7.4866   -2.3115 C   0  0  1  0  0  0  0  0  0  0  0  0
    3.5111    7.0210   -1.6747 O   0  0  0  0  0  0  0  0  0  0  0  0
    1.5906    6.4103   -2.9958 O   0  0  0  0  0  0  0  0  0  0  0  0
    2.1530    9.0736   -0.4892 O   0  0  0  0  0  0  0  0  0  0  0  0
   -0.5156    7.9193    0.3648 N   0  3  0  0  0  0  0  0  0  0  0  0
   -1.2495    8.9818   -0.3523 C   0  0  0  0  0  0  0  0  0  0  0  0
   -0.7013    4.9025   -0.3455 C   0  0  0  0  0  0  0  0  0  0  0  0
  1  8  1  0  0  0  0
  1  9  1  6  0  0  0
  1  2  1  0  0  0  0
  2  3  1  0  0  0  0
  3  5  1  0  0  0  0
  3  4  1  1  0  0  0
  5  7  1  0  0  0  0
  5  6  1  1  0  0  0
  7  8  1  0  0  0  0
  9 10  1  0  0  0  0
 11 12  1  0  0  0  0
 11 18  1  0  0  0  0
 11 19  1  6  0  0  0
 12 13  1  0  0  0  0
 13 15  1  0  0  0  0
 13 14  1  6  0  0  0
 15 16  1  0  0  0  0
 15 26  1  1  0  0  0
 16 18  1  0  0  0  0
 16 17  1  6  0  0  0
 18  4  1  1  0  0  0
 20 21  1  0  0  0  0
 20 27  1  0  0  0  0
 21 31  1  1  0  0  0
 21 23  1  0  0  0  0
 21 22  1  0  0  0  0
 23 24  1  0  0  0  0
 23 29  1  6  0  0  0
 24 25  1  0  0  0  0
 24 28  1  1  0  0  0
 25 27  1  0  0  0  0
 25 26  1  1  0  0  0
 29 30  1  0  0  0  0
M  CHG  5   6   1  10   1  14   1  19   1  29   1
M  END
>  <CHROM.1>
66.92983529,79.79237328,-111.20662767,169.26121879,-64.14225591,-113.57417564
-62.30392219,96.11361738,63.08549274,-65.00785066,36.44582999,57.07409826
170.92491921,4.57511875,4.92335500,-1.68124352,0.40161588,-0.43396942,2.48637695

>  <Name>
1byj cryst

>  <RI>
0

>  <Rbt.Current_Directory>
/home/itssahil/PROJECTS/Mol_Feturizer/New_Systems/rnas/1byj

>  <Rbt.Executable>
rbdock ($Id: //depot/dev/client3/rdock/2013.1/src/exe/rbdock.cxx#4 $)

>  <Rbt.Library>
libRbt.so (2013.1, Build901 2013/11/27)

>  <Rbt.Parameter_File>
/export/apps/rDock/src/rDock_2013.1_src/data/scripts/dock_solv.prm

>  <Rbt.Receptor>
prm/pocket_docking_2.prm

>  <SCORE>
-28.2265

>  <SCORE.INTER>
-29.0385

>  <SCORE.INTER.CONST>
1

>  <SCORE.INTER.POLAR>
-2.85257

>  <SCORE.INTER.ROT>
6

>  <SCORE.INTER.SOLV>
17.5697

>  <SCORE.INTER.VDW>
-23.307

>  <SCORE.INTER.norm>
-0.936725

>  <SCORE.INTRA>
-1.02391

>  <SCORE.INTRA.DIHEDRAL>
1.07178

>  <SCORE.INTRA.DIHEDRAL.0>
18.4149

>  <SCORE.INTRA.POLAR>
-0.554502

>  <SCORE.INTRA.POLAR.0>
0

>  <SCORE.INTRA.REPUL>
-0.092687

>  <SCORE.INTRA.REPUL.0>
0.092687

>  <SCORE.INTRA.SOLV>
3.25484

>  <SCORE.INTRA.SOLV.lig_0>
-120.37

>  <SCORE.INTRA.VDW>
-0.838472

>  <SCORE.INTRA.VDW.0>
-1.75542

>  <SCORE.INTRA.norm>
-0.0330293

>  <SCORE.RESTR>
1.83584

>  <SCORE.RESTR.CAVITY>
1.83584

>  <SCORE.RESTR.norm>
0.0592206

>  <SCORE.SYSTEM>
0

>  <SCORE.SYSTEM.CONST>
0

>  <SCORE.SYSTEM.DIHEDRAL>
0

>  <SCORE.SYSTEM.SOLV>
0

>  <SCORE.SYSTEM.norm>
0

>  <SCORE.heavy>
31

>  <SCORE.norm>
-0.910534

>  <RMSD>
1.366

$$$$
1byj cryst
 OpenBabel11021811383D
libRbt.so/2013.1/901 2013/11/27
 31 33  0  0  0  0  0  0  0  0999 V2000
    9.8981    1.9862   -2.1660 C   0  0  1  0  0  0  0  0  0  0  0  0
    8.6323    1.9730   -2.9006 O   0  0  0  0  0  0  0  0  0  0  0  0
    7.4383    2.4978   -2.2467 C   0  0  2  0  0  0  0  0  0  0  0  0
    7.5296    3.9441   -2.0549 O   0  0  0  0  0  0  0  0  0  0  0  0
    7.2315    1.7650   -0.8864 C   0  0  2  0  0  0  0  0  0  0  0  0
    6.0412    2.2317   -0.1485 N   0  3  0  0  0  0  0  0  0  0  0  0
    8.5014    1.9057   -0.0078 C   0  0  0  0  0  0  0  0  0  0  0  0
    9.7427    1.3797   -0.7441 C   0  0  0  0  0  0  0  0  0  0  0  0
   10.9512    1.1818   -2.9484 C   0  0  0  0  0  0  0  0  0  0  0  0
   10.9021    1.3943   -4.4009 N   0  3  0  0  0  0  0  0  0  0  0  0
    7.4344    6.1795   -3.0865 C   0  0  1  0  0  0  0  0  0  0  0  0
    6.5514    7.1952   -3.8515 C   0  0  0  0  0  0  0  0  0  0  0  0
    5.2432    7.4786   -3.0653 C   0  0  1  0  0  0  0  0  0  0  0  0
    4.4484    8.5052   -3.7661 N   0  3  0  0  0  0  0  0  0  0  0  0
    4.4405    6.1610   -2.8621 C   0  0  1  0  0  0  0  0  0  0  0  0
    5.3043    5.0635   -2.1915 C   0  0  1  0  0  0  0  0  0  0  0  0
    4.5337    3.8711   -2.2133 O   0  0  0  0  0  0  0  0  0  0  0  0
    6.6915    4.8200   -2.8724 C   0  0  2  0  0  0  0  0  0  0  0  0
    8.7172    5.9956   -3.7879 N   0  3  0  0  0  0  0  0  0  0  0  0
    0.5148    5.2569   -2.5744 C   0  0  0  0  0  0  0  0  0  0  0  0
   -0.4359    5.9759   -1.5861 C   0  0  2  0  0  0  0  0  0  0  0  0
   -1.3857    6.6961   -2.3706 O   0  0  0  0  0  0  0  0  0  0  0  0
    0.3972    6.9540   -0.6747 C   0  0  1  0  0  0  0  0  0  0  0  0
    1.3733    7.8663   -1.4926 C   0  0  2  0  0  0  0  0  0  0  0  0
    2.1672    7.1009   -2.5815 C   0  0  1  0  0  0  0  0  0  0  0  0
    3.2906    6.3896   -1.9985 O   0  0  0  0  0  0  0  0  0  0  0  0
    1.2955    6.2143   -3.3384 O   0  0  0  0  0  0  0  0  0  0  0  0
    2.2949    8.5402   -0.6396 O   0  0  0  0  0  0  0  0  0  0  0  0
   -0.5297    7.7841    0.1561 N   0  3  0  0  0  0  0  0  0  0  0  0
   -1.0095    9.0495   -0.4358 C   0  0  0  0  0  0  0  0  0  0  0  0
   -1.2178    4.9063   -0.7844 C   0  0  0  0  0  0  0  0  0  0  0  0
  1  8  1  0  0  0  0
  1  9  1  6  0  0  0
  1  2  1  0  0  0  0
  2  3  1  0  0  0  0
  3  5  1  0  0  0  0
  3  4  1  1  0  0  0
  5  7  1  0  0  0  0
  5  6  1  1  0  0  0
  7  8  1  0  0  0  0
  9 10  1  0  0  0  0
 11 12  1  0  0  0  0
 11 18  1  0  0  0  0
 11 19  1  6  0  0  0
 12 13  1  0  0  0  0
 13 15  1  0  0  0  0
 13 14  1  6  0  0  0
 15 16  1  0  0  0  0
 15 26  1  1  0  0  0
 16 18  1  0  0  0  0
 16 17  1  6  0  0  0
 18  4  1  1  0  0  0
 20 21  1  0  0  0  0
 20 27  1  0  0  0  0
 21 31  1  1  0  0  0
 21 23  1  0  0  0  0
 21 22  1  0  0  0  0
 23 24  1  0  0  0  0
 23 29  1  6  0  0  0
 24 25  1  0  0  0  0
 24 28  1  1  0  0  0
 25 27  1  0  0  0  0
 25 26  1  1  0  0  0
 29 30  1  0  0  0  0
M  CHG  5   6   1  10   1  14   1  19   1  29   1
M  END
>  <CHROM.1>
40.28352915,108.45755020,-149.68037220,150.82291236,-163.10982838,54.24708462
-174.60316191,74.28835282,62.87617357,-67.01669914,32.79819081,71.31255032
-152.24865119,4.72724059,5.12029534,-2.09444703,0.39097705,-0.32526441,2.67917240

>  <Name>
1byj cryst

>  <RI>
0

>  <Rbt.Current_Directory>
/home/itssahil/PROJECTS/Mol_Feturizer/New_Systems/rnas/1byj

>  <Rbt.Executable>
rbdock ($Id: //depot/dev/client3/rdock/2013.1/src/exe/rbdock.cxx#4 $)

>  <Rbt.Library>
libRbt.so (2013.1, Build901 2013/11/27)

>  <Rbt.Parameter_File>
/export/apps/rDock/src/rDock_2013.1_src/data/scripts/dock_solv.prm

>  <Rbt.Receptor>
prm/pocket_docking_2.prm

>  <SCORE>
-37.3939

>  <SCORE.INTER>
-35.6487

>  <SCORE.INTER.CONST>
1

>  <SCORE.INTER.POLAR>
-3.79133

>  <SCORE.INTER.ROT>
6

>  <SCORE.INTER.SOLV>
20.9824

>  <SCORE.INTER.VDW>
-25.7222

>  <SCORE.INTER.norm>
-1.14996

>  <SCORE.INTRA>
-2.97815

>  <SCORE.INTRA.DIHEDRAL>
2.50286

>  <SCORE.INTRA.DIHEDRAL.0>
18.4149

>  <SCORE.INTRA.POLAR>
-1.32131

>  <SCORE.INTRA.POLAR.0>
0

>  <SCORE.INTRA.REPUL>
-0.092687

>  <SCORE.INTRA.REPUL.0>
0.092687

>  <SCORE.INTRA.SOLV>
-0.61498

>  <SCORE.INTRA.SOLV.lig_0>
-120.37

>  <SCORE.INTRA.VDW>
1.0338

>  <SCORE.INTRA.VDW.0>
-1.75542

>  <SCORE.INTRA.norm>
-0.0960692

>  <SCORE.RESTR>
1.23295

>  <SCORE.RESTR.CAVITY>
1.23295

>  <SCORE.RESTR.norm>
0.0397727

>  <SCORE.SYSTEM>
0

>  <SCORE.SYSTEM.CONST>
0

>  <SCORE.SYSTEM.DIHEDRAL>
0

>  <SCORE.SYSTEM.SOLV>
0

>  <SCORE.SYSTEM.norm>
0

>  <SCORE.heavy>
31

>  <SCORE.norm>
-1.20626

>  <RMSD>
1.366

$$$$
1byj cryst
 OpenBabel11021811383D
libRbt.so/2013.1/901 2013/11/27
 31 33  0  0  0  0  0  0  0  0999 V2000
    9.7623    1.9459   -2.3483 C   0  0  1  0  0  0  0  0  0  0  0  0
    8.4268    2.0297   -2.9414 O   0  0  0  0  0  0  0  0  0  0  0  0
    7.3661    2.6884   -2.1867 C   0  0  2  0  0  0  0  0  0  0  0  0
    7.6105    4.1248   -2.0693 O   0  0  0  0  0  0  0  0  0  0  0  0
    7.2454    2.0249   -0.7811 C   0  0  2  0  0  0  0  0  0  0  0  0
    6.1923    2.6282    0.0591 N   0  3  0  0  0  0  0  0  0  0  0  0
    8.6125    2.0723   -0.0512 C   0  0  0  0  0  0  0  0  0  0  0  0
    9.7108    1.4052   -0.8927 C   0  0  0  0  0  0  0  0  0  0  0  0
   10.6437    1.0184   -3.2033 C   0  0  0  0  0  0  0  0  0  0  0  0
   10.6259    1.3378   -4.6368 N   0  3  0  0  0  0  0  0  0  0  0  0
    7.9404    6.2972   -3.1840 C   0  0  1  0  0  0  0  0  0  0  0  0
    7.3295    7.3416   -4.1497 C   0  0  0  0  0  0  0  0  0  0  0  0
    5.9264    7.7843   -3.6547 C   0  0  1  0  0  0  0  0  0  0  0  0
    5.3899    8.8354   -4.5402 N   0  3  0  0  0  0  0  0  0  0  0  0
    4.9740    6.5568   -3.5670 C   0  0  1  0  0  0  0  0  0  0  0  0
    5.5767    5.4273   -2.6945 C   0  0  1  0  0  0  0  0  0  0  0  0
    4.7122    4.3086   -2.8252 O   0  0  0  0  0  0  0  0  0  0  0  0
    7.0401    5.0233   -3.0719 C   0  0  2  0  0  0  0  0  0  0  0  0
    9.3119    5.9605   -3.6050 N   0  3  0  0  0  0  0  0  0  0  0  0
    1.9545    4.6155   -2.0268 C   0  0  0  0  0  0  0  0  0  0  0  0
    0.6187    5.2608   -1.5834 C   0  0  2  0  0  0  0  0  0  0  0  0
   -0.4039    4.7167   -2.4167 O   0  0  0  0  0  0  0  0  0  0  0  0
    0.7097    6.8242   -1.7536 C   0  0  1  0  0  0  0  0  0  0  0  0
    1.2604    7.2536   -3.1558 C   0  0  2  0  0  0  0  0  0  0  0  0
    2.5011    6.4417   -3.6070 C   0  0  1  0  0  0  0  0  0  0  0  0
    3.7045    6.9354   -2.9622 O   0  0  0  0  0  0  0  0  0  0  0  0
    2.3059    5.0176   -3.3776 O   0  0  0  0  0  0  0  0  0  0  0  0
    1.5828    8.6415   -3.1866 O   0  0  0  0  0  0  0  0  0  0  0  0
   -0.6307    7.4393   -1.5020 N   0  3  0  0  0  0  0  0  0  0  0  0
   -0.7481    8.3378   -0.3354 C   0  0  0  0  0  0  0  0  0  0  0  0
    0.3130    4.8182   -0.1312 C   0  0  0  0  0  0  0  0  0  0  0  0
  1  8  1  0  0  0  0
  1  9  1  6  0  0  0
  1  2  1  0  0  0  0
  2  3  1  0  0  0  0
  3  5  1  0  0  0  0
  3  4  1  1  0  0  0
  5  7  1  0  0  0  0
  5  6  1  1  0  0  0
  7  8  1  0  0  0  0
  9 10  1  0  0  0  0
 11 12  1  0  0  0  0
 11 18  1  0  0  0  0
 11 19  1  6  0  0  0
 12 13  1  0  0  0  0
 13 15  1  0  0  0  0
 13 14  1  6  0  0  0
 15 16  1  0  0  0  0
 15 26  1  1  0  0  0
 16 18  1  0  0  0  0
 16 17  1  6  0  0  0
 18  4  1  1  0  0  0
 20 21  1  0  0  0  0
 20 27  1  0  0  0  0
 21 31  1  1  0  0  0
 21 23  1  0  0  0  0
 21 22  1  0  0  0  0
 23 24  1  0  0  0  0
 23 29  1  6  0  0  0
 24 25  1  0  0  0  0
 24 28  1  1  0  0  0
 25 27  1  0  0  0  0
 25 26  1  1  0  0  0
 29 30  1  0  0  0  0
M  CHG  5   6   1  10   1  14   1  19   1  29   1
M  END
>  <CHROM.1>
50.12143946,92.14439872,-152.41794551,-49.38212374,65.22959135,-158.21625201
-33.44802511,135.10733933,64.97661411,58.36811411,-123.48197182,-166.15655417
-162.22858737,5.06217858,5.01367324,-2.48779241,0.38221749,-0.28649709,2.62894973

>  <Name>
1byj cryst

>  <RI>
0

>  <Rbt.Current_Directory>
/home/itssahil/PROJECTS/Mol_Feturizer/New_Systems/rnas/1byj

>  <Rbt.Executable>
rbdock ($Id: //depot/dev/client3/rdock/2013.1/src/exe/rbdock.cxx#4 $)

>  <Rbt.Library>
libRbt.so (2013.1, Build901 2013/11/27)

>  <Rbt.Parameter_File>
/export/apps/rDock/src/rDock_2013.1_src/data/scripts/dock_solv.prm

>  <Rbt.Receptor>
prm/pocket_docking_2.prm

>  <SCORE>
-43.2189

>  <SCORE.INTER>
-43.8257

>  <SCORE.INTER.CONST>
1

>  <SCORE.INTER.POLAR>
-5.39238

>  <SCORE.INTER.ROT>
6

>  <SCORE.INTER.SOLV>
26.1796

>  <SCORE.INTER.VDW>
-27.5691

>  <SCORE.INTER.norm>
-1.41373

>  <SCORE.INTRA>
-0.193291

>  <SCORE.INTRA.DIHEDRAL>
4.32668

>  <SCORE.INTRA.DIHEDRAL.0>
18.4149

>  <SCORE.INTRA.POLAR>
-0.0497242

>  <SCORE.INTRA.POLAR.0>
0

>  <SCORE.INTRA.REPUL>
-0.092687

>  <SCORE.INTRA.REPUL.0>
0.092687

>  <SCORE.INTRA.SOLV>
-2.24613

>  <SCORE.INTRA.SOLV.lig_0>
-120.37

>  <SCORE.INTRA.VDW>
-0.60107

>  <SCORE.INTRA.VDW.0>
-1.75542

>  <SCORE.INTRA.norm>
-0.0062352

>  <SCORE.RESTR>
0.800047

>  <SCORE.RESTR.CAVITY>
0.800047

>  <SCORE.RESTR.norm>
0.025808

>  <SCORE.SYSTEM>
0

>  <SCORE.SYSTEM.CONST>
0

>  <SCORE.SYSTEM.DIHEDRAL>
0

>  <SCORE.SYSTEM.SOLV>
0

>  <SCORE.SYSTEM.norm>
0

>  <SCORE.heavy>
31

>  <SCORE.norm>
-1.39416

>  <RMSD>
1.381

$$$$
1byj cryst
 OpenBabel11021811383D
libRbt.so/2013.1/901 2013/11/27
 31 33  0  0  0  0  0  0  0  0999 V2000
    9.8870    2.3398   -2.5259 C   0  0  1  0  0  0  0  0  0  0  0  0
    8.6166    2.3944   -3.2506 O   0  0  0  0  0  0  0  0  0  0  0  0
    7.5290    3.1938   -2.6969 C   0  0  2  0  0  0  0  0  0  0  0  0
    7.8379    4.6216   -2.7506 O   0  0  0  0  0  0  0  0  0  0  0  0
    7.2473    2.7370   -1.2333 C   0  0  2  0  0  0  0  0  0  0  0  0
    6.1566    3.4932   -0.5870 N   0  3  0  0  0  0  0  0  0  0  0  0
    8.5438    2.8300   -0.3880 C   0  0  0  0  0  0  0  0  0  0  0  0
    9.6762    2.0088   -1.0226 C   0  0  0  0  0  0  0  0  0  0  0  0
   10.7910    1.2677   -3.1596 C   0  0  0  0  0  0  0  0  0  0  0  0
   10.8379    1.3222   -4.6266 N   0  3  0  0  0  0  0  0  0  0  0  0
    7.5097    6.9665   -3.4319 C   0  0  1  0  0  0  0  0  0  0  0  0
    6.5338    7.9855   -4.0690 C   0  0  0  0  0  0  0  0  0  0  0  0
    5.1832    7.9961   -3.3038 C   0  0  1  0  0  0  0  0  0  0  0  0
    4.2920    9.0255   -3.8722 N   0  3  0  0  0  0  0  0  0  0  0  0
    4.5336    6.5824   -3.3378 C   0  0  1  0  0  0  0  0  0  0  0  0
    5.5021    5.4958   -2.8073 C   0  0  1  0  0  0  0  0  0  0  0  0
    4.8753    4.2437   -3.0429 O   0  0  0  0  0  0  0  0  0  0  0  0
    6.9241    5.5165   -3.4590 C   0  0  2  0  0  0  0  0  0  0  0  0
    8.8216    7.0374   -4.0992 N   0  3  0  0  0  0  0  0  0  0  0  0
    1.1950    4.4767   -1.8476 C   0  0  0  0  0  0  0  0  0  0  0  0
    0.0002    5.2874   -1.2883 C   0  0  2  0  0  0  0  0  0  0  0  0
   -1.1036    5.0606   -2.1636 O   0  0  0  0  0  0  0  0  0  0  0  0
    0.3782    6.8160   -1.2450 C   0  0  1  0  0  0  0  0  0  0  0  0
    1.0013    7.3281   -2.5880 C   0  0  2  0  0  0  0  0  0  0  0  0
    2.0718    6.3738   -3.1755 C   0  0  1  0  0  0  0  0  0  0  0  0
    3.3445    6.5446   -2.4980 O   0  0  0  0  0  0  0  0  0  0  0  0
    1.6170    4.9915   -3.1386 O   0  0  0  0  0  0  0  0  0  0  0  0
    1.5741    8.6242   -2.4362 O   0  0  0  0  0  0  0  0  0  0  0  0
   -0.8263    7.6248   -0.8797 N   0  3  0  0  0  0  0  0  0  0  0  0
   -0.5971    8.8457   -0.0805 C   0  0  0  0  0  0  0  0  0  0  0  0
   -0.3845    4.7107    0.0964 C   0  0  0  0  0  0  0  0  0  0  0  0
  1  8  1  0  0  0  0
  1  9  1  6  0  0  0
  1  2  1  0  0  0  0
  2  3  1  0  0  0  0
  3  5  1  0  0  0  0
  3  4  1  1  0  0  0
  5  7  1  0  0  0  0
  5  6  1  1  0  0  0
  7  8  1  0  0  0  0
  9 10  1  0  0  0  0
 11 12  1  0  0  0  0
 11 18  1  0  0  0  0
 11 19  1  6  0  0  0
 12 13  1  0  0  0  0
 13 15  1  0  0  0  0
 13 14  1  6  0  0  0
 15 16  1  0  0  0  0
 15 26  1  1  0  0  0
 16 18  1  0  0  0  0
 16 17  1  6  0  0  0
 18  4  1  1  0  0  0
 20 21  1  0  0  0  0
 20 27  1  0  0  0  0
 21 31  1  1  0  0  0
 21 23  1  0  0  0  0
 21 22  1  0  0  0  0
 23 24  1  0  0  0  0
 23 29  1  6  0  0  0
 24 25  1  0  0  0  0
 24 28  1  1  0  0  0
 25 27  1  0  0  0  0
 25 26  1  1  0  0  0
 29 30  1  0  0  0  0
M  CHG  5   6   1  10   1  14   1  19   1  29   1
M  END
>  <CHROM.1>
45.71084496,122.79160493,-177.24780530,41.70132092,-160.21823363,-60.90717735
67.42740016,112.85899170,69.97737924,-59.66305494,-92.24894238,-61.66142518
-136.60827118,4.80382578,5.29637275,-2.43854010,0.33076028,-0.28266068,2.75252496

>  <Name>
1byj cryst

>  <RI>
0

>  <Rbt.Current_Directory>
/home/itssahil/PROJECTS/Mol_Feturizer/New_Systems/rnas/1byj

>  <Rbt.Executable>
rbdock ($Id: //depot/dev/client3/rdock/2013.1/src/exe/rbdock.cxx#4 $)

>  <Rbt.Library>
libRbt.so (2013.1, Build901 2013/11/27)

>  <Rbt.Parameter_File>
/export/apps/rDock/src/rDock_2013.1_src/data/scripts/dock_solv.prm

>  <Rbt.Receptor>
prm/pocket_docking_3.prm

>  <SCORE>
-54.41

>  <SCORE.INTER>
-48.8201

>  <SCORE.INTER.CONST>
1

>  <SCORE.INTER.POLAR>
-6.63758

>  <SCORE.INTER.ROT>
6

>  <SCORE.INTER.SOLV>
24.9015

>  <SCORE.INTER.VDW>
-26.322

>  <SCORE.INTER.norm>
-1.57484

>  <SCORE.INTRA>
-5.59006

>  <SCORE.INTRA.DIHEDRAL>
6.97028

>  <SCORE.INTRA.DIHEDRAL.0>
18.4149

>  <SCORE.INTRA.POLAR>
-2.34428

>  <SCORE.INTRA.POLAR.0>
0

>  <SCORE.INTRA.REPUL>
-0.092687

>  <SCORE.INTRA.REPUL.0>
0.092687

>  <SCORE.INTRA.SOLV>
1.67911

>  <SCORE.INTRA.SOLV.lig_0>
-120.37

>  <SCORE.INTRA.VDW>
-1.48078

>  <SCORE.INTRA.VDW.0>
-1.75542

>  <SCORE.INTRA.norm>
-0.180325

>  <SCORE.RESTR>
0.000171923

>  <SCORE.RESTR.CAVITY>
0.000171923

>  <SCORE.RESTR.norm>
5.5459e-06

>  <SCORE.SYSTEM>
0

>  <SCORE.SYSTEM.CONST>
0

>  <SCORE.SYSTEM.DIHEDRAL>
0

>  <SCORE.SYSTEM.SOLV>
0

>  <SCORE.SYSTEM.norm>
0

>  <SCORE.heavy>
31

>  <SCORE.norm>
-1.75516

>  <RMSD>
1.388

$$$$
1byj cryst
 OpenBabel11021811383D
libRbt.so/2013.1/901 2013/11/27
 31 33  0  0  0  0  0  0  0  0999 V2000
    8.9297    1.6841   -3.0589 C   0  0  1  0  0  0  0  0  0  0  0  0
    7.4812    1.7982   -3.2340 O   0  0  0  0  0  0  0  0  0  0  0  0
    6.6874    2.3637   -2.1482 C   0  0  2  0  0  0  0  0  0  0  0  0
    6.9682    3.7871   -1.9700 O   0  0  0  0  0  0  0  0  0  0  0  0
    6.9689    1.5694   -0.8366 C   0  0  2  0  0  0  0  0  0  0  0  0
    6.2065    2.0719    0.3233 N   0  3  0  0  0  0  0  0  0  0  0  0
    8.4882    1.5738   -0.5275 C   0  0  0  0  0  0  0  0  0  0  0  0
    9.2930    1.0089   -1.7077 C   0  0  0  0  0  0  0  0  0  0  0  0
    9.5205    0.8572   -4.2144 C   0  0  0  0  0  0  0  0  0  0  0  0
   10.9588    0.5918   -4.0799 N   0  3  0  0  0  0  0  0  0  0  0  0
    7.2175    6.0172   -2.9873 C   0  0  1  0  0  0  0  0  0  0  0  0
    6.5240    7.1274   -3.8138 C   0  0  0  0  0  0  0  0  0  0  0  0
    5.1970    7.5615   -3.1352 C   0  0  1  0  0  0  0  0  0  0  0  0
    4.5867    8.6724   -3.8904 N   0  3  0  0  0  0  0  0  0  0  0  0
    4.2334    6.3461   -3.0096 C   0  0  1  0  0  0  0  0  0  0  0  0
    4.9062    5.1567   -2.2795 C   0  0  1  0  0  0  0  0  0  0  0  0
    4.0074    4.0616   -2.3744 O   0  0  0  0  0  0  0  0  0  0  0  0
    6.3074    4.7532   -2.8462 C   0  0  2  0  0  0  0  0  0  0  0  0
    8.5239    5.6850   -3.5826 N   0  3  0  0  0  0  0  0  0  0  0  0
    0.5859    4.9200   -2.4691 C   0  0  0  0  0  0  0  0  0  0  0  0
   -0.5392    5.6732   -1.7177 C   0  0  2  0  0  0  0  0  0  0  0  0
   -1.5683    5.9419   -2.6689 O   0  0  0  0  0  0  0  0  0  0  0  0
    0.0355    7.0118   -1.1183 C   0  0  1  0  0  0  0  0  0  0  0  0
    0.8560    7.8439   -2.1616 C   0  0  2  0  0  0  0  0  0  0  0  0
    1.8421    6.9877   -2.9961 C   0  0  1  0  0  0  0  0  0  0  0  0
    3.0502    6.7075   -2.2414 O   0  0  0  0  0  0  0  0  0  0  0  0
    1.2033    5.7696   -3.4726 O   0  0  0  0  0  0  0  0  0  0  0  0
    1.5802    8.8986   -1.5337 O   0  0  0  0  0  0  0  0  0  0  0  0
   -1.0796    7.8310   -0.5493 N   0  3  0  0  0  0  0  0  0  0  0  0
   -0.7058    8.9314    0.3625 C   0  0  0  0  0  0  0  0  0  0  0  0
   -1.1377    4.7282   -0.6467 C   0  0  0  0  0  0  0  0  0  0  0  0
  1  8  1  0  0  0  0
  1  9  1  6  0  0  0
  1  2  1  0  0  0  0
  2  3  1  0  0  0  0
  3  5  1  0  0  0  0
  3  4  1  1  0  0  0
  5  7  1  0  0  0  0
  5  6  1  1  0  0  0
  7  8  1  0  0  0  0
  9 10  1  0  0  0  0
 11 12  1  0  0  0  0
 11 18  1  0  0  0  0
 11 19  1  6  0  0  0
 12 13  1  0  0  0  0
 13 15  1  0  0  0  0
 13 14  1  6  0  0  0
 15 16  1  0  0  0  0
 15 26  1  1  0  0  0
 16 18  1  0  0  0  0
 16 17  1  6  0  0  0
 18  4  1  1  0  0  0
 20 21  1  0  0  0  0
 20 27  1  0  0  0  0
 21 31  1  1  0  0  0
 21 23  1  0  0  0  0
 21 22  1  0  0  0  0
 23 24  1  0  0  0  0
 23 29  1  6  0  0  0
 24 25  1  0  0  0  0
 24 28  1  1  0  0  0
 25 27  1  0  0  0  0
 25 26  1  1  0  0  0
 29 30  1  0  0  0  0
M  CHG  5   6   1  10   1  14   1  19   1  29   1
M  END
>  <CHROM.1>
-175.46170353,81.54729185,-151.95820328,67.51611000,-161.41407988,47.81153191
-58.33110822,101.33434892,-61.86647844,177.89842290,-74.75219890,70.90058922
-158.77105358,4.41225427,4.97870874,-2.27676349,0.45742389,-0.30585722,2.79217629

>  <Name>
1byj cryst

>  <RI>
0

>  <Rbt.Current_Directory>
/home/itssahil/PROJECTS/Mol_Feturizer/New_Systems/rnas/1byj

>  <Rbt.Executable>
rbdock ($Id: //depot/dev/client3/rdock/2013.1/src/exe/rbdock.cxx#4 $)

>  <Rbt.Library>
libRbt.so (2013.1, Build901 2013/11/27)

>  <Rbt.Parameter_File>
/export/apps/rDock/src/rDock_2013.1_src/data/scripts/dock_solv.prm

>  <Rbt.Receptor>
prm/pocket_docking_2.prm

>  <SCORE>
-47.2028

>  <SCORE.INTER>
-43.459

>  <SCORE.INTER.CONST>
1

>  <SCORE.INTER.POLAR>
-5.07553

>  <SCORE.INTER.ROT>
6

>  <SCORE.INTER.SOLV>
26.4238

>  <SCORE.INTER.VDW>
-28.4622

>  <SCORE.INTER.norm>
-1.4019

>  <SCORE.INTRA>
-4.44692

>  <SCORE.INTRA.DIHEDRAL>
-2.64302

>  <SCORE.INTRA.DIHEDRAL.0>
18.4149

>  <SCORE.INTRA.POLAR>
-0.0573093

>  <SCORE.INTRA.POLAR.0>
0

>  <SCORE.INTRA.REPUL>
-0.092687

>  <SCORE.INTRA.REPUL.0>
0.092687

>  <SCORE.INTRA.SOLV>
-1.74847

>  <SCORE.INTRA.SOLV.lig_0>
-120.37

>  <SCORE.INTRA.VDW>
-1.59289

>  <SCORE.INTRA.VDW.0>
-1.75542

>  <SCORE.INTRA.norm>
-0.143449

>  <SCORE.RESTR>
0.703086

>  <SCORE.RESTR.CAVITY>
0.703086

>  <SCORE.RESTR.norm>
0.0226802

>  <SCORE.SYSTEM>
0

>  <SCORE.SYSTEM.CONST>
0

>  <SCORE.SYSTEM.DIHEDRAL>
0

>  <SCORE.SYSTEM.SOLV>
0

>  <SCORE.SYSTEM.norm>
0

>  <SCORE.heavy>
31

>  <SCORE.norm>
-1.52267

>  <RMSD>
1.403

$$$$
1byj cryst
 OpenBabel11021811383D
libRbt.so/2013.1/901 2013/11/27
 31 33  0  0  0  0  0  0  0  0999 V2000
    9.1442    2.0982   -3.1933 C   0  0  1  0  0  0  0  0  0  0  0  0
    7.7370    2.4118   -3.4453 O   0  0  0  0  0  0  0  0  0  0  0  0
    7.0562    3.3416   -2.5506 C   0  0  2  0  0  0  0  0  0  0  0  0
    7.5802    4.6985   -2.6951 O   0  0  0  0  0  0  0  0  0  0  0  0
    7.1987    2.8405   -1.0812 C   0  0  2  0  0  0  0  0  0  0  0  0
    6.5380    3.7220   -0.0987 N   0  3  0  0  0  0  0  0  0  0  0  0
    8.6965    2.6597   -0.7236 C   0  0  0  0  0  0  0  0  0  0  0  0
    9.3880    1.7064   -1.7098 C   0  0  0  0  0  0  0  0  0  0  0  0
    9.5796    0.9361   -4.1032 C   0  0  0  0  0  0  0  0  0  0  0  0
   11.0132    0.6263   -4.0257 N   0  3  0  0  0  0  0  0  0  0  0  0
    7.5617    7.0473   -3.4390 C   0  0  1  0  0  0  0  0  0  0  0  0
    6.7381    8.1596   -4.1326 C   0  0  0  0  0  0  0  0  0  0  0  0
    5.3745    8.3530   -3.4165 C   0  0  1  0  0  0  0  0  0  0  0  0
    4.6340    9.4672   -4.0387 N   0  3  0  0  0  0  0  0  0  0  0  0
    4.5594    7.0276   -3.4425 C   0  0  1  0  0  0  0  0  0  0  0  0
    5.3709    5.8464   -2.8541 C   0  0  1  0  0  0  0  0  0  0  0  0
    4.6048    4.6733   -3.0844 O   0  0  0  0  0  0  0  0  0  0  0  0
    6.8055    5.6784   -3.4551 C   0  0  2  0  0  0  0  0  0  0  0  0
    8.8936    6.9421   -4.0605 N   0  3  0  0  0  0  0  0  0  0  0  0
    1.3350    4.8731   -2.4011 C   0  0  0  0  0  0  0  0  0  0  0  0
    0.0944    5.4910   -1.7107 C   0  0  2  0  0  0  0  0  0  0  0  0
   -0.9971    5.3606   -2.6206 O   0  0  0  0  0  0  0  0  0  0  0  0
    0.3761    7.0061   -1.3844 C   0  0  1  0  0  0  0  0  0  0  0  0
    0.9597    7.7943   -2.6059 C   0  0  2  0  0  0  0  0  0  0  0  0
    2.0853    7.0331   -3.3513 C   0  0  1  0  0  0  0  0  0  0  0  0
    3.3478    7.1555   -2.6450 O   0  0  0  0  0  0  0  0  0  0  0  0
    1.7181    5.6420   -3.5724 O   0  0  0  0  0  0  0  0  0  0  0  0
    1.4509    9.0736   -2.2143 O   0  0  0  0  0  0  0  0  0  0  0  0
   -0.8750    7.6571   -0.8851 N   0  3  0  0  0  0  0  0  0  0  0  0
   -0.7189    8.9076   -0.1146 C   0  0  0  0  0  0  0  0  0  0  0  0
   -0.2471    4.6465   -0.4584 C   0  0  0  0  0  0  0  0  0  0  0  0
  1  8  1  0  0  0  0
  1  9  1  6  0  0  0
  1  2  1  0  0  0  0
  2  3  1  0  0  0  0
  3  5  1  0  0  0  0
  3  4  1  1  0  0  0
  5  7  1  0  0  0  0
  5  6  1  1  0  0  0
  7  8  1  0  0  0  0
  9 10  1  0  0  0  0
 11 12  1  0  0  0  0
 11 18  1  0  0  0  0
 11 19  1  6  0  0  0
 12 13  1  0  0  0  0
 13 15  1  0  0  0  0
 13 14  1  6  0  0  0
 15 16  1  0  0  0  0
 15 26  1  1  0  0  0
 16 18  1  0  0  0  0
 16 17  1  6  0  0  0
 18  4  1  1  0  0  0
 20 21  1  0  0  0  0
 20 27  1  0  0  0  0
 21 31  1  1  0  0  0
 21 23  1  0  0  0  0
 21 22  1  0  0  0  0
 23 24  1  0  0  0  0
 23 29  1  6  0  0  0
 24 25  1  0  0  0  0
 24 28  1  1  0  0  0
 25 27  1  0  0  0  0
 25 26  1  1  0  0  0
 29 30  1  0  0  0  0
M  CHG  5   6   1  10   1  14   1  19   1  29   1
M  END
>  <CHROM.1>
174.32712843,102.73684958,178.94356456,-55.02062689,-44.99343877,-58.38114056
58.24160235,116.81533651,79.89446595,-172.04683248,-78.97134130,-167.81179417
-154.07924085,4.73000220,5.45997518,-2.57291338,0.42095290,-0.27032527,2.83296366

>  <Name>
1byj cryst

>  <RI>
0

>  <Rbt.Current_Directory>
/home/itssahil/PROJECTS/Mol_Feturizer/New_Systems/rnas/1byj

>  <Rbt.Executable>
rbdock ($Id: //depot/dev/client3/rdock/2013.1/src/exe/rbdock.cxx#4 $)

>  <Rbt.Library>
libRbt.so (2013.1, Build901 2013/11/27)

>  <Rbt.Parameter_File>
/export/apps/rDock/src/rDock_2013.1_src/data/scripts/dock_solv.prm

>  <Rbt.Receptor>
prm/pocket_docking_2.prm

>  <SCORE>
-46.5773

>  <SCORE.INTER>
-46.1711

>  <SCORE.INTER.CONST>
1

>  <SCORE.INTER.POLAR>
-6.09095

>  <SCORE.INTER.ROT>
6

>  <SCORE.INTER.SOLV>
27.3897

>  <SCORE.INTER.VDW>
-27.2075

>  <SCORE.INTER.norm>
-1.48939

>  <SCORE.INTRA>
-1.51562

>  <SCORE.INTRA.DIHEDRAL>
2.16322

>  <SCORE.INTRA.DIHEDRAL.0>
18.4149

>  <SCORE.INTRA.POLAR>
0

>  <SCORE.INTRA.POLAR.0>
0

>  <SCORE.INTRA.REPUL>
-0.092687

>  <SCORE.INTRA.REPUL.0>
0.092687

>  <SCORE.INTRA.SOLV>
-1.20105

>  <SCORE.INTRA.SOLV.lig_0>
-120.37

>  <SCORE.INTRA.VDW>
-1.53327

>  <SCORE.INTRA.VDW.0>
-1.75542

>  <SCORE.INTRA.norm>
-0.048891

>  <SCORE.RESTR>
1.10944

>  <SCORE.RESTR.CAVITY>
1.10944

>  <SCORE.RESTR.norm>
0.0357885

>  <SCORE.SYSTEM>
0

>  <SCORE.SYSTEM.CONST>
0

>  <SCORE.SYSTEM.DIHEDRAL>
0

>  <SCORE.SYSTEM.SOLV>
0

>  <SCORE.SYSTEM.norm>
0

>  <SCORE.heavy>
31

>  <SCORE.norm>
-1.50249

>  <RMSD>
1.421

$$$$
1byj cryst
 OpenBabel11021811383D
libRbt.so/2013.1/901 2013/11/27
 31 33  0  0  0  0  0  0  0  0999 V2000
    9.9391    2.3418   -2.6225 C   0  0  1  0  0  0  0  0  0  0  0  0
    8.5612    2.1938   -3.0934 O   0  0  0  0  0  0  0  0  0  0  0  0
    7.4708    2.5065   -2.1759 C   0  0  2  0  0  0  0  0  0  0  0  0
    7.4168    3.9375   -1.8825 O   0  0  0  0  0  0  0  0  0  0  0  0
    7.6420    1.6736   -0.8693 C   0  0  2  0  0  0  0  0  0  0  0  0
    6.5797    1.9243    0.1245 N   0  3  0  0  0  0  0  0  0  0  0  0
    9.0372    1.9397   -0.2476 C   0  0  0  0  0  0  0  0  0  0  0  0
   10.1568    1.6375   -1.2549 C   0  0  0  0  0  0  0  0  0  0  0  0
   10.9016    1.7407   -3.6619 C   0  0  0  0  0  0  0  0  0  0  0  0
   10.5551    0.3732   -4.0709 N   0  3  0  0  0  0  0  0  0  0  0  0
    7.7530    6.0260   -3.1457 C   0  0  1  0  0  0  0  0  0  0  0  0
    7.0967    7.0728   -4.0784 C   0  0  0  0  0  0  0  0  0  0  0  0
    5.8087    7.6471   -3.4297 C   0  0  1  0  0  0  0  0  0  0  0  0
    5.2371    8.6981   -4.2931 N   0  3  0  0  0  0  0  0  0  0  0  0
    4.7891    6.5045   -3.1531 C   0  0  1  0  0  0  0  0  0  0  0  0
    5.4186    5.3696   -2.3070 C   0  0  1  0  0  0  0  0  0  0  0  0
    4.4647    4.3187   -2.2640 O   0  0  0  0  0  0  0  0  0  0  0  0
    6.7848    4.8340   -2.8492 C   0  0  2  0  0  0  0  0  0  0  0  0
    9.0274    5.5630   -3.7226 N   0  3  0  0  0  0  0  0  0  0  0  0
    0.9837    5.5102   -2.4282 C   0  0  0  0  0  0  0  0  0  0  0  0
   -0.0315    6.4658   -1.7545 C   0  0  2  0  0  0  0  0  0  0  0  0
   -1.0404    6.7517   -2.7222 O   0  0  0  0  0  0  0  0  0  0  0  0
    0.7064    7.7832   -1.3059 C   0  0  1  0  0  0  0  0  0  0  0  0
    1.5979    8.3979   -2.4377 C   0  0  2  0  0  0  0  0  0  0  0  0
    2.4616    7.3483   -3.1821 C   0  0  1  0  0  0  0  0  0  0  0  0
    3.6431    7.0091   -2.4097 O   0  0  0  0  0  0  0  0  0  0  0  0
    1.6764    6.1703   -3.5210 O   0  0  0  0  0  0  0  0  0  0  0  0
    2.4518    9.4205   -1.9313 O   0  0  0  0  0  0  0  0  0  0  0  0
   -0.2947    8.7835   -0.8206 N   0  3  0  0  0  0  0  0  0  0  0  0
   -0.6412    8.7435    0.6148 C   0  0  0  0  0  0  0  0  0  0  0  0
   -0.7154    5.7164   -0.5844 C   0  0  0  0  0  0  0  0  0  0  0  0
  1  8  1  0  0  0  0
  1  9  1  6  0  0  0
  1  2  1  0  0  0  0
  2  3  1  0  0  0  0
  3  5  1  0  0  0  0
  3  4  1  1  0  0  0
  5  7  1  0  0  0  0
  5  6  1  1  0  0  0
  7  8  1  0  0  0  0
  9 10  1  0  0  0  0
 11 12  1  0  0  0  0
 11 18  1  0  0  0  0
 11 19  1  6  0  0  0
 12 13  1  0  0  0  0
 13 15  1  0  0  0  0
 13 14  1  6  0  0  0
 15 16  1  0  0  0  0
 15 26  1  1  0  0  0
 16 18  1  0  0  0  0
 16 17  1  6  0  0  0
 18  4  1  1  0  0  0
 20 21  1  0  0  0  0
 20 27  1  0  0  0  0
 21 31  1  1  0  0  0
 21 23  1  0  0  0  0
 21 22  1  0  0  0  0
 23 24  1  0  0  0  0
 23 29  1  6  0  0  0
 24 25  1  0  0  0  0
 24 28  1  1  0  0  0
 25 27  1  0  0  0  0
 25 26  1  1  0  0  0
 29 30  1  0  0  0  0
M  CHG  5   6   1  10   1  14   1  19   1  29   1
M  END
>  <CHROM.1>
-51.24915496,80.31585179,-129.62867323,55.25686937,55.59040260,167.93011566
-170.95618232,97.48185684,-59.76716028,-120.77399788,-149.56233971,65.18751952
-155.30956659,4.99401210,5.31122963,-2.31312667,-0.44290665,0.35336518,-0.49260245

>  <Name>
1byj cryst

>  <RI>
0

>  <Rbt.Current_Directory>
/home/itssahil/PROJECTS/Mol_Feturizer/New_Systems/rnas/1byj

>  <Rbt.Executable>
rbdock ($Id: //depot/dev/client3/rdock/2013.1/src/exe/rbdock.cxx#4 $)

>  <Rbt.Library>
libRbt.so (2013.1, Build901 2013/11/27)

>  <Rbt.Parameter_File>
/export/apps/rDock/src/rDock_2013.1_src/data/scripts/dock_solv.prm

>  <Rbt.Receptor>
prm/pocket_docking_2.prm

>  <SCORE>
-32.6966

>  <SCORE.INTER>
-35.708

>  <SCORE.INTER.CONST>
1

>  <SCORE.INTER.POLAR>
-3.887

>  <SCORE.INTER.ROT>
6

>  <SCORE.INTER.SOLV>
25.8889

>  <SCORE.INTER.VDW>
-27.0783

>  <SCORE.INTER.norm>
-1.15187

>  <SCORE.INTRA>
2.26016

>  <SCORE.INTRA.DIHEDRAL>
8.02563

>  <SCORE.INTRA.DIHEDRAL.0>
18.4149

>  <SCORE.INTRA.POLAR>
-0.0179163

>  <SCORE.INTRA.POLAR.0>
0

>  <SCORE.INTRA.REPUL>
-0.092687

>  <SCORE.INTRA.REPUL.0>
0.092687

>  <SCORE.INTRA.SOLV>
0.726256

>  <SCORE.INTRA.SOLV.lig_0>
-120.37

>  <SCORE.INTRA.VDW>
-1.59143

>  <SCORE.INTRA.VDW.0>
-1.75542

>  <SCORE.INTRA.norm>
0.0729085

>  <SCORE.RESTR>
0.751141

>  <SCORE.RESTR.CAVITY>
0.751141

>  <SCORE.RESTR.norm>
0.0242304

>  <SCORE.SYSTEM>
0

>  <SCORE.SYSTEM.CONST>
0

>  <SCORE.SYSTEM.DIHEDRAL>
0

>  <SCORE.SYSTEM.SOLV>
0

>  <SCORE.SYSTEM.norm>
0

>  <SCORE.heavy>
31

>  <SCORE.norm>
-1.05473

>  <RMSD>
1.456

$$$$
1byj cryst
 OpenBabel11021811383D
libRbt.so/2013.1/901 2013/11/27
 31 33  0  0  0  0  0  0  0  0999 V2000
    9.8932    1.8535   -2.1452 C   0  0  1  0  0  0  0  0  0  0  0  0
    8.7046    1.8231   -2.9987 O   0  0  0  0  0  0  0  0  0  0  0  0
    7.4172    2.1905   -2.4190 C   0  0  2  0  0  0  0  0  0  0  0  0
    7.3717    3.6125   -2.0835 O   0  0  0  0  0  0  0  0  0  0  0  0
    7.1486    1.3100   -1.1608 C   0  0  2  0  0  0  0  0  0  0  0  0
    5.8620    1.6114   -0.5029 N   0  3  0  0  0  0  0  0  0  0  0  0
    8.3176    1.4525   -0.1522 C   0  0  0  0  0  0  0  0  0  0  0  0
    9.6596    1.0959   -0.8091 C   0  0  0  0  0  0  0  0  0  0  0  0
   11.0754    1.2116   -2.8925 C   0  0  0  0  0  0  0  0  0  0  0  0
   10.6978    0.0622   -3.7253 N   0  3  0  0  0  0  0  0  0  0  0  0
    7.2940    5.9086   -2.9737 C   0  0  1  0  0  0  0  0  0  0  0  0
    6.4551    6.9438   -3.7618 C   0  0  0  0  0  0  0  0  0  0  0  0
    5.0616    7.1288   -3.1032 C   0  0  1  0  0  0  0  0  0  0  0  0
    4.3031    8.1735   -3.8175 N   0  3  0  0  0  0  0  0  0  0  0  0
    4.2963    5.7742   -3.0719 C   0  0  1  0  0  0  0  0  0  0  0  0
    5.1292    4.6633   -2.3848 C   0  0  1  0  0  0  0  0  0  0  0  0
    4.4142    3.4499   -2.5652 O   0  0  0  0  0  0  0  0  0  0  0  0
    6.5887    4.5134   -2.9278 C   0  0  2  0  0  0  0  0  0  0  0  0
    8.6493    5.8161   -3.5445 N   0  3  0  0  0  0  0  0  0  0  0  0
    0.4903    4.2574   -2.1413 C   0  0  0  0  0  0  0  0  0  0  0  0
   -0.5698    5.2118   -1.5388 C   0  0  2  0  0  0  0  0  0  0  0  0
   -1.6097    5.3440   -2.5069 O   0  0  0  0  0  0  0  0  0  0  0  0
    0.0942    6.6071   -1.2332 C   0  0  1  0  0  0  0  0  0  0  0  0
    0.9284    7.1619   -2.4375 C   0  0  2  0  0  0  0  0  0  0  0  0
    1.8418    6.0983   -3.0981 C   0  0  1  0  0  0  0  0  0  0  0  0
    3.0541    5.9047   -2.3231 O   0  0  0  0  0  0  0  0  0  0  0  0
    1.1240    4.8493   -3.3066 O   0  0  0  0  0  0  0  0  0  0  0  0
    1.7270    8.2766   -2.0489 O   0  0  0  0  0  0  0  0  0  0  0  0
   -0.9576    7.5888   -0.8229 N   0  3  0  0  0  0  0  0  0  0  0  0
   -0.5043    8.7943   -0.0995 C   0  0  0  0  0  0  0  0  0  0  0  0
   -1.1878    4.5390   -0.2884 C   0  0  0  0  0  0  0  0  0  0  0  0
  1  8  1  0  0  0  0
  1  9  1  6  0  0  0
  1  2  1  0  0  0  0
  2  3  1  0  0  0  0
  3  5  1  0  0  0  0
  3  4  1  1  0  0  0
  5  7  1  0  0  0  0
  5  6  1  1  0  0  0
  7  8  1  0  0  0  0
  9 10  1  0  0  0  0
 11 12  1  0  0  0  0
 11 18  1  0  0  0  0
 11 19  1  6  0  0  0
 12 13  1  0  0  0  0
 13 15  1  0  0  0  0
 13 14  1  6  0  0  0
 15 16  1  0  0  0  0
 15 26  1  1  0  0  0
 16 18  1  0  0  0  0
 16 17  1  6  0  0  0
 18  4  1  1  0  0  0
 20 21  1  0  0  0  0
 20 27  1  0  0  0  0
 21 31  1  1  0  0  0
 21 23  1  0  0  0  0
 21 22  1  0  0  0  0
 23 24  1  0  0  0  0
 23 29  1  6  0  0  0
 24 25  1  0  0  0  0
 24 28  1  1  0  0  0
 25 27  1  0  0  0  0
 25 26  1  1  0  0  0
 29 30  1  0  0  0  0
M  CHG  5   6   1  10   1  14   1  19   1  29   1
M  END
>  <CHROM.1>
-36.90450404,105.83096275,-146.44824525,-96.25007083,38.35043416,50.99786931
175.71964108,98.63828887,65.83280591,62.63207966,-77.72953435,52.34062771
-138.30251677,4.58514267,4.62375370,-2.23661275,0.42381241,-0.23565133,2.79563288

>  <Name>
1byj cryst

>  <RI>
0

>  <Rbt.Current_Directory>
/home/itssahil/PROJECTS/Mol_Feturizer/New_Systems/rnas/1byj

>  <Rbt.Executable>
rbdock ($Id: //depot/dev/client3/rdock/2013.1/src/exe/rbdock.cxx#4 $)

>  <Rbt.Library>
libRbt.so (2013.1, Build901 2013/11/27)

>  <Rbt.Parameter_File>
/export/apps/rDock/src/rDock_2013.1_src/data/scripts/dock_solv.prm

>  <Rbt.Receptor>
prm/pocket_docking_2.prm

>  <SCORE>
-49.7498

>  <SCORE.INTER>
-46.378

>  <SCORE.INTER.CONST>
1

>  <SCORE.INTER.POLAR>
-5.39069

>  <SCORE.INTER.ROT>
6

>  <SCORE.INTER.SOLV>
28.2881

>  <SCORE.INTER.VDW>
-29.979

>  <SCORE.INTER.norm>
-1.49606

>  <SCORE.INTRA>
-3.37613

>  <SCORE.INTRA.DIHEDRAL>
9.8223

>  <SCORE.INTRA.DIHEDRAL.0>
18.4149

>  <SCORE.INTRA.POLAR>
-2.12722

>  <SCORE.INTRA.POLAR.0>
0

>  <SCORE.INTRA.REPUL>
-0.092687

>  <SCORE.INTRA.REPUL.0>
0.092687

>  <SCORE.INTRA.SOLV>
1.40761

>  <SCORE.INTRA.SOLV.lig_0>
-120.37

>  <SCORE.INTRA.VDW>
-1.2951

>  <SCORE.INTRA.VDW.0>
-1.75542

>  <SCORE.INTRA.norm>
-0.108907

>  <SCORE.RESTR>
0.00426132

>  <SCORE.RESTR.CAVITY>
0.00426132

>  <SCORE.RESTR.norm>
0.000137462

>  <SCORE.SYSTEM>
0

>  <SCORE.SYSTEM.CONST>
0

>  <SCORE.SYSTEM.DIHEDRAL>
0

>  <SCORE.SYSTEM.SOLV>
0

>  <SCORE.SYSTEM.norm>
0

>  <SCORE.heavy>
31

>  <SCORE.norm>
-1.60483

>  <RMSD>
1.468

$$$$
1byj cryst
 OpenBabel11021811383D
libRbt.so/2013.1/901 2013/11/27
 31 33  0  0  0  0  0  0  0  0999 V2000
    9.9746    1.8728   -2.1515 C   0  0  1  0  0  0  0  0  0  0  0  0
    8.7009    1.7830   -2.8669 O   0  0  0  0  0  0  0  0  0  0  0  0
    7.4820    2.1968   -2.1802 C   0  0  2  0  0  0  0  0  0  0  0  0
    7.4663    3.6399   -1.9481 O   0  0  0  0  0  0  0  0  0  0  0  0
    7.3552    1.4130   -0.8385 C   0  0  2  0  0  0  0  0  0  0  0  0
    6.1458    1.7668   -0.0696 N   0  3  0  0  0  0  0  0  0  0  0  0
    8.6256    1.6262    0.0244 C   0  0  0  0  0  0  0  0  0  0  0  0
    9.8904    1.2173   -0.7454 C   0  0  0  0  0  0  0  0  0  0  0  0
   11.0722    1.1732   -2.9725 C   0  0  0  0  0  0  0  0  0  0  0  0
   10.9239    1.3386   -4.4244 N   0  3  0  0  0  0  0  0  0  0  0  0
    7.3417    5.8996   -2.9222 C   0  0  1  0  0  0  0  0  0  0  0  0
    6.4864    6.8841   -3.7563 C   0  0  0  0  0  0  0  0  0  0  0  0
    5.0813    7.0576   -3.1197 C   0  0  1  0  0  0  0  0  0  0  0  0
    4.3054    8.0562   -3.8796 N   0  3  0  0  0  0  0  0  0  0  0  0
    4.3496    5.6861   -3.0472 C   0  0  1  0  0  0  0  0  0  0  0  0
    5.2020    4.6221   -2.3113 C   0  0  1  0  0  0  0  0  0  0  0  0
    4.5195    3.3853   -2.4550 O   0  0  0  0  0  0  0  0  0  0  0  0
    6.6708    4.4896   -2.8330 C   0  0  2  0  0  0  0  0  0  0  0  0
    8.7054    5.8209   -3.4748 N   0  3  0  0  0  0  0  0  0  0  0  0
    0.5166    4.1875   -2.1525 C   0  0  0  0  0  0  0  0  0  0  0  0
   -0.5432    5.1562   -1.5731 C   0  0  2  0  0  0  0  0  0  0  0  0
   -1.5695    5.2874   -2.5558 O   0  0  0  0  0  0  0  0  0  0  0  0
    0.1282    6.5491   -1.2723 C   0  0  1  0  0  0  0  0  0  0  0  0
    0.9825    7.0854   -2.4710 C   0  0  2  0  0  0  0  0  0  0  0  0
    1.8955    6.0080   -3.1093 C   0  0  1  0  0  0  0  0  0  0  0  0
    3.0961    5.8120   -2.3169 O   0  0  0  0  0  0  0  0  0  0  0  0
    1.1702    4.7628   -3.3151 O   0  0  0  0  0  0  0  0  0  0  0  0
    1.7851    8.1973   -2.0828 O   0  0  0  0  0  0  0  0  0  0  0  0
   -0.9206    7.5432   -0.8852 N   0  3  0  0  0  0  0  0  0  0  0  0
   -0.4752    8.7230   -0.1161 C   0  0  0  0  0  0  0  0  0  0  0  0
   -1.1829    4.5008   -0.3244 C   0  0  0  0  0  0  0  0  0  0  0  0
  1  8  1  0  0  0  0
  1  9  1  6  0  0  0
  1  2  1  0  0  0  0
  2  3  1  0  0  0  0
  3  5  1  0  0  0  0
  3  4  1  1  0  0  0
  5  7  1  0  0  0  0
  5  6  1  1  0  0  0
  7  8  1  0  0  0  0
  9 10  1  0  0  0  0
 11 12  1  0  0  0  0
 11 18  1  0  0  0  0
 11 19  1  6  0  0  0
 12 13  1  0  0  0  0
 13 15  1  0  0  0  0
 13 14  1  6  0  0  0
 15 16  1  0  0  0  0
 15 26  1  1  0  0  0
 16 18  1  0  0  0  0
 16 17  1  6  0  0  0
 18  4  1  1  0  0  0
 20 21  1  0  0  0  0
 20 27  1  0  0  0  0
 21 31  1  1  0  0  0
 21 23  1  0  0  0  0
 21 22  1  0  0  0  0
 23 24  1  0  0  0  0
 23 29  1  6  0  0  0
 24 25  1  0  0  0  0
 24 28  1  1  0  0  0
 25 27  1  0  0  0  0
 25 26  1  1  0  0  0
 29 30  1  0  0  0  0
M  CHG  5   6   1  10   1  14   1  19   1  29   1
M  END
>  <CHROM.1>
35.96464845,101.22054226,-150.32537759,-170.27857753,-162.24160957,55.36806741
51.80824777,95.91753276,-175.11456248,61.58473264,-80.32909620,-74.63107507
-137.33167234,4.66297749,4.65006162,-2.21523646,0.37347519,-0.24877251,2.71525980

>  <Name>
1byj cryst

>  <RI>
0

>  <Rbt.Current_Directory>
/home/itssahil/PROJECTS/Mol_Feturizer/New_Systems/rnas/1byj

>  <Rbt.Executable>
rbdock ($Id: //depot/dev/client3/rdock/2013.1/src/exe/rbdock.cxx#4 $)

>  <Rbt.Library>
libRbt.so (2013.1, Build901 2013/11/27)

>  <Rbt.Parameter_File>
/export/apps/rDock/src/rDock_2013.1_src/data/scripts/dock_solv.prm

>  <Rbt.Receptor>
prm/pocket_docking_2.prm

>  <SCORE>
-51.1766

>  <SCORE.INTER>
-49.8328

>  <SCORE.INTER.CONST>
1

>  <SCORE.INTER.POLAR>
-5.95149

>  <SCORE.INTER.ROT>
6

>  <SCORE.INTER.SOLV>
24.6405

>  <SCORE.INTER.VDW>
-29.1971

>  <SCORE.INTER.norm>
-1.60751

>  <SCORE.INTRA>
-1.67293

>  <SCORE.INTRA.DIHEDRAL>
6.62639

>  <SCORE.INTRA.DIHEDRAL.0>
18.4149

>  <SCORE.INTRA.POLAR>
-1.28554

>  <SCORE.INTRA.POLAR.0>
0

>  <SCORE.INTRA.REPUL>
-0.092687

>  <SCORE.INTRA.REPUL.0>
0.092687

>  <SCORE.INTRA.SOLV>
0.894028

>  <SCORE.INTRA.SOLV.lig_0>
-120.37

>  <SCORE.INTRA.VDW>
-0.598868

>  <SCORE.INTRA.VDW.0>
-1.75542

>  <SCORE.INTRA.norm>
-0.0539655

>  <SCORE.RESTR>
0.329213

>  <SCORE.RESTR.CAVITY>
0.329213

>  <SCORE.RESTR.norm>
0.0106198

>  <SCORE.SYSTEM>
0

>  <SCORE.SYSTEM.CONST>
0

>  <SCORE.SYSTEM.DIHEDRAL>
0

>  <SCORE.SYSTEM.SOLV>
0

>  <SCORE.SYSTEM.norm>
0

>  <SCORE.heavy>
31

>  <SCORE.norm>
-1.65086

>  <RMSD>
1.479

$$$$
1byj cryst
 OpenBabel11021811383D
libRbt.so/2013.1/901 2013/11/27
 31 33  0  0  0  0  0  0  0  0999 V2000
   10.0099    2.0036   -1.9717 C   0  0  1  0  0  0  0  0  0  0  0  0
    8.6975    1.7557   -2.5702 O   0  0  0  0  0  0  0  0  0  0  0  0
    7.5047    2.1558   -1.8314 C   0  0  2  0  0  0  0  0  0  0  0  0
    7.3986    3.6109   -1.7410 O   0  0  0  0  0  0  0  0  0  0  0  0
    7.5353    1.5079   -0.4137 C   0  0  2  0  0  0  0  0  0  0  0  0
    6.3625    1.8576    0.4117 N   0  3  0  0  0  0  0  0  0  0  0  0
    8.8461    1.8933    0.3192 C   0  0  0  0  0  0  0  0  0  0  0  0
   10.0781    1.4925   -0.5061 C   0  0  0  0  0  0  0  0  0  0  0  0
   11.0935    1.2979   -2.8061 C   0  0  0  0  0  0  0  0  0  0  0  0
   10.6228    0.0837   -3.4854 N   0  3  0  0  0  0  0  0  0  0  0  0
    7.1733    5.7265   -2.9835 C   0  0  1  0  0  0  0  0  0  0  0  0
    6.2646    6.5728   -3.9079 C   0  0  0  0  0  0  0  0  0  0  0  0
    4.8709    6.7818   -3.2568 C   0  0  1  0  0  0  0  0  0  0  0  0
    4.0429    7.6538   -4.1116 N   0  3  0  0  0  0  0  0  0  0  0  0
    4.1879    5.4085   -2.9935 C   0  0  1  0  0  0  0  0  0  0  0  0
    5.0940    4.4710   -2.1567 C   0  0  1  0  0  0  0  0  0  0  0  0
    4.4501    3.2058   -2.1260 O   0  0  0  0  0  0  0  0  0  0  0  0
    6.5528    4.3190   -2.7007 C   0  0  2  0  0  0  0  0  0  0  0  0
    8.5245    5.6207   -3.5618 N   0  3  0  0  0  0  0  0  0  0  0  0
    0.3414    4.0286   -1.9502 C   0  0  0  0  0  0  0  0  0  0  0  0
   -0.6871    5.0491   -1.4039 C   0  0  2  0  0  0  0  0  0  0  0  0
   -1.7293    5.1502   -2.3732 O   0  0  0  0  0  0  0  0  0  0  0  0
    0.0184    6.4413   -1.1901 C   0  0  1  0  0  0  0  0  0  0  0  0
    0.8599    6.8950   -2.4310 C   0  0  2  0  0  0  0  0  0  0  0  0
    1.7383    5.7661   -3.0277 C   0  0  1  0  0  0  0  0  0  0  0  0
    2.9497    5.5866   -2.2481 O   0  0  0  0  0  0  0  0  0  0  0  0
    0.9838    4.5276   -3.1536 O   0  0  0  0  0  0  0  0  0  0  0  0
    1.6925    8.0084   -2.1174 O   0  0  0  0  0  0  0  0  0  0  0  0
   -1.0022    7.4767   -0.8373 N   0  3  0  0  0  0  0  0  0  0  0  0
   -0.5300    8.6528   -0.0785 C   0  0  0  0  0  0  0  0  0  0  0  0
   -1.3156    4.4744   -0.1105 C   0  0  0  0  0  0  0  0  0  0  0  0
  1  8  1  0  0  0  0
  1  9  1  6  0  0  0
  1  2  1  0  0  0  0
  2  3  1  0  0  0  0
  3  5  1  0  0  0  0
  3  4  1  1  0  0  0
  5  7  1  0  0  0  0
  5  6  1  1  0  0  0
  7  8  1  0  0  0  0
  9 10  1  0  0  0  0
 11 12  1  0  0  0  0
 11 18  1  0  0  0  0
 11 19  1  6  0  0  0
 12 13  1  0  0  0  0
 13 15  1  0  0  0  0
 13 14  1  6  0  0  0
 15 16  1  0  0  0  0
 15 26  1  1  0  0  0
 16 18  1  0  0  0  0
 16 17  1  6  0  0  0
 18  4  1  1  0  0  0
 20 21  1  0  0  0  0
 20 27  1  0  0  0  0
 21 31  1  1  0  0  0
 21 23  1  0  0  0  0
 21 22  1  0  0  0  0
 23 24  1  0  0  0  0
 23 29  1  6  0  0  0
 24 25  1  0  0  0  0
 24 28  1  1  0  0  0
 25 27  1  0  0  0  0
 25 26  1  1  0  0  0
 29 30  1  0  0  0  0
M  CHG  5   6   1  10   1  14   1  19   1  29   1
M  END
>  <CHROM.1>
-29.52719258,96.86870251,-147.56718338,69.71534915,49.92186230,-64.54476846
-169.95021109,90.55341465,64.44699604,-54.73802664,-83.42658435,-69.92756710
-136.74805585,4.57892048,4.50511325,-2.05896377,0.36429056,-0.25410245,2.62606380

>  <Name>
1byj cryst

>  <RI>
0

>  <Rbt.Current_Directory>
/home/itssahil/PROJECTS/Mol_Feturizer/New_Systems/rnas/1byj

>  <Rbt.Executable>
rbdock ($Id: //depot/dev/client3/rdock/2013.1/src/exe/rbdock.cxx#4 $)

>  <Rbt.Library>
libRbt.so (2013.1, Build901 2013/11/27)

>  <Rbt.Parameter_File>
/export/apps/rDock/src/rDock_2013.1_src/data/scripts/dock_solv.prm

>  <Rbt.Receptor>
prm/pocket_docking_2.prm

>  <SCORE>
-36.4418

>  <SCORE.INTER>
-33.5259

>  <SCORE.INTER.CONST>
1

>  <SCORE.INTER.POLAR>
-3.24041

>  <SCORE.INTER.ROT>
6

>  <SCORE.INTER.SOLV>
28.5467

>  <SCORE.INTER.VDW>
-28.6648

>  <SCORE.INTER.norm>
-1.08148

>  <SCORE.INTRA>
-2.91591

>  <SCORE.INTRA.DIHEDRAL>
5.84223

>  <SCORE.INTRA.DIHEDRAL.0>
18.4149

>  <SCORE.INTRA.POLAR>
-1.20267

>  <SCORE.INTRA.POLAR.0>
0

>  <SCORE.INTRA.REPUL>
-0.092687

>  <SCORE.INTRA.REPUL.0>
0.092687

>  <SCORE.INTRA.SOLV>
1.13459

>  <SCORE.INTRA.SOLV.lig_0>
-120.37

>  <SCORE.INTRA.VDW>
-1.85182

>  <SCORE.INTRA.VDW.0>
-1.75542

>  <SCORE.INTRA.norm>
-0.0940615

>  <SCORE.RESTR>
0

>  <SCORE.RESTR.CAVITY>
0

>  <SCORE.RESTR.norm>
0

>  <SCORE.SYSTEM>
0

>  <SCORE.SYSTEM.CONST>
0

>  <SCORE.SYSTEM.DIHEDRAL>
0

>  <SCORE.SYSTEM.SOLV>
0

>  <SCORE.SYSTEM.norm>
0

>  <SCORE.heavy>
31

>  <SCORE.norm>
-1.17554

>  <RMSD>
1.490

$$$$
1byj cryst
 OpenBabel11021811383D
libRbt.so/2013.1/901 2013/11/27
 31 33  0  0  0  0  0  0  0  0999 V2000
    9.1779    2.1948   -3.2339 C   0  0  1  0  0  0  0  0  0  0  0  0
    7.7746    2.5074   -3.5081 O   0  0  0  0  0  0  0  0  0  0  0  0
    7.0679    3.4061   -2.6017 C   0  0  2  0  0  0  0  0  0  0  0  0
    7.5861    4.7698   -2.6941 O   0  0  0  0  0  0  0  0  0  0  0  0
    7.1809    2.8622   -1.1450 C   0  0  2  0  0  0  0  0  0  0  0  0
    6.4927    3.7101   -0.1518 N   0  3  0  0  0  0  0  0  0  0  0  0
    8.6715    2.6797   -0.7593 C   0  0  0  0  0  0  0  0  0  0  0  0
    9.3911    1.7604   -1.7576 C   0  0  0  0  0  0  0  0  0  0  0  0
    9.6411    1.0629   -4.1679 C   0  0  0  0  0  0  0  0  0  0  0  0
   11.0637    1.1334   -4.5261 N   0  3  0  0  0  0  0  0  0  0  0  0
    7.6117    7.1182   -3.4390 C   0  0  1  0  0  0  0  0  0  0  0  0
    6.8135    8.2422   -4.1432 C   0  0  0  0  0  0  0  0  0  0  0  0
    5.4440    8.4563   -3.4441 C   0  0  1  0  0  0  0  0  0  0  0  0
    4.7280    9.5810   -4.0759 N   0  3  0  0  0  0  0  0  0  0  0  0
    4.6098    7.1431   -3.4798 C   0  0  1  0  0  0  0  0  0  0  0  0
    5.3962    5.9502   -2.8809 C   0  0  1  0  0  0  0  0  0  0  0  0
    4.6156    4.7886   -3.1203 O   0  0  0  0  0  0  0  0  0  0  0  0
    6.8355    5.7606   -3.4640 C   0  0  2  0  0  0  0  0  0  0  0  0
    8.9495    6.9928   -4.0439 N   0  3  0  0  0  0  0  0  0  0  0  0
    1.8492    5.0358   -1.3315 C   0  0  0  0  0  0  0  0  0  0  0  0
    0.4845    5.6515   -0.9363 C   0  0  2  0  0  0  0  0  0  0  0  0
   -0.5219    4.9126   -1.6273 O   0  0  0  0  0  0  0  0  0  0  0  0
    0.4536    7.1699   -1.3545 C   0  0  1  0  0  0  0  0  0  0  0  0
    0.9243    7.4055   -2.8299 C   0  0  2  0  0  0  0  0  0  0  0  0
    2.2062    6.6181   -3.2023 C   0  0  1  0  0  0  0  0  0  0  0  0
    3.3903    7.2894   -2.6975 O   0  0  0  0  0  0  0  0  0  0  0  0
    2.1249    5.2392   -2.7431 O   0  0  0  0  0  0  0  0  0  0  0  0
    1.1416    8.7892   -3.0932 O   0  0  0  0  0  0  0  0  0  0  0  0
   -0.9197    7.7248   -1.1435 N   0  3  0  0  0  0  0  0  0  0  0  0
   -1.0882    8.6991   -0.0461 C   0  0  0  0  0  0  0  0  0  0  0  0
    0.2608    5.4275    0.5795 C   0  0  0  0  0  0  0  0  0  0  0  0
  1  8  1  0  0  0  0
  1  9  1  6  0  0  0
  1  2  1  0  0  0  0
  2  3  1  0  0  0  0
  3  5  1  0  0  0  0
  3  4  1  1  0  0  0
  5  7  1  0  0  0  0
  5  6  1  1  0  0  0
  7  8  1  0  0  0  0
  9 10  1  0  0  0  0
 11 12  1  0  0  0  0
 11 18  1  0  0  0  0
 11 19  1  6  0  0  0
 12 13  1  0  0  0  0
 13 15  1  0  0  0  0
 13 14  1  6  0  0  0
 15 16  1  0  0  0  0
 15 26  1  1  0  0  0
 16 18  1  0  0  0  0
 16 17  1  6  0  0  0
 18  4  1  1  0  0  0
 20 21  1  0  0  0  0
 20 27  1  0  0  0  0
 21 31  1  1  0  0  0
 21 23  1  0  0  0  0
 21 22  1  0  0  0  0
 23 24  1  0  0  0  0
 23 29  1  6  0  0  0
 24 25  1  0  0  0  0
 24 28  1  1  0  0  0
 25 27  1  0  0  0  0
 25 26  1  1  0  0  0
 29 30  1  0  0  0  0
M  CHG  5   6   1  10   1  14   1  19   1  29   1
M  END
>  <CHROM.1>
148.87482710,101.54023725,-178.55751599,-177.84866980,69.88860305,-178.74607124
-171.40093588,144.09377175,-58.78500966,171.66552940,-128.88699429,-175.99812391
-148.63170004,4.80241838,5.49815317,-2.49795583,0.35329059,-0.34563727,2.72908561

>  <Name>
1byj cryst

>  <RI>
0

>  <Rbt.Current_Directory>
/home/itssahil/PROJECTS/Mol_Feturizer/New_Systems/rnas/1byj

>  <Rbt.Executable>
rbdock ($Id: //depot/dev/client3/rdock/2013.1/src/exe/rbdock.cxx#4 $)

>  <Rbt.Library>
libRbt.so (2013.1, Build901 2013/11/27)

>  <Rbt.Parameter_File>
/export/apps/rDock/src/rDock_2013.1_src/data/scripts/dock_solv.prm

>  <Rbt.Receptor>
prm/pocket_docking_2.prm

>  <SCORE>
-48.0634

>  <SCORE.INTER>
-48.8249

>  <SCORE.INTER.CONST>
1

>  <SCORE.INTER.POLAR>
-6.9348

>  <SCORE.INTER.ROT>
6

>  <SCORE.INTER.SOLV>
27.848

>  <SCORE.INTER.VDW>
-26.3166

>  <SCORE.INTER.norm>
-1.575

>  <SCORE.INTRA>
-0.958588

>  <SCORE.INTRA.DIHEDRAL>
2.97294

>  <SCORE.INTRA.DIHEDRAL.0>
18.4149

>  <SCORE.INTRA.POLAR>
-0.644542

>  <SCORE.INTRA.POLAR.0>
0

>  <SCORE.INTRA.REPUL>
-0.092687

>  <SCORE.INTRA.REPUL.0>
0.092687

>  <SCORE.INTRA.SOLV>
-2.21779

>  <SCORE.INTRA.SOLV.lig_0>
-120.37

>  <SCORE.INTRA.VDW>
1.31872

>  <SCORE.INTRA.VDW.0>
-1.75542

>  <SCORE.INTRA.norm>
-0.0309222

>  <SCORE.RESTR>
1.72018

>  <SCORE.RESTR.CAVITY>
1.72018

>  <SCORE.RESTR.norm>
0.0554897

>  <SCORE.SYSTEM>
0

>  <SCORE.SYSTEM.CONST>
0

>  <SCORE.SYSTEM.DIHEDRAL>
0

>  <SCORE.SYSTEM.SOLV>
0

>  <SCORE.SYSTEM.norm>
0

>  <SCORE.heavy>
31

>  <SCORE.norm>
-1.55043

>  <RMSD>
1.493

$$$$
1byj cryst
 OpenBabel11021811383D
libRbt.so/2013.1/901 2013/11/27
 31 33  0  0  0  0  0  0  0  0999 V2000
    9.8890    1.8135   -2.2169 C   0  0  1  0  0  0  0  0  0  0  0  0
    8.6784    1.7998   -3.0394 O   0  0  0  0  0  0  0  0  0  0  0  0
    7.4193    2.2267   -2.4386 C   0  0  2  0  0  0  0  0  0  0  0  0
    7.4298    3.6582   -2.1429 O   0  0  0  0  0  0  0  0  0  0  0  0
    7.1542    1.3912   -1.1494 C   0  0  2  0  0  0  0  0  0  0  0  0
    5.8957    1.7543   -0.4687 N   0  3  0  0  0  0  0  0  0  0  0  0
    8.3529    1.5219   -0.1747 C   0  0  0  0  0  0  0  0  0  0  0  0
    9.6649    1.1017   -0.8542 C   0  0  0  0  0  0  0  0  0  0  0  0
   11.0295    1.1113   -2.9747 C   0  0  0  0  0  0  0  0  0  0  0  0
   10.9946    1.3218   -4.4279 N   0  3  0  0  0  0  0  0  0  0  0  0
    7.3203    5.9648   -3.0022 C   0  0  1  0  0  0  0  0  0  0  0  0
    6.4686    6.9977   -3.7795 C   0  0  0  0  0  0  0  0  0  0  0  0
    5.0700    7.1525   -3.1240 C   0  0  1  0  0  0  0  0  0  0  0  0
    4.2983    8.1951   -3.8271 N   0  3  0  0  0  0  0  0  0  0  0  0
    4.3254    5.7860   -3.1141 C   0  0  1  0  0  0  0  0  0  0  0  0
    5.1726    4.6787   -2.4388 C   0  0  1  0  0  0  0  0  0  0  0  0
    4.4770    3.4571   -2.6385 O   0  0  0  0  0  0  0  0  0  0  0  0
    6.6362    4.5585   -2.9781 C   0  0  2  0  0  0  0  0  0  0  0  0
    8.6790    5.9008   -3.5688 N   0  3  0  0  0  0  0  0  0  0  0  0
    0.5388    4.2034   -2.1846 C   0  0  0  0  0  0  0  0  0  0  0  0
   -0.5362    5.1445   -1.5877 C   0  0  2  0  0  0  0  0  0  0  0  0
   -1.5763    5.2578   -2.5580 O   0  0  0  0  0  0  0  0  0  0  0  0
    0.1069    6.5506   -1.2863 C   0  0  1  0  0  0  0  0  0  0  0  0
    0.9350    7.1129   -2.4914 C   0  0  2  0  0  0  0  0  0  0  0  0
    1.8649    6.0603   -3.1463 C   0  0  1  0  0  0  0  0  0  0  0  0
    3.0786    5.8873   -2.3685 O   0  0  0  0  0  0  0  0  0  0  0  0
    1.1658    4.8001   -3.3512 O   0  0  0  0  0  0  0  0  0  0  0  0
    1.7165    8.2407   -2.1058 O   0  0  0  0  0  0  0  0  0  0  0  0
   -0.9599    7.5184   -0.8816 N   0  3  0  0  0  0  0  0  0  0  0  0
   -0.5301    8.7136   -0.1274 C   0  0  0  0  0  0  0  0  0  0  0  0
   -1.1465    4.4677   -0.3357 C   0  0  0  0  0  0  0  0  0  0  0  0
  1  8  1  0  0  0  0
  1  9  1  6  0  0  0
  1  2  1  0  0  0  0
  2  3  1  0  0  0  0
  3  5  1  0  0  0  0
  3  4  1  1  0  0  0
  5  7  1  0  0  0  0
  5  6  1  1  0  0  0
  7  8  1  0  0  0  0
  9 10  1  0  0  0  0
 11 12  1  0  0  0  0
 11 18  1  0  0  0  0
 11 19  1  6  0  0  0
 12 13  1  0  0  0  0
 13 15  1  0  0  0  0
 13 14  1  6  0  0  0
 15 16  1  0  0  0  0
 15 26  1  1  0  0  0
 16 18  1  0  0  0  0
 16 17  1  6  0  0  0
 18  4  1  1  0  0  0
 20 21  1  0  0  0  0
 20 27  1  0  0  0  0
 21 31  1  1  0  0  0
 21 23  1  0  0  0  0
 21 22  1  0  0  0  0
 23 24  1  0  0  0  0
 23 29  1  6  0  0  0
 24 25  1  0  0  0  0
 24 28  1  1  0  0  0
 25 27  1  0  0  0  0
 25 26  1  1  0  0  0
 29 30  1  0  0  0  0
M  CHG  5   6   1  10   1  14   1  19   1  29   1
M  END
>  <CHROM.1>
34.79667183,106.93383193,-150.91381016,147.95730463,-44.49710621,-65.40386569
174.82770980,99.20455349,61.07190321,64.28007396,-79.47481963,-69.04325816
-137.68597199,4.61189377,4.67131729,-2.30330222,0.38400716,-0.24676549,2.76439573

>  <Name>
1byj cryst

>  <RI>
0

>  <Rbt.Current_Directory>
/home/itssahil/PROJECTS/Mol_Feturizer/New_Systems/rnas/1byj

>  <Rbt.Executable>
rbdock ($Id: //depot/dev/client3/rdock/2013.1/src/exe/rbdock.cxx#4 $)

>  <Rbt.Library>
libRbt.so (2013.1, Build901 2013/11/27)

>  <Rbt.Parameter_File>
/export/apps/rDock/src/rDock_2013.1_src/data/scripts/dock_solv.prm

>  <Rbt.Receptor>
prm/pocket_docking_2.prm

>  <SCORE>
-54.965

>  <SCORE.INTER>
-51.1198

>  <SCORE.INTER.CONST>
1

>  <SCORE.INTER.POLAR>
-6.02931

>  <SCORE.INTER.ROT>
6

>  <SCORE.INTER.SOLV>
25.1497

>  <SCORE.INTER.VDW>
-29.9654

>  <SCORE.INTER.norm>
-1.64902

>  <SCORE.INTRA>
-4.21856

>  <SCORE.INTRA.DIHEDRAL>
8.81121

>  <SCORE.INTRA.DIHEDRAL.0>
18.4149

>  <SCORE.INTRA.POLAR>
-2.42989

>  <SCORE.INTRA.POLAR.0>
0

>  <SCORE.INTRA.REPUL>
-0.092687

>  <SCORE.INTRA.REPUL.0>
0.092687

>  <SCORE.INTRA.SOLV>
0.723822

>  <SCORE.INTRA.SOLV.lig_0>
-120.37

>  <SCORE.INTRA.VDW>
-0.261014

>  <SCORE.INTRA.VDW.0>
-1.75542

>  <SCORE.INTRA.norm>
-0.136083

>  <SCORE.RESTR>
0.373333

>  <SCORE.RESTR.CAVITY>
0.373333

>  <SCORE.RESTR.norm>
0.012043

>  <SCORE.SYSTEM>
0

>  <SCORE.SYSTEM.CONST>
0

>  <SCORE.SYSTEM.DIHEDRAL>
0

>  <SCORE.SYSTEM.SOLV>
0

>  <SCORE.SYSTEM.norm>
0

>  <SCORE.heavy>
31

>  <SCORE.norm>
-1.77306

>  <RMSD>
1.498

$$$$
1byj cryst
 OpenBabel11021811383D
libRbt.so/2013.1/901 2013/11/27
 31 33  0  0  0  0  0  0  0  0999 V2000
    9.3096    1.8928   -2.7914 C   0  0  1  0  0  0  0  0  0  0  0  0
    7.8662    1.7495   -2.5965 O   0  0  0  0  0  0  0  0  0  0  0  0
    7.2578    2.3435   -1.4109 C   0  0  2  0  0  0  0  0  0  0  0  0
    7.2961    3.8036   -1.4686 O   0  0  0  0  0  0  0  0  0  0  0  0
    7.9864    1.8147   -0.1381 C   0  0  2  0  0  0  0  0  0  0  0  0
    7.4374    2.3635    1.1174 N   0  3  0  0  0  0  0  0  0  0  0  0
    9.5063    2.1052   -0.2358 C   0  0  0  0  0  0  0  0  0  0  0  0
   10.1029    1.4989   -1.5149 C   0  0  0  0  0  0  0  0  0  0  0  0
    9.7580    1.0010   -3.9627 C   0  0  0  0  0  0  0  0  0  0  0  0
   11.1303    1.2624   -4.4164 N   0  3  0  0  0  0  0  0  0  0  0  0
    7.2292    5.8196   -2.8835 C   0  0  1  0  0  0  0  0  0  0  0  0
    6.3851    6.6529   -3.8782 C   0  0  0  0  0  0  0  0  0  0  0  0
    5.0132    7.0208   -3.2518 C   0  0  1  0  0  0  0  0  0  0  0  0
    4.2516    7.8793   -4.1790 N   0  3  0  0  0  0  0  0  0  0  0  0
    4.2283    5.7303   -2.8777 C   0  0  1  0  0  0  0  0  0  0  0  0
    5.0626    4.7993   -1.9625 C   0  0  1  0  0  0  0  0  0  0  0  0
    4.3243    3.5938   -1.8291 O   0  0  0  0  0  0  0  0  0  0  0  0
    6.5041    4.4919   -2.4869 C   0  0  2  0  0  0  0  0  0  0  0  0
    8.5668    5.5635   -3.4462 N   0  3  0  0  0  0  0  0  0  0  0  0
    0.4869    4.3452   -2.0881 C   0  0  0  0  0  0  0  0  0  0  0  0
   -0.6110    5.2497   -1.4765 C   0  0  2  0  0  0  0  0  0  0  0  0
   -1.6329    5.3895   -2.4626 O   0  0  0  0  0  0  0  0  0  0  0  0
    0.0089    6.6499   -1.1071 C   0  0  1  0  0  0  0  0  0  0  0  0
    0.8539    7.2688   -2.2720 C   0  0  2  0  0  0  0  0  0  0  0  0
    1.8094    6.2534   -2.9488 C   0  0  1  0  0  0  0  0  0  0  0  0
    3.0093    6.0636   -2.1540 O   0  0  0  0  0  0  0  0  0  0  0  0
    1.1297    4.9946   -3.2173 O   0  0  0  0  0  0  0  0  0  0  0  0
    1.6139    8.3891   -1.8266 O   0  0  0  0  0  0  0  0  0  0  0  0
   -1.0773    7.5888   -0.6863 N   0  3  0  0  0  0  0  0  0  0  0  0
   -0.6673    8.8016    0.0506 C   0  0  0  0  0  0  0  0  0  0  0  0
   -1.2378    4.5169   -0.2648 C   0  0  0  0  0  0  0  0  0  0  0  0
  1  8  1  0  0  0  0
  1  9  1  6  0  0  0
  1  2  1  0  0  0  0
  2  3  1  0  0  0  0
  3  5  1  0  0  0  0
  3  4  1  6  0  0  0
  5  7  1  0  0  0  0
  5  6  1  1  0  0  0
  7  8  1  0  0  0  0
  9 10  1  0  0  0  0
 11 12  1  0  0  0  0
 11 18  1  0  0  0  0
 11 19  1  6  0  0  0
 12 13  1  0  0  0  0
 13 15  1  0  0  0  0
 13 14  1  6  0  0  0
 15 16  1  0  0  0  0
 15 26  1  1  0  0  0
 16 18  1  0  0  0  0
 16 17  1  6  0  0  0
 18  4  1  1  0  0  0
 20 21  1  0  0  0  0
 20 27  1  0  0  0  0
 21 31  1  1  0  0  0
 21 23  1  0  0  0  0
 21 22  1  0  0  0  0
 23 24  1  0  0  0  0
 23 29  1  6  0  0  0
 24 25  1  0  0  0  0
 24 28  1  1  0  0  0
 25 27  1  0  0  0  0
 25 26  1  1  0  0  0
 29 30  1  0  0  0  0
M  CHG  5   6   1  10   1  14   1  19   1  29   1
M  END
>  <CHROM.1>
168.61341388,66.56534337,-149.46001416,53.44420593,-67.29379393,-63.59366721
-84.63952116,91.27412172,-57.87502530,66.84575991,-75.77783257,-169.09364138
-150.00648748,4.59760358,4.75235568,-2.09481084,0.32786721,-0.30844294,2.56706379

>  <Name>
1byj cryst

>  <RI>
0

>  <Rbt.Current_Directory>
/home/itssahil/PROJECTS/Mol_Feturizer/New_Systems/rnas/1byj

>  <Rbt.Executable>
rbdock ($Id: //depot/dev/client3/rdock/2013.1/src/exe/rbdock.cxx#4 $)

>  <Rbt.Library>
libRbt.so (2013.1, Build901 2013/11/27)

>  <Rbt.Parameter_File>
/export/apps/rDock/src/rDock_2013.1_src/data/scripts/dock_solv.prm

>  <Rbt.Receptor>
prm/pocket_docking_2.prm

>  <SCORE>
-48.7798

>  <SCORE.INTER>
-45.7421

>  <SCORE.INTER.CONST>
1

>  <SCORE.INTER.POLAR>
-5.54615

>  <SCORE.INTER.ROT>
6

>  <SCORE.INTER.SOLV>
27.5749

>  <SCORE.INTER.VDW>
-28.7992

>  <SCORE.INTER.norm>
-1.47555

>  <SCORE.INTRA>
-3.42089

>  <SCORE.INTRA.DIHEDRAL>
-3.18386

>  <SCORE.INTRA.DIHEDRAL.0>
18.4149

>  <SCORE.INTRA.POLAR>
-0.0108665

>  <SCORE.INTRA.POLAR.0>
0

>  <SCORE.INTRA.REPUL>
-0.091821

>  <SCORE.INTRA.REPUL.0>
0.092687

>  <SCORE.INTRA.SOLV>
-1.97143

>  <SCORE.INTRA.SOLV.lig_0>
-120.37

>  <SCORE.INTRA.VDW>
-0.347196

>  <SCORE.INTRA.VDW.0>
-1.75542

>  <SCORE.INTRA.norm>
-0.110351

>  <SCORE.RESTR>
0.383136

>  <SCORE.RESTR.CAVITY>
0.383136

>  <SCORE.RESTR.norm>
0.0123592

>  <SCORE.SYSTEM>
0

>  <SCORE.SYSTEM.CONST>
0

>  <SCORE.SYSTEM.DIHEDRAL>
0

>  <SCORE.SYSTEM.SOLV>
0

>  <SCORE.SYSTEM.norm>
0

>  <SCORE.heavy>
31

>  <SCORE.norm>
-1.57354

>  <RMSD>
1.506

$$$$
1byj cryst
 OpenBabel11021811383D
libRbt.so/2013.1/901 2013/11/27
 31 33  0  0  0  0  0  0  0  0999 V2000
    9.2953    1.8031   -3.2141 C   0  0  1  0  0  0  0  0  0  0  0  0
    7.8789    2.0041   -3.5233 O   0  0  0  0  0  0  0  0  0  0  0  0
    7.0708    2.8072   -2.6119 C   0  0  2  0  0  0  0  0  0  0  0  0
    7.4717    4.2125   -2.6439 O   0  0  0  0  0  0  0  0  0  0  0  0
    7.1875    2.2248   -1.1705 C   0  0  2  0  0  0  0  0  0  0  0  0
    6.3997    2.9759   -0.1734 N   0  3  0  0  0  0  0  0  0  0  0  0
    8.6763    2.1570   -0.7429 C   0  0  0  0  0  0  0  0  0  0  0  0
    9.5018    1.3376   -1.7463 C   0  0  0  0  0  0  0  0  0  0  0  0
    9.8818    0.7479   -4.1684 C   0  0  0  0  0  0  0  0  0  0  0  0
   10.0854    1.2348   -5.5391 N   0  3  0  0  0  0  0  0  0  0  0  0
    7.4867    6.4916   -3.5799 C   0  0  1  0  0  0  0  0  0  0  0  0
    6.6631    7.5709   -4.3237 C   0  0  0  0  0  0  0  0  0  0  0  0
    5.3440    7.8693   -3.5615 C   0  0  1  0  0  0  0  0  0  0  0  0
    4.6070    8.9535   -4.2384 N   0  3  0  0  0  0  0  0  0  0  0  0
    4.4889    6.5751   -3.4373 C   0  0  1  0  0  0  0  0  0  0  0  0
    5.2930    5.4188   -2.7919 C   0  0  1  0  0  0  0  0  0  0  0  0
    4.4809    4.2579   -2.8861 O   0  0  0  0  0  0  0  0  0  0  0  0
    6.6895    5.1528   -3.4450 C   0  0  2  0  0  0  0  0  0  0  0  0
    8.7815    6.2899   -4.2538 N   0  3  0  0  0  0  0  0  0  0  0  0
    1.2383    4.7007   -1.8725 C   0  0  0  0  0  0  0  0  0  0  0  0
    0.0589    5.4860   -1.2480 C   0  0  2  0  0  0  0  0  0  0  0  0
   -1.0811    5.2525   -2.0738 O   0  0  0  0  0  0  0  0  0  0  0  0
    0.4155    7.0197   -1.2029 C   0  0  1  0  0  0  0  0  0  0  0  0
    0.9674    7.5574   -2.5668 C   0  0  2  0  0  0  0  0  0  0  0  0
    2.0235    6.6271   -3.2155 C   0  0  1  0  0  0  0  0  0  0  0  0
    3.3237    6.8096   -2.5960 O   0  0  0  0  0  0  0  0  0  0  0  0
    1.5918    5.2375   -3.1752 O   0  0  0  0  0  0  0  0  0  0  0  0
    1.5272    8.8604   -2.4253 O   0  0  0  0  0  0  0  0  0  0  0  0
   -0.7826    7.8051   -0.7717 N   0  3  0  0  0  0  0  0  0  0  0  0
   -0.5338    9.1269   -0.1611 C   0  0  0  0  0  0  0  0  0  0  0  0
   -0.2519    4.8867    0.1457 C   0  0  0  0  0  0  0  0  0  0  0  0
  1  8  1  0  0  0  0
  1  9  1  6  0  0  0
  1  2  1  0  0  0  0
  2  3  1  0  0  0  0
  3  5  1  0  0  0  0
  3  4  1  1  0  0  0
  5  7  1  0  0  0  0
  5  6  1  1  0  0  0
  7  8  1  0  0  0  0
  9 10  1  0  0  0  0
 11 12  1  0  0  0  0
 11 18  1  0  0  0  0
 11 19  1  6  0  0  0
 12 13  1  0  0  0  0
 13 15  1  0  0  0  0
 13 14  1  6  0  0  0
 15 16  1  0  0  0  0
 15 26  1  1  0  0  0
 16 18  1  0  0  0  0
 16 17  1  6  0  0  0
 18  4  1  1  0  0  0
 20 21  1  0  0  0  0
 20 27  1  0  0  0  0
 21 31  1  1  0  0  0
 21 23  1  0  0  0  0
 21 22  1  0  0  0  0
 23 24  1  0  0  0  0
 23 29  1  6  0  0  0
 24 25  1  0  0  0  0
 24 28  1  1  0  0  0
 25 27  1  0  0  0  0
 25 26  1  1  0  0  0
 29 30  1  0  0  0  0
M  CHG  5   6   1  10   1  14   1  19   1  29   1
M  END
>  <CHROM.1>
73.66009985,99.33182394,-167.28068970,-168.08577324,68.37950221,-41.78873362
66.31816644,118.92604281,-166.23952227,-56.11123221,-82.64273668,64.97039621
-150.11674251,4.68624086,5.15863186,-2.57035440,0.37805949,-0.37377418,2.72724668

>  <Name>
1byj cryst

>  <RI>
0

>  <Rbt.Current_Directory>
/home/itssahil/PROJECTS/Mol_Feturizer/New_Systems/rnas/1byj

>  <Rbt.Executable>
rbdock ($Id: //depot/dev/client3/rdock/2013.1/src/exe/rbdock.cxx#4 $)

>  <Rbt.Library>
libRbt.so (2013.1, Build901 2013/11/27)

>  <Rbt.Parameter_File>
/export/apps/rDock/src/rDock_2013.1_src/data/scripts/dock_solv.prm

>  <Rbt.Receptor>
prm/pocket_docking_7.prm

>  <SCORE>
-60.0086

>  <SCORE.INTER>
-58.694

>  <SCORE.INTER.CONST>
1

>  <SCORE.INTER.POLAR>
-8.7829

>  <SCORE.INTER.ROT>
6

>  <SCORE.INTER.SOLV>
28.0762

>  <SCORE.INTER.VDW>
-26.8117

>  <SCORE.INTER.norm>
-1.89335

>  <SCORE.INTRA>
-1.31469

>  <SCORE.INTRA.DIHEDRAL>
3.02028

>  <SCORE.INTRA.DIHEDRAL.0>
18.4149

>  <SCORE.INTRA.POLAR>
-0.0260844

>  <SCORE.INTRA.POLAR.0>
0

>  <SCORE.INTRA.REPUL>
-0.092687

>  <SCORE.INTRA.REPUL.0>
0.092687

>  <SCORE.INTRA.SOLV>
-1.362

>  <SCORE.INTRA.SOLV.lig_0>
-120.37

>  <SCORE.INTRA.VDW>
-1.5917

>  <SCORE.INTRA.VDW.0>
-1.75542

>  <SCORE.INTRA.norm>
-0.0424093

>  <SCORE.RESTR>
0

>  <SCORE.RESTR.CAVITY>
0

>  <SCORE.RESTR.norm>
0

>  <SCORE.SYSTEM>
0

>  <SCORE.SYSTEM.CONST>
0

>  <SCORE.SYSTEM.DIHEDRAL>
0

>  <SCORE.SYSTEM.SOLV>
0

>  <SCORE.SYSTEM.norm>
0

>  <SCORE.heavy>
31

>  <SCORE.norm>
-1.93576

>  <RMSD>
1.507

$$$$
1byj cryst
 OpenBabel11021811383D
libRbt.so/2013.1/901 2013/11/27
 31 33  0  0  0  0  0  0  0  0999 V2000
   10.0458    2.0891   -2.4502 C   0  0  1  0  0  0  0  0  0  0  0  0
    8.7141    1.9613   -3.0436 O   0  0  0  0  0  0  0  0  0  0  0  0
    7.5509    2.3058   -2.2331 C   0  0  2  0  0  0  0  0  0  0  0  0
    7.4988    3.7411   -1.9609 O   0  0  0  0  0  0  0  0  0  0  0  0
    7.5855    1.4859   -0.9076 C   0  0  2  0  0  0  0  0  0  0  0  0
    6.4421    1.7689   -0.0179 N   0  3  0  0  0  0  0  0  0  0  0  0
    8.9232    1.7333   -0.1637 C   0  0  0  0  0  0  0  0  0  0  0  0
   10.1238    1.3976   -1.0611 C   0  0  0  0  0  0  0  0  0  0  0  0
   11.0871    1.4571   -3.3908 C   0  0  0  0  0  0  0  0  0  0  0  0
   10.6626    0.1766   -3.9716 N   0  3  0  0  0  0  0  0  0  0  0  0
    7.3496    6.0201   -2.8851 C   0  0  1  0  0  0  0  0  0  0  0  0
    6.4887    7.0098   -3.7072 C   0  0  0  0  0  0  0  0  0  0  0  0
    5.0735    7.1466   -3.0840 C   0  0  1  0  0  0  0  0  0  0  0  0
    4.2908    8.1500   -3.8306 N   0  3  0  0  0  0  0  0  0  0  0  0
    4.3630    5.7625   -3.0515 C   0  0  1  0  0  0  0  0  0  0  0  0
    5.2235    4.6955   -2.3294 C   0  0  1  0  0  0  0  0  0  0  0  0
    4.5626    3.4518   -2.5093 O   0  0  0  0  0  0  0  0  0  0  0  0
    6.7004    4.5981   -2.8360 C   0  0  2  0  0  0  0  0  0  0  0  0
    8.7209    5.9754   -3.4227 N   0  3  0  0  0  0  0  0  0  0  0  0
    0.4728    4.2961   -2.2997 C   0  0  0  0  0  0  0  0  0  0  0  0
   -0.5674    5.2587   -1.6759 C   0  0  2  0  0  0  0  0  0  0  0  0
   -1.5756    5.4784   -2.6614 O   0  0  0  0  0  0  0  0  0  0  0  0
    0.1389    6.6109   -1.2832 C   0  0  1  0  0  0  0  0  0  0  0  0
    1.0246    7.1932   -2.4367 C   0  0  2  0  0  0  0  0  0  0  0  0
    1.9158    6.1300   -3.1277 C   0  0  1  0  0  0  0  0  0  0  0  0
    3.0991    5.8521   -2.3338 O   0  0  0  0  0  0  0  0  0  0  0  0
    1.1585    4.9211   -3.4173 O   0  0  0  0  0  0  0  0  0  0  0  0
    1.8528    8.2560   -1.9722 O   0  0  0  0  0  0  0  0  0  0  0  0
   -0.8868    7.6100   -0.8496 N   0  3  0  0  0  0  0  0  0  0  0  0
   -0.4189    8.7287   -0.0061 C   0  0  0  0  0  0  0  0  0  0  0  0
   -1.2427    4.5482   -0.4771 C   0  0  0  0  0  0  0  0  0  0  0  0
  1  8  1  0  0  0  0
  1  9  1  6  0  0  0
  1  2  1  0  0  0  0
  2  3  1  0  0  0  0
  3  5  1  0  0  0  0
  3  4  1  1  0  0  0
  5  7  1  0  0  0  0
  5  6  1  1  0  0  0
  7  8  1  0  0  0  0
  9 10  1  0  0  0  0
 11 12  1  0  0  0  0
 11 18  1  0  0  0  0
 11 19  1  6  0  0  0
 12 13  1  0  0  0  0
 13 15  1  0  0  0  0
 13 14  1  6  0  0  0
 15 16  1  0  0  0  0
 15 26  1  1  0  0  0
 16 18  1  0  0  0  0
 16 17  1  6  0  0  0
 18  4  1  1  0  0  0
 20 21  1  0  0  0  0
 20 27  1  0  0  0  0
 21 31  1  1  0  0  0
 21 23  1  0  0  0  0
 21 22  1  0  0  0  0
 23 24  1  0  0  0  0
 23 29  1  6  0  0  0
 24 25  1  0  0  0  0
 24 28  1  1  0  0  0
 25 27  1  0  0  0  0
 25 26  1  1  0  0  0
 29 30  1  0  0  0  0
M  CHG  5   6   1  10   1  14   1  19   1  29   1
M  END
>  <CHROM.1>
-42.74744823,94.60106883,-149.73030765,-51.26008058,178.97086607,-179.44621311
-64.81186562,92.20345940,-174.69099149,-176.73348050,-80.27767592,-70.02427715
-136.04740986,4.69927625,4.71054110,-2.24733055,0.40495382,-0.22670364,2.79078718

>  <Name>
1byj cryst

>  <RI>
0

>  <Rbt.Current_Directory>
/home/itssahil/PROJECTS/Mol_Feturizer/New_Systems/rnas/1byj

>  <Rbt.Executable>
rbdock ($Id: //depot/dev/client3/rdock/2013.1/src/exe/rbdock.cxx#4 $)

>  <Rbt.Library>
libRbt.so (2013.1, Build901 2013/11/27)

>  <Rbt.Parameter_File>
/export/apps/rDock/src/rDock_2013.1_src/data/scripts/dock_solv.prm

>  <Rbt.Receptor>
prm/pocket_docking_2.prm

>  <SCORE>
-44.2465

>  <SCORE.INTER>
-40.7576

>  <SCORE.INTER.CONST>
1

>  <SCORE.INTER.POLAR>
-4.29038

>  <SCORE.INTER.ROT>
6

>  <SCORE.INTER.SOLV>
27.7348

>  <SCORE.INTER.VDW>
-29.7154

>  <SCORE.INTER.norm>
-1.31476

>  <SCORE.INTRA>
-3.48896

>  <SCORE.INTRA.DIHEDRAL>
2.90983

>  <SCORE.INTRA.DIHEDRAL.0>
18.4149

>  <SCORE.INTRA.POLAR>
-1.16667

>  <SCORE.INTRA.POLAR.0>
0

>  <SCORE.INTRA.REPUL>
-0.092687

>  <SCORE.INTRA.REPUL.0>
0.092687

>  <SCORE.INTRA.SOLV>
2.02902

>  <SCORE.INTRA.SOLV.lig_0>
-120.37

>  <SCORE.INTRA.VDW>
-1.52828

>  <SCORE.INTRA.VDW.0>
-1.75542

>  <SCORE.INTRA.norm>
-0.112547

>  <SCORE.RESTR>
0

>  <SCORE.RESTR.CAVITY>
0

>  <SCORE.RESTR.norm>
0

>  <SCORE.SYSTEM>
0

>  <SCORE.SYSTEM.CONST>
0

>  <SCORE.SYSTEM.DIHEDRAL>
0

>  <SCORE.SYSTEM.SOLV>
0

>  <SCORE.SYSTEM.norm>
0

>  <SCORE.heavy>
31

>  <SCORE.norm>
-1.42731

>  <RMSD>
1.519

$$$$
1byj cryst
 OpenBabel11021811383D
libRbt.so/2013.1/901 2013/11/27
 31 33  0  0  0  0  0  0  0  0999 V2000
    9.0906    1.8449   -3.2808 C   0  0  1  0  0  0  0  0  0  0  0  0
    7.6289    1.8668   -3.3530 O   0  0  0  0  0  0  0  0  0  0  0  0
    6.8789    2.3612   -2.2034 C   0  0  2  0  0  0  0  0  0  0  0  0
    7.0795    3.7969   -2.0154 O   0  0  0  0  0  0  0  0  0  0  0  0
    7.3022    1.5658   -0.9312 C   0  0  2  0  0  0  0  0  0  0  0  0
    6.5925    1.9982    0.2888 N   0  3  0  0  0  0  0  0  0  0  0  0
    8.8361    1.6646   -0.7278 C   0  0  0  0  0  0  0  0  0  0  0  0
    9.5905    1.1729   -1.9723 C   0  0  0  0  0  0  0  0  0  0  0  0
    9.6505    1.0774   -4.4914 C   0  0  0  0  0  0  0  0  0  0  0  0
   11.1117    1.1546   -4.6192 N   0  3  0  0  0  0  0  0  0  0  0  0
    7.4249    5.9242   -3.2094 C   0  0  1  0  0  0  0  0  0  0  0  0
    6.7733    7.0037   -4.1076 C   0  0  0  0  0  0  0  0  0  0  0  0
    5.4874    7.5618   -3.4407 C   0  0  1  0  0  0  0  0  0  0  0  0
    4.9205    8.6429   -4.2694 N   0  3  0  0  0  0  0  0  0  0  0  0
    4.4630    6.4149   -3.2019 C   0  0  1  0  0  0  0  0  0  0  0  0
    5.0875    5.2504   -2.3933 C   0  0  1  0  0  0  0  0  0  0  0  0
    4.1292    4.2026   -2.3849 O   0  0  0  0  0  0  0  0  0  0  0  0
    6.4516    4.7272   -2.9524 C   0  0  2  0  0  0  0  0  0  0  0  0
    8.6976    5.4751   -3.8009 N   0  3  0  0  0  0  0  0  0  0  0  0
    1.0059    4.9073   -2.4246 C   0  0  0  0  0  0  0  0  0  0  0  0
   -0.1481    5.6237   -1.6813 C   0  0  2  0  0  0  0  0  0  0  0  0
   -1.2324    5.7335   -2.6024 O   0  0  0  0  0  0  0  0  0  0  0  0
    0.3353    7.0469   -1.2101 C   0  0  1  0  0  0  0  0  0  0  0  0
    1.0419    7.8584   -2.3487 C   0  0  2  0  0  0  0  0  0  0  0  0
    2.0630    7.0219   -3.1608 C   0  0  1  0  0  0  0  0  0  0  0  0
    3.3188    6.8997   -2.4427 O   0  0  0  0  0  0  0  0  0  0  0  0
    1.5104    5.7228   -3.5156 O   0  0  0  0  0  0  0  0  0  0  0  0
    1.6991    9.0138   -1.8346 O   0  0  0  0  0  0  0  0  0  0  0  0
   -0.8215    7.8156   -0.6539 N   0  3  0  0  0  0  0  0  0  0  0  0
   -0.5145    8.8621    0.3422 C   0  0  0  0  0  0  0  0  0  0  0  0
   -0.6232    4.7201   -0.5169 C   0  0  0  0  0  0  0  0  0  0  0  0
  1  8  1  0  0  0  0
  1  9  1  6  0  0  0
  1  2  1  0  0  0  0
  2  3  1  0  0  0  0
  3  5  1  0  0  0  0
  3  4  1  1  0  0  0
  5  7  1  0  0  0  0
  5  6  1  1  0  0  0
  7  8  1  0  0  0  0
  9 10  1  0  0  0  0
 11 12  1  0  0  0  0
 11 18  1  0  0  0  0
 11 19  1  6  0  0  0
 12 13  1  0  0  0  0
 13 15  1  0  0  0  0
 13 14  1  6  0  0  0
 15 16  1  0  0  0  0
 15 26  1  1  0  0  0
 16 18  1  0  0  0  0
 16 17  1  6  0  0  0
 18  4  1  1  0  0  0
 20 21  1  0  0  0  0
 20 27  1  0  0  0  0
 21 31  1  1  0  0  0
 21 23  1  0  0  0  0
 21 22  1  0  0  0  0
 23 24  1  0  0  0  0
 23 29  1  6  0  0  0
 24 25  1  0  0  0  0
 24 28  1  1  0  0  0
 25 27  1  0  0  0  0
 25 26  1  1  0  0  0
 29 30  1  0  0  0  0
M  CHG  5   6   1  10   1  14   1  19   1  29   1
M  END
>  <CHROM.1>
171.92205558,72.56013432,-142.73355554,-58.31669390,-63.89530553,42.67853268
63.85194087,109.07704563,66.32289925,58.32172412,-85.15792522,-64.02488542
-166.16772099,4.65953736,5.01003263,-2.42967174,0.41391749,-0.35309670,2.71301365

>  <Name>
1byj cryst

>  <RI>
0

>  <Rbt.Current_Directory>
/home/itssahil/PROJECTS/Mol_Feturizer/New_Systems/rnas/1byj

>  <Rbt.Executable>
rbdock ($Id: //depot/dev/client3/rdock/2013.1/src/exe/rbdock.cxx#4 $)

>  <Rbt.Library>
libRbt.so (2013.1, Build901 2013/11/27)

>  <Rbt.Parameter_File>
/export/apps/rDock/src/rDock_2013.1_src/data/scripts/dock_solv.prm

>  <Rbt.Receptor>
prm/pocket_docking_3.prm

>  <SCORE>
-54.1003

>  <SCORE.INTER>
-50.5217

>  <SCORE.INTER.CONST>
1

>  <SCORE.INTER.POLAR>
-6.19908

>  <SCORE.INTER.ROT>
6

>  <SCORE.INTER.SOLV>
26.5052

>  <SCORE.INTER.VDW>
-29.4526

>  <SCORE.INTER.norm>
-1.62973

>  <SCORE.INTRA>
-3.5978

>  <SCORE.INTRA.DIHEDRAL>
-2.12598

>  <SCORE.INTRA.DIHEDRAL.0>
18.4149

>  <SCORE.INTRA.POLAR>
0

>  <SCORE.INTRA.POLAR.0>
0

>  <SCORE.INTRA.REPUL>
-0.092687

>  <SCORE.INTRA.REPUL.0>
0.092687

>  <SCORE.INTRA.SOLV>
-2.26329

>  <SCORE.INTRA.SOLV.lig_0>
-120.37

>  <SCORE.INTRA.VDW>
-0.939733

>  <SCORE.INTRA.VDW.0>
-1.75542

>  <SCORE.INTRA.norm>
-0.116058

>  <SCORE.RESTR>
0.0192111

>  <SCORE.RESTR.CAVITY>
0.0192111

>  <SCORE.RESTR.norm>
0.000619712

>  <SCORE.SYSTEM>
0

>  <SCORE.SYSTEM.CONST>
0

>  <SCORE.SYSTEM.DIHEDRAL>
0

>  <SCORE.SYSTEM.SOLV>
0

>  <SCORE.SYSTEM.norm>
0

>  <SCORE.heavy>
31

>  <SCORE.norm>
-1.74517

>  <RMSD>
1.520

$$$$
1byj cryst
 OpenBabel11021811383D
libRbt.so/2013.1/901 2013/11/27
 31 33  0  0  0  0  0  0  0  0999 V2000
    9.7596    1.9119   -1.5034 C   0  0  1  0  0  0  0  0  0  0  0  0
    8.3973    2.0875   -2.0089 O   0  0  0  0  0  0  0  0  0  0  0  0
    7.5015    2.9985   -1.3043 C   0  0  2  0  0  0  0  0  0  0  0  0
    7.9357    4.3870   -1.4467 O   0  0  0  0  0  0  0  0  0  0  0  0
    7.4256    2.5873    0.1975 C   0  0  2  0  0  0  0  0  0  0  0  0
    6.5381    3.4565    0.9950 N   0  3  0  0  0  0  0  0  0  0  0  0
    8.8482    2.5571    0.8135 C   0  0  0  0  0  0  0  0  0  0  0  0
    9.7721    1.6191    0.0223 C   0  0  0  0  0  0  0  0  0  0  0  0
   10.4351    0.7475   -2.2491 C   0  0  0  0  0  0  0  0  0  0  0  0
   10.5556    0.9603   -3.6974 N   0  3  0  0  0  0  0  0  0  0  0  0
    8.0320    6.4971   -2.7150 C   0  0  1  0  0  0  0  0  0  0  0  0
    7.2141    7.5574   -3.4919 C   0  0  0  0  0  0  0  0  0  0  0  0
    6.0693    8.1172   -2.6055 C   0  0  1  0  0  0  0  0  0  0  0  0
    5.3475    9.1808   -3.3299 N   0  3  0  0  0  0  0  0  0  0  0  0
    5.1185    6.9673   -2.1636 C   0  0  1  0  0  0  0  0  0  0  0  0
    5.8939    5.8203   -1.4684 C   0  0  1  0  0  0  0  0  0  0  0  0
    4.9643    4.7662   -1.2666 O   0  0  0  0  0  0  0  0  0  0  0  0
    7.1354    5.2977   -2.2640 C   0  0  2  0  0  0  0  0  0  0  0  0
    9.1769    6.0474   -3.5265 N   0  3  0  0  0  0  0  0  0  0  0  0
    1.7495    6.7505   -2.9869 C   0  0  0  0  0  0  0  0  0  0  0  0
    0.4978    6.9705   -2.1023 C   0  0  2  0  0  0  0  0  0  0  0  0
   -0.2860    7.9822   -2.7333 O   0  0  0  0  0  0  0  0  0  0  0  0
    0.9466    7.4238   -0.6620 C   0  0  1  0  0  0  0  0  0  0  0  0
    1.9955    8.5871   -0.6885 C   0  0  2  0  0  0  0  0  0  0  0  0
    3.1287    8.3734   -1.7239 C   0  0  1  0  0  0  0  0  0  0  0  0
    4.1308    7.4563   -1.2118 O   0  0  0  0  0  0  0  0  0  0  0  0
    2.5919    7.9337   -3.0035 O   0  0  0  0  0  0  0  0  0  0  0  0
    2.5784    8.7927    0.5956 O   0  0  0  0  0  0  0  0  0  0  0  0
   -0.2532    7.8130    0.1426 N   0  3  0  0  0  0  0  0  0  0  0  0
   -0.8611    9.1266   -0.1521 C   0  0  0  0  0  0  0  0  0  0  0  0
   -0.3431    5.6701   -2.1023 C   0  0  0  0  0  0  0  0  0  0  0  0
  1  8  1  0  0  0  0
  1  9  1  6  0  0  0
  1  2  1  0  0  0  0
  2  3  1  0  0  0  0
  3  5  1  0  0  0  0
  3  4  1  1  0  0  0
  5  7  1  0  0  0  0
  5  6  1  1  0  0  0
  7  8  1  0  0  0  0
  9 10  1  0  0  0  0
 11 12  1  0  0  0  0
 11 18  1  0  0  0  0
 11 19  1  6  0  0  0
 12 13  1  0  0  0  0
 13 15  1  0  0  0  0
 13 14  1  6  0  0  0
 15 16  1  0  0  0  0
 15 26  1  1  0  0  0
 16 18  1  0  0  0  0
 16 17  1  6  0  0  0
 18  4  1  1  0  0  0
 20 21  1  0  0  0  0
 20 27  1  0  0  0  0
 21 31  1  1  0  0  0
 21 23  1  0  0  0  0
 21 22  1  0  0  0  0
 23 24  1  0  0  0  0
 23 29  1  1  0  0  0
 24 25  1  0  0  0  0
 24 28  1  1  0  0  0
 25 27  1  0  0  0  0
 25 26  1  1  0  0  0
 29 30  1  0  0  0  0
M  CHG  5   6   1  10   1  14   1  19   1  29   1
M  END
>  <CHROM.1>
61.19251789,110.02360704,-158.40357991,156.11262106,-60.24311368,95.93164698
-12.17058058,68.71287520,66.44335120,170.95483392,44.68166038,-172.22399481
168.81282203,5.20668738,5.70546719,-1.61056355,0.46892099,-0.37349139,2.56635277

>  <Name>
1byj cryst

>  <RI>
0

>  <Rbt.Current_Directory>
/home/itssahil/PROJECTS/Mol_Feturizer/New_Systems/rnas/1byj

>  <Rbt.Executable>
rbdock ($Id: //depot/dev/client3/rdock/2013.1/src/exe/rbdock.cxx#4 $)

>  <Rbt.Library>
libRbt.so (2013.1, Build901 2013/11/27)

>  <Rbt.Parameter_File>
/export/apps/rDock/src/rDock_2013.1_src/data/scripts/dock_solv.prm

>  <Rbt.Receptor>
prm/pocket_docking_3.prm

>  <SCORE>
-26.4837

>  <SCORE.INTER>
-22.0125

>  <SCORE.INTER.CONST>
1

>  <SCORE.INTER.POLAR>
-2.03027

>  <SCORE.INTER.ROT>
6

>  <SCORE.INTER.SOLV>
18.6153

>  <SCORE.INTER.VDW>
-21.7125

>  <SCORE.INTER.norm>
-0.710082

>  <SCORE.INTRA>
-4.98659

>  <SCORE.INTRA.DIHEDRAL>
-0.0975143

>  <SCORE.INTRA.DIHEDRAL.0>
18.4149

>  <SCORE.INTRA.POLAR>
-2.26028

>  <SCORE.INTRA.POLAR.0>
0

>  <SCORE.INTRA.REPUL>
-0.092687

>  <SCORE.INTRA.REPUL.0>
0.092687

>  <SCORE.INTRA.SOLV>
-0.700872

>  <SCORE.INTRA.SOLV.lig_0>
-120.37

>  <SCORE.INTRA.VDW>
3.561

>  <SCORE.INTRA.VDW.0>
-1.75542

>  <SCORE.INTRA.norm>
-0.160858

>  <SCORE.RESTR>
0.51539

>  <SCORE.RESTR.CAVITY>
0.51539

>  <SCORE.RESTR.norm>
0.0166255

>  <SCORE.SYSTEM>
0

>  <SCORE.SYSTEM.CONST>
0

>  <SCORE.SYSTEM.DIHEDRAL>
0

>  <SCORE.SYSTEM.SOLV>
0

>  <SCORE.SYSTEM.norm>
0

>  <SCORE.heavy>
31

>  <SCORE.norm>
-0.854314

>  <RMSD>
1.526

$$$$
1byj cryst
 OpenBabel11021811383D
libRbt.so/2013.1/901 2013/11/27
 31 33  0  0  0  0  0  0  0  0999 V2000
    9.3027    1.8269   -3.2067 C   0  0  1  0  0  0  0  0  0  0  0  0
    7.9019    2.0398   -3.5734 O   0  0  0  0  0  0  0  0  0  0  0  0
    7.0627    2.8456   -2.6929 C   0  0  2  0  0  0  0  0  0  0  0  0
    7.4751    4.2480   -2.7024 O   0  0  0  0  0  0  0  0  0  0  0  0
    7.1152    2.2568   -1.2503 C   0  0  2  0  0  0  0  0  0  0  0  0
    6.2924    3.0101   -0.2837 N   0  3  0  0  0  0  0  0  0  0  0  0
    8.5845    2.1760   -0.7618 C   0  0  0  0  0  0  0  0  0  0  0  0
    9.4447    1.3542   -1.7335 C   0  0  0  0  0  0  0  0  0  0  0  0
    9.9204    0.7709   -4.1402 C   0  0  0  0  0  0  0  0  0  0  0  0
   10.0718    1.2226   -5.5296 N   0  3  0  0  0  0  0  0  0  0  0  0
    7.5110    6.5411   -3.6029 C   0  0  1  0  0  0  0  0  0  0  0  0
    6.6984    7.6381   -4.3329 C   0  0  0  0  0  0  0  0  0  0  0  0
    5.3788    7.9347   -3.5710 C   0  0  1  0  0  0  0  0  0  0  0  0
    4.6527    9.0349   -4.2337 N   0  3  0  0  0  0  0  0  0  0  0  0
    4.5134    6.6453   -3.4701 C   0  0  1  0  0  0  0  0  0  0  0  0
    5.3062    5.4731   -2.8397 C   0  0  1  0  0  0  0  0  0  0  0  0
    4.4857    4.3200   -2.9550 O   0  0  0  0  0  0  0  0  0  0  0  0
    6.7031    5.2065   -3.4917 C   0  0  2  0  0  0  0  0  0  0  0  0
    8.8068    6.3399   -4.2750 N   0  3  0  0  0  0  0  0  0  0  0  0
    1.5251    4.6939   -1.5157 C   0  0  0  0  0  0  0  0  0  0  0  0
    0.2777    5.4357   -0.9758 C   0  0  2  0  0  0  0  0  0  0  0  0
   -0.8450    4.9549   -1.7136 O   0  0  0  0  0  0  0  0  0  0  0  0
    0.4613    6.9869   -1.1791 C   0  0  1  0  0  0  0  0  0  0  0  0
    0.9226    7.3612   -2.6286 C   0  0  2  0  0  0  0  0  0  0  0  0
    2.0633    6.4600   -3.1656 C   0  0  1  0  0  0  0  0  0  0  0  0
    3.3468    6.8757   -2.6295 O   0  0  0  0  0  0  0  0  0  0  0  0
    1.7906    5.0555   -2.8972 O   0  0  0  0  0  0  0  0  0  0  0  0
    1.3358    8.7229   -2.7088 O   0  0  0  0  0  0  0  0  0  0  0  0
   -0.8084    7.6967   -0.8294 N   0  3  0  0  0  0  0  0  0  0  0  0
   -0.6881    8.9283   -0.0228 C   0  0  0  0  0  0  0  0  0  0  0  0
    0.0633    5.0316    0.5037 C   0  0  0  0  0  0  0  0  0  0  0  0
  1  8  1  0  0  0  0
  1  9  1  6  0  0  0
  1  2  1  0  0  0  0
  2  3  1  0  0  0  0
  3  5  1  0  0  0  0
  3  4  1  1  0  0  0
  5  7  1  0  0  0  0
  5  6  1  1  0  0  0
  7  8  1  0  0  0  0
  9 10  1  0  0  0  0
 11 12  1  0  0  0  0
 11 18  1  0  0  0  0
 11 19  1  6  0  0  0
 12 13  1  0  0  0  0
 13 15  1  0  0  0  0
 13 14  1  6  0  0  0
 15 16  1  0  0  0  0
 15 26  1  1  0  0  0
 16 18  1  0  0  0  0
 16 17  1  6  0  0  0
 18  4  1  1  0  0  0
 20 21  1  0  0  0  0
 20 27  1  0  0  0  0
 21 31  1  1  0  0  0
 21 23  1  0  0  0  0
 21 22  1  0  0  0  0
 23 24  1  0  0  0  0
 23 29  1  6  0  0  0
 24 25  1  0  0  0  0
 24 28  1  1  0  0  0
 25 27  1  0  0  0  0
 25 26  1  1  0  0  0
 29 30  1  0  0  0  0
M  CHG  5   6   1  10   1  14   1  19   1  29   1
M  END
>  <CHROM.1>
68.42188301,101.61372448,-167.33092099,70.03703105,-170.13147539,74.51405577
-59.99163215,130.84097757,-157.96790073,-55.89578367,-102.59186515,-64.92898327
-149.82039840,4.71021417,5.14652046,-2.54661311,0.35354450,-0.39547754,2.70167460

>  <Name>
1byj cryst

>  <RI>
0

>  <Rbt.Current_Directory>
/home/itssahil/PROJECTS/Mol_Feturizer/New_Systems/rnas/1byj

>  <Rbt.Executable>
rbdock ($Id: //depot/dev/client3/rdock/2013.1/src/exe/rbdock.cxx#4 $)

>  <Rbt.Library>
libRbt.so (2013.1, Build901 2013/11/27)

>  <Rbt.Parameter_File>
/export/apps/rDock/src/rDock_2013.1_src/data/scripts/dock_solv.prm

>  <Rbt.Receptor>
prm/pocket_docking_4.prm

>  <SCORE>
-59.9712

>  <SCORE.INTER>
-59.3976

>  <SCORE.INTER.CONST>
1

>  <SCORE.INTER.POLAR>
-8.84065

>  <SCORE.INTER.ROT>
6

>  <SCORE.INTER.SOLV>
28.1045

>  <SCORE.INTER.VDW>
-27.0978

>  <SCORE.INTER.norm>
-1.91605

>  <SCORE.INTRA>
-0.5736

>  <SCORE.INTRA.DIHEDRAL>
5.04782

>  <SCORE.INTRA.DIHEDRAL.0>
18.4149

>  <SCORE.INTRA.POLAR>
-0.0106174

>  <SCORE.INTRA.POLAR.0>
0

>  <SCORE.INTRA.REPUL>
-0.092687

>  <SCORE.INTRA.REPUL.0>
0.092687

>  <SCORE.INTRA.SOLV>
-1.15475

>  <SCORE.INTRA.SOLV.lig_0>
-120.37

>  <SCORE.INTRA.VDW>
-2.0206

>  <SCORE.INTRA.VDW.0>
-1.75542

>  <SCORE.INTRA.norm>
-0.0185032

>  <SCORE.RESTR>
0

>  <SCORE.RESTR.CAVITY>
0

>  <SCORE.RESTR.norm>
0

>  <SCORE.SYSTEM>
0

>  <SCORE.SYSTEM.CONST>
0

>  <SCORE.SYSTEM.DIHEDRAL>
0

>  <SCORE.SYSTEM.SOLV>
0

>  <SCORE.SYSTEM.norm>
0

>  <SCORE.heavy>
31

>  <SCORE.norm>
-1.93456

>  <RMSD>
1.534

$$$$
1byj cryst
 OpenBabel11021811383D
libRbt.so/2013.1/901 2013/11/27
 31 33  0  0  0  0  0  0  0  0999 V2000
    9.3274    1.7446   -3.1794 C   0  0  1  0  0  0  0  0  0  0  0  0
    7.9284    1.9092   -3.5769 O   0  0  0  0  0  0  0  0  0  0  0  0
    7.0277    2.6309   -2.6845 C   0  0  2  0  0  0  0  0  0  0  0  0
    7.3720    4.0499   -2.6155 O   0  0  0  0  0  0  0  0  0  0  0  0
    7.0692    1.9758   -1.2704 C   0  0  2  0  0  0  0  0  0  0  0  0
    6.1849    2.6418   -0.2939 N   0  3  0  0  0  0  0  0  0  0  0  0
    8.5268    1.9403   -0.7431 C   0  0  0  0  0  0  0  0  0  0  0  0
    9.4518    1.2080   -1.7267 C   0  0  0  0  0  0  0  0  0  0  0  0
   10.0205    0.7654   -4.1432 C   0  0  0  0  0  0  0  0  0  0  0  0
   10.0441    1.2227   -5.5388 N   0  3  0  0  0  0  0  0  0  0  0  0
    7.4752    6.3011   -3.6114 C   0  0  1  0  0  0  0  0  0  0  0  0
    6.6931    7.3927   -4.3817 C   0  0  0  0  0  0  0  0  0  0  0  0
    5.3896    7.7637   -3.6248 C   0  0  1  0  0  0  0  0  0  0  0  0
    4.6944    8.8584   -4.3285 N   0  3  0  0  0  0  0  0  0  0  0  0
    4.4837    6.5086   -3.4646 C   0  0  1  0  0  0  0  0  0  0  0  0
    5.2429    5.3384   -2.7906 C   0  0  1  0  0  0  0  0  0  0  0  0
    4.3847    4.2089   -2.8523 O   0  0  0  0  0  0  0  0  0  0  0  0
    6.6255    4.9994   -3.4394 C   0  0  2  0  0  0  0  0  0  0  0  0
    8.7588    6.0300   -4.2825 N   0  3  0  0  0  0  0  0  0  0  0  0
    1.1646    4.7342   -2.0719 C   0  0  0  0  0  0  0  0  0  0  0  0
    0.0154    5.5122   -1.3851 C   0  0  2  0  0  0  0  0  0  0  0  0
   -1.1312    5.3898   -2.2255 O   0  0  0  0  0  0  0  0  0  0  0  0
    0.4311    7.0224   -1.2181 C   0  0  1  0  0  0  0  0  0  0  0  0
    1.0059    7.6456   -2.5354 C   0  0  2  0  0  0  0  0  0  0  0  0
    2.0264    6.7298   -3.2577 C   0  0  1  0  0  0  0  0  0  0  0  0
    3.3315    6.8117   -2.6272 O   0  0  0  0  0  0  0  0  0  0  0  0
    1.5410    5.3592   -3.3279 O   0  0  0  0  0  0  0  0  0  0  0  0
    1.6155    8.9105   -2.2910 O   0  0  0  0  0  0  0  0  0  0  0  0
   -0.7364    7.8168   -0.7240 N   0  3  0  0  0  0  0  0  0  0  0  0
   -0.4378    9.0123    0.0905 C   0  0  0  0  0  0  0  0  0  0  0  0
   -0.3209    4.8161   -0.0434 C   0  0  0  0  0  0  0  0  0  0  0  0
  1  8  1  0  0  0  0
  1  9  1  6  0  0  0
  1  2  1  0  0  0  0
  2  3  1  0  0  0  0
  3  5  1  0  0  0  0
  3  4  1  1  0  0  0
  5  7  1  0  0  0  0
  5  6  1  1  0  0  0
  7  8  1  0  0  0  0
  9 10  1  0  0  0  0
 11 12  1  0  0  0  0
 11 18  1  0  0  0  0
 11 19  1  6  0  0  0
 12 13  1  0  0  0  0
 13 15  1  0  0  0  0
 13 14  1  6  0  0  0
 15 16  1  0  0  0  0
 15 26  1  1  0  0  0
 16 18  1  0  0  0  0
 16 17  1  6  0  0  0
 18  4  1  1  0  0  0
 20 21  1  0  0  0  0
 20 27  1  0  0  0  0
 21 31  1  1  0  0  0
 21 23  1  0  0  0  0
 21 22  1  0  0  0  0
 23 24  1  0  0  0  0
 23 29  1  6  0  0  0
 24 25  1  0  0  0  0
 24 28  1  1  0  0  0
 25 27  1  0  0  0  0
 25 26  1  1  0  0  0
 29 30  1  0  0  0  0
M  CHG  5   6   1  10   1  14   1  19   1  29   1
M  END
>  <CHROM.1>
61.48596766,98.17330361,-159.14100726,-173.58529665,-44.71024153,-148.88232393
-166.89132839,115.95277737,78.82458860,56.45987543,-87.80338956,-170.18486784
-154.26660734,4.66398656,5.08685275,-2.60549439,0.38785164,-0.38199150,2.72155055

>  <Name>
1byj cryst

>  <RI>
0

>  <Rbt.Current_Directory>
/home/itssahil/PROJECTS/Mol_Feturizer/New_Systems/rnas/1byj

>  <Rbt.Executable>
rbdock ($Id: //depot/dev/client3/rdock/2013.1/src/exe/rbdock.cxx#4 $)

>  <Rbt.Library>
libRbt.so (2013.1, Build901 2013/11/27)

>  <Rbt.Parameter_File>
/export/apps/rDock/src/rDock_2013.1_src/data/scripts/dock_solv.prm

>  <Rbt.Receptor>
prm/pocket_docking_6.prm

>  <SCORE>
-60.31

>  <SCORE.INTER>
-60.7091

>  <SCORE.INTER.CONST>
1

>  <SCORE.INTER.POLAR>
-8.78075

>  <SCORE.INTER.ROT>
6

>  <SCORE.INTER.SOLV>
28.3065

>  <SCORE.INTER.VDW>
-28.239

>  <SCORE.INTER.norm>
-1.95836

>  <SCORE.INTRA>
0.399023

>  <SCORE.INTRA.DIHEDRAL>
5.52567

>  <SCORE.INTRA.DIHEDRAL.0>
18.4149

>  <SCORE.INTRA.POLAR>
-0.0131889

>  <SCORE.INTRA.POLAR.0>
0

>  <SCORE.INTRA.REPUL>
-0.092687

>  <SCORE.INTRA.REPUL.0>
0.092687

>  <SCORE.INTRA.SOLV>
-1.45337

>  <SCORE.INTRA.SOLV.lig_0>
-120.37

>  <SCORE.INTRA.VDW>
-1.12885

>  <SCORE.INTRA.VDW.0>
-1.75542

>  <SCORE.INTRA.norm>
0.0128717

>  <SCORE.RESTR>
0

>  <SCORE.RESTR.CAVITY>
0

>  <SCORE.RESTR.norm>
0

>  <SCORE.SYSTEM>
0

>  <SCORE.SYSTEM.CONST>
0

>  <SCORE.SYSTEM.DIHEDRAL>
0

>  <SCORE.SYSTEM.SOLV>
0

>  <SCORE.SYSTEM.norm>
0

>  <SCORE.heavy>
31

>  <SCORE.norm>
-1.94548

>  <RMSD>
1.534

$$$$
1byj cryst
 OpenBabel11021811383D
libRbt.so/2013.1/901 2013/11/27
 31 33  0  0  0  0  0  0  0  0999 V2000
    9.2883    1.6972   -3.1828 C   0  0  1  0  0  0  0  0  0  0  0  0
    7.8907    1.8844   -3.5752 O   0  0  0  0  0  0  0  0  0  0  0  0
    7.0098    2.6370   -2.6885 C   0  0  2  0  0  0  0  0  0  0  0  0
    7.3831    4.0495   -2.6419 O   0  0  0  0  0  0  0  0  0  0  0  0
    7.0460    2.0015   -1.2654 C   0  0  2  0  0  0  0  0  0  0  0  0
    6.1808    2.6993   -0.2940 N   0  3  0  0  0  0  0  0  0  0  0  0
    8.5055    1.9441   -0.7453 C   0  0  0  0  0  0  0  0  0  0  0  0
    9.4100    1.1791   -1.7232 C   0  0  0  0  0  0  0  0  0  0  0  0
    9.9561    0.6904   -4.1360 C   0  0  0  0  0  0  0  0  0  0  0  0
   10.1808    1.2137   -5.4898 N   0  3  0  0  0  0  0  0  0  0  0  0
    7.4562    6.3301   -3.5714 C   0  0  1  0  0  0  0  0  0  0  0  0
    6.6651    7.4267   -4.3252 C   0  0  0  0  0  0  0  0  0  0  0  0
    5.3402    7.7485   -3.5830 C   0  0  1  0  0  0  0  0  0  0  0  0
    4.6348    8.8481   -4.2685 N   0  3  0  0  0  0  0  0  0  0  0  0
    4.4587    6.4705   -3.4758 C   0  0  1  0  0  0  0  0  0  0  0  0
    5.2304    5.2976   -2.8209 C   0  0  1  0  0  0  0  0  0  0  0  0
    4.3979    4.1526   -2.9309 O   0  0  0  0  0  0  0  0  0  0  0  0
    6.6316    5.0065   -3.4527 C   0  0  2  0  0  0  0  0  0  0  0  0
    8.7574    6.1053   -4.2254 N   0  3  0  0  0  0  0  0  0  0  0  0
    1.3306    4.5684   -1.7314 C   0  0  0  0  0  0  0  0  0  0  0  0
    0.1105    5.3344   -1.1637 C   0  0  2  0  0  0  0  0  0  0  0  0
   -1.0181    4.9657   -1.9551 O   0  0  0  0  0  0  0  0  0  0  0  0
    0.3769    6.8844   -1.2524 C   0  0  1  0  0  0  0  0  0  0  0  0
    0.8892    7.3351   -2.6625 C   0  0  2  0  0  0  0  0  0  0  0  0
    1.9946    6.4156   -3.2408 C   0  0  1  0  0  0  0  0  0  0  0  0
    3.2851    6.7252   -2.6522 O   0  0  0  0  0  0  0  0  0  0  0  0
    1.6452    5.0119   -3.0783 O   0  0  0  0  0  0  0  0  0  0  0  0
    1.3724    8.6756   -2.6377 O   0  0  0  0  0  0  0  0  0  0  0  0
   -0.8629    7.6331   -0.8771 N   0  3  0  0  0  0  0  0  0  0  0  0
   -0.6877    8.8630   -0.0781 C   0  0  0  0  0  0  0  0  0  0  0  0
   -0.1574    4.8391    0.2789 C   0  0  0  0  0  0  0  0  0  0  0  0
  1  8  1  0  0  0  0
  1  9  1  6  0  0  0
  1  2  1  0  0  0  0
  2  3  1  0  0  0  0
  3  5  1  0  0  0  0
  3  4  1  1  0  0  0
  5  7  1  0  0  0  0
  5  6  1  1  0  0  0
  7  8  1  0  0  0  0
  9 10  1  0  0  0  0
 11 12  1  0  0  0  0
 11 18  1  0  0  0  0
 11 19  1  6  0  0  0
 12 13  1  0  0  0  0
 13 15  1  0  0  0  0
 13 14  1  6  0  0  0
 15 16  1  0  0  0  0
 15 26  1  1  0  0  0
 16 18  1  0  0  0  0
 16 17  1  6  0  0  0
 18  4  1  1  0  0  0
 20 21  1  0  0  0  0
 20 27  1  0  0  0  0
 21 31  1  1  0  0  0
 21 23  1  0  0  0  0
 21 22  1  0  0  0  0
 23 24  1  0  0  0  0
 23 29  1  6  0  0  0
 24 25  1  0  0  0  0
 24 28  1  1  0  0  0
 25 27  1  0  0  0  0
 25 26  1  1  0  0  0
 29 30  1  0  0  0  0
M  CHG  5   6   1  10   1  14   1  19   1  29   1
M  END
>  <CHROM.1>
71.00652125,99.53934073,-163.29488120,-19.11685069,-46.90749429,-157.54758156
72.45736930,126.09064979,-52.06249072,-44.35466848,-97.51178543,-73.23127926
-150.93310192,4.64523175,5.00565053,-2.58049209,0.36628569,-0.38027783,2.70941794

>  <Name>
1byj cryst

>  <RI>
0

>  <Rbt.Current_Directory>
/home/itssahil/PROJECTS/Mol_Feturizer/New_Systems/rnas/1byj

>  <Rbt.Executable>
rbdock ($Id: //depot/dev/client3/rdock/2013.1/src/exe/rbdock.cxx#4 $)

>  <Rbt.Library>
libRbt.so (2013.1, Build901 2013/11/27)

>  <Rbt.Parameter_File>
/export/apps/rDock/src/rDock_2013.1_src/data/scripts/dock_solv.prm

>  <Rbt.Receptor>
prm/pocket_docking_3.prm

>  <SCORE>
-57.1077

>  <SCORE.INTER>
-60.1853

>  <SCORE.INTER.CONST>
1

>  <SCORE.INTER.POLAR>
-8.84563

>  <SCORE.INTER.ROT>
6

>  <SCORE.INTER.SOLV>
28.4869

>  <SCORE.INTER.VDW>
-27.7337

>  <SCORE.INTER.norm>
-1.94146

>  <SCORE.INTRA>
2.45073

>  <SCORE.INTRA.DIHEDRAL>
8.87306

>  <SCORE.INTRA.DIHEDRAL.0>
18.4149

>  <SCORE.INTRA.POLAR>
-0.237836

>  <SCORE.INTRA.POLAR.0>
0

>  <SCORE.INTRA.REPUL>
-0.092687

>  <SCORE.INTRA.REPUL.0>
0.092687

>  <SCORE.INTRA.SOLV>
-1.78064

>  <SCORE.INTRA.SOLV.lig_0>
-120.37

>  <SCORE.INTRA.VDW>
0.176598

>  <SCORE.INTRA.VDW.0>
-1.75542

>  <SCORE.INTRA.norm>
0.0790558

>  <SCORE.RESTR>
0.626856

>  <SCORE.RESTR.CAVITY>
0.626856

>  <SCORE.RESTR.norm>
0.0202212

>  <SCORE.SYSTEM>
0

>  <SCORE.SYSTEM.CONST>
0

>  <SCORE.SYSTEM.DIHEDRAL>
0

>  <SCORE.SYSTEM.SOLV>
0

>  <SCORE.SYSTEM.norm>
0

>  <SCORE.heavy>
31

>  <SCORE.norm>
-1.84218

>  <RMSD>
1.546

$$$$
1byj cryst
 OpenBabel11021811383D
libRbt.so/2013.1/901 2013/11/27
 31 33  0  0  0  0  0  0  0  0999 V2000
    9.7150    2.4504   -2.3739 C   0  0  1  0  0  0  0  0  0  0  0  0
    8.5861    2.2896   -3.2915 O   0  0  0  0  0  0  0  0  0  0  0  0
    7.2365    2.2433   -2.7391 C   0  0  2  0  0  0  0  0  0  0  0  0
    6.8448    3.5375   -2.1837 O   0  0  0  0  0  0  0  0  0  0  0  0
    7.1609    1.1240   -1.6567 C   0  0  2  0  0  0  0  0  0  0  0  0
    5.8263    1.0015   -1.0379 N   0  3  0  0  0  0  0  0  0  0  0  0
    8.2407    1.3613   -0.5696 C   0  0  0  0  0  0  0  0  0  0  0  0
    9.6423    1.4436   -1.1928 C   0  0  0  0  0  0  0  0  0  0  0  0
   11.0317    2.2378   -3.1416 C   0  0  0  0  0  0  0  0  0  0  0  0
   10.8825    1.4425   -4.3674 N   0  3  0  0  0  0  0  0  0  0  0  0
    7.4227    5.6944   -3.2249 C   0  0  1  0  0  0  0  0  0  0  0  0
    6.9074    6.8767   -4.0811 C   0  0  0  0  0  0  0  0  0  0  0  0
    5.6405    7.5021   -3.4378 C   0  0  1  0  0  0  0  0  0  0  0  0
    5.2062    8.6746   -4.2210 N   0  3  0  0  0  0  0  0  0  0  0  0
    4.5146    6.4346   -3.3173 C   0  0  1  0  0  0  0  0  0  0  0  0
    5.0004    5.1753   -2.5568 C   0  0  1  0  0  0  0  0  0  0  0  0
    3.9598    4.2144   -2.6569 O   0  0  0  0  0  0  0  0  0  0  0  0
    6.3427    4.5717   -3.0871 C   0  0  2  0  0  0  0  0  0  0  0  0
    8.6817    5.1742   -3.7867 N   0  3  0  0  0  0  0  0  0  0  0  0
    1.1543    4.8866   -2.3920 C   0  0  0  0  0  0  0  0  0  0  0  0
   -0.0138    5.5969   -1.6651 C   0  0  2  0  0  0  0  0  0  0  0  0
   -1.1208    5.6064   -2.5654 O   0  0  0  0  0  0  0  0  0  0  0  0
    0.4175    7.0645   -1.2891 C   0  0  1  0  0  0  0  0  0  0  0  0
    1.0645    7.8359   -2.4892 C   0  0  2  0  0  0  0  0  0  0  0  0
    2.1036    6.9962   -3.2747 C   0  0  1  0  0  0  0  0  0  0  0  0
    3.3782    6.9695   -2.5803 O   0  0  0  0  0  0  0  0  0  0  0  0
    1.6003    5.6564   -3.5402 O   0  0  0  0  0  0  0  0  0  0  0  0
    1.6818    9.0463   -2.0589 O   0  0  0  0  0  0  0  0  0  0  0  0
   -0.7596    7.8157   -0.7518 N   0  3  0  0  0  0  0  0  0  0  0  0
   -0.4797    9.0734   -0.0294 C   0  0  0  0  0  0  0  0  0  0  0  0
   -0.4251    4.7448   -0.4391 C   0  0  0  0  0  0  0  0  0  0  0  0
  1  8  1  0  0  0  0
  1  9  1  6  0  0  0
  1  2  1  0  0  0  0
  2  3  1  0  0  0  0
  3  5  1  0  0  0  0
  3  4  1  1  0  0  0
  5  7  1  0  0  0  0
  5  6  1  1  0  0  0
  7  8  1  0  0  0  0
  9 10  1  0  0  0  0
 11 12  1  0  0  0  0
 11 18  1  0  0  0  0
 11 19  1  6  0  0  0
 12 13  1  0  0  0  0
 13 15  1  0  0  0  0
 13 14  1  6  0  0  0
 15 16  1  0  0  0  0
 15 26  1  1  0  0  0
 16 18  1  0  0  0  0
 16 17  1  6  0  0  0
 18  4  1  1  0  0  0
 20 21  1  0  0  0  0
 20 27  1  0  0  0  0
 21 31  1  1  0  0  0
 21 23  1  0  0  0  0
 21 22  1  0  0  0  0
 23 24  1  0  0  0  0
 23 29  1  6  0  0  0
 24 25  1  0  0  0  0
 24 28  1  1  0  0  0
 25 27  1  0  0  0  0
 25 26  1  1  0  0  0
 29 30  1  0  0  0  0
M  CHG  5   6   1  10   1  14   1  19   1  29   1
M  END
>  <CHROM.1>
-22.81906449,81.93044877,-108.29568929,157.15509867,-107.53381919,-110.17954219
67.23348840,120.73550035,-174.68861136,56.82479807,-74.33905976,65.43047463
-168.75010204,4.73742850,4.99428421,-2.46480645,0.43183678,-0.29283013,2.77132040

>  <Name>
1byj cryst

>  <RI>
0

>  <Rbt.Current_Directory>
/home/itssahil/PROJECTS/Mol_Feturizer/New_Systems/rnas/1byj

>  <Rbt.Executable>
rbdock ($Id: //depot/dev/client3/rdock/2013.1/src/exe/rbdock.cxx#4 $)

>  <Rbt.Library>
libRbt.so (2013.1, Build901 2013/11/27)

>  <Rbt.Parameter_File>
/export/apps/rDock/src/rDock_2013.1_src/data/scripts/dock_solv.prm

>  <Rbt.Receptor>
prm/pocket_docking_6.prm

>  <SCORE>
-46.4523

>  <SCORE.INTER>
-48.1355

>  <SCORE.INTER.CONST>
1

>  <SCORE.INTER.POLAR>
-6.09321

>  <SCORE.INTER.ROT>
6

>  <SCORE.INTER.SOLV>
25.1944

>  <SCORE.INTER.VDW>
-27.7778

>  <SCORE.INTER.norm>
-1.55276

>  <SCORE.INTRA>
1.68325

>  <SCORE.INTRA.DIHEDRAL>
10.6487

>  <SCORE.INTRA.DIHEDRAL.0>
18.4149

>  <SCORE.INTRA.POLAR>
-0.8919

>  <SCORE.INTRA.POLAR.0>
0

>  <SCORE.INTRA.REPUL>
-0.0838475

>  <SCORE.INTRA.REPUL.0>
0.092687

>  <SCORE.INTRA.SOLV>
1.44747

>  <SCORE.INTRA.SOLV.lig_0>
-120.37

>  <SCORE.INTRA.VDW>
-0.913152

>  <SCORE.INTRA.VDW.0>
-1.75542

>  <SCORE.INTRA.norm>
0.0542985

>  <SCORE.RESTR>
0

>  <SCORE.RESTR.CAVITY>
0

>  <SCORE.RESTR.norm>
0

>  <SCORE.SYSTEM>
0

>  <SCORE.SYSTEM.CONST>
0

>  <SCORE.SYSTEM.DIHEDRAL>
0

>  <SCORE.SYSTEM.SOLV>
0

>  <SCORE.SYSTEM.norm>
0

>  <SCORE.heavy>
31

>  <SCORE.norm>
-1.49846

>  <RMSD>
1.548

$$$$
1byj cryst
 OpenBabel11021811383D
libRbt.so/2013.1/901 2013/11/27
 31 33  0  0  0  0  0  0  0  0999 V2000
    9.3686    2.0059   -3.2505 C   0  0  1  0  0  0  0  0  0  0  0  0
    7.9551    2.2136   -3.5686 O   0  0  0  0  0  0  0  0  0  0  0  0
    7.1676    3.0949   -2.7132 C   0  0  2  0  0  0  0  0  0  0  0  0
    7.5966    4.4860   -2.8449 O   0  0  0  0  0  0  0  0  0  0  0  0
    7.2790    2.6126   -1.2349 C   0  0  2  0  0  0  0  0  0  0  0  0
    6.5111    3.4476   -0.2905 N   0  3  0  0  0  0  0  0  0  0  0  0
    8.7681    2.5445   -0.8083 C   0  0  0  0  0  0  0  0  0  0  0  0
    9.5723    1.6402   -1.7543 C   0  0  0  0  0  0  0  0  0  0  0  0
    9.9294    0.8747   -4.1303 C   0  0  0  0  0  0  0  0  0  0  0  0
   10.0494    1.2308   -5.5502 N   0  3  0  0  0  0  0  0  0  0  0  0
    7.3541    6.8621   -3.4497 C   0  0  1  0  0  0  0  0  0  0  0  0
    6.4167    7.9357   -4.0540 C   0  0  0  0  0  0  0  0  0  0  0  0
    5.0658    7.9701   -3.2899 C   0  0  1  0  0  0  0  0  0  0  0  0
    4.2133    9.0488   -3.8251 N   0  3  0  0  0  0  0  0  0  0  0  0
    4.3659    6.5825   -3.3703 C   0  0  1  0  0  0  0  0  0  0  0  0
    5.2937    5.4451   -2.8747 C   0  0  1  0  0  0  0  0  0  0  0  0
    4.6228    4.2247   -3.1515 O   0  0  0  0  0  0  0  0  0  0  0  0
    6.7168    5.4358   -3.5244 C   0  0  2  0  0  0  0  0  0  0  0  0
    8.6690    6.9075   -4.1133 N   0  3  0  0  0  0  0  0  0  0  0  0
    0.9363    4.5419   -2.0475 C   0  0  0  0  0  0  0  0  0  0  0  0
   -0.2221    5.3556   -1.4199 C   0  0  2  0  0  0  0  0  0  0  0  0
   -1.3344    5.2498   -2.3074 O   0  0  0  0  0  0  0  0  0  0  0  0
    0.2226    6.8575   -1.2526 C   0  0  1  0  0  0  0  0  0  0  0  0
    0.8681    7.4502   -2.5511 C   0  0  2  0  0  0  0  0  0  0  0  0
    1.8960    6.5014   -3.2182 C   0  0  1  0  0  0  0  0  0  0  0  0
    3.1746    6.5603   -2.5331 O   0  0  0  0  0  0  0  0  0  0  0  0
    1.3810    5.1420   -3.2933 O   0  0  0  0  0  0  0  0  0  0  0  0
    1.4971    8.7032   -2.2954 O   0  0  0  0  0  0  0  0  0  0  0  0
   -0.9454    7.6855   -0.8185 N   0  3  0  0  0  0  0  0  0  0  0  0
   -0.6556    8.8666    0.0200 C   0  0  0  0  0  0  0  0  0  0  0  0
   -0.6323    4.6847   -0.0858 C   0  0  0  0  0  0  0  0  0  0  0  0
  1  8  1  0  0  0  0
  1  9  1  6  0  0  0
  1  2  1  0  0  0  0
  2  3  1  0  0  0  0
  3  5  1  0  0  0  0
  3  4  1  1  0  0  0
  5  7  1  0  0  0  0
  5  6  1  1  0  0  0
  7  8  1  0  0  0  0
  9 10  1  0  0  0  0
 11 12  1  0  0  0  0
 11 18  1  0  0  0  0
 11 19  1  6  0  0  0
 12 13  1  0  0  0  0
 13 15  1  0  0  0  0
 13 14  1  6  0  0  0
 15 16  1  0  0  0  0
 15 26  1  1  0  0  0
 16 18  1  0  0  0  0
 16 17  1  6  0  0  0
 18  4  1  1  0  0  0
 20 21  1  0  0  0  0
 20 27  1  0  0  0  0
 21 31  1  1  0  0  0
 21 23  1  0  0  0  0
 21 22  1  0  0  0  0
 23 24  1  0  0  0  0
 23 29  1  6  0  0  0
 24 25  1  0  0  0  0
 24 28  1  1  0  0  0
 25 27  1  0  0  0  0
 25 26  1  1  0  0  0
 29 30  1  0  0  0  0
M  CHG  5   6   1  10   1  14   1  19   1  29   1
M  END
>  <CHROM.1>
69.66909384,109.25385756,176.26815288,-60.93881223,-169.26623699,-60.00145823
-62.17431483,110.91370023,-57.17856420,64.65839050,-89.16019467,-61.70620945
-138.02885617,4.59272883,5.24655790,-2.58218198,0.37132941,-0.30655665,2.84117253

>  <Name>
1byj cryst

>  <RI>
0

>  <Rbt.Current_Directory>
/home/itssahil/PROJECTS/Mol_Feturizer/New_Systems/rnas/1byj

>  <Rbt.Executable>
rbdock ($Id: //depot/dev/client3/rdock/2013.1/src/exe/rbdock.cxx#4 $)

>  <Rbt.Library>
libRbt.so (2013.1, Build901 2013/11/27)

>  <Rbt.Parameter_File>
/export/apps/rDock/src/rDock_2013.1_src/data/scripts/dock_solv.prm

>  <Rbt.Receptor>
prm/pocket_docking_2.prm

>  <SCORE>
-64.3735

>  <SCORE.INTER>
-62.9884

>  <SCORE.INTER.CONST>
1

>  <SCORE.INTER.POLAR>
-9.52937

>  <SCORE.INTER.ROT>
6

>  <SCORE.INTER.SOLV>
28.3394

>  <SCORE.INTER.VDW>
-27.2742

>  <SCORE.INTER.norm>
-2.03188

>  <SCORE.INTRA>
-3.74136

>  <SCORE.INTRA.DIHEDRAL>
3.68979

>  <SCORE.INTRA.DIHEDRAL.0>
18.4149

>  <SCORE.INTRA.POLAR>
-1.16962

>  <SCORE.INTRA.POLAR.0>
0

>  <SCORE.INTRA.REPUL>
-0.092687

>  <SCORE.INTRA.REPUL.0>
0.092687

>  <SCORE.INTRA.SOLV>
-0.756203

>  <SCORE.INTRA.SOLV.lig_0>
-120.37

>  <SCORE.INTRA.VDW>
-0.76802

>  <SCORE.INTRA.VDW.0>
-1.75542

>  <SCORE.INTRA.norm>
-0.120689

>  <SCORE.RESTR>
2.35632

>  <SCORE.RESTR.CAVITY>
2.35632

>  <SCORE.RESTR.norm>
0.0760102

>  <SCORE.SYSTEM>
0

>  <SCORE.SYSTEM.CONST>
0

>  <SCORE.SYSTEM.DIHEDRAL>
0

>  <SCORE.SYSTEM.SOLV>
0

>  <SCORE.SYSTEM.norm>
0

>  <SCORE.heavy>
31

>  <SCORE.norm>
-2.07656

>  <RMSD>
1.549

$$$$
1byj cryst
 OpenBabel11021811383D
libRbt.so/2013.1/901 2013/11/27
 31 33  0  0  0  0  0  0  0  0999 V2000
   10.1077    1.9769   -2.4308 C   0  0  1  0  0  0  0  0  0  0  0  0
    8.8544    2.0856   -3.1789 O   0  0  0  0  0  0  0  0  0  0  0  0
    7.7492    2.8323   -2.5877 C   0  0  2  0  0  0  0  0  0  0  0  0
    8.0506    4.2609   -2.5168 O   0  0  0  0  0  0  0  0  0  0  0  0
    7.4359    2.2558   -1.1736 C   0  0  2  0  0  0  0  0  0  0  0  0
    6.3257    2.9518   -0.4938 N   0  3  0  0  0  0  0  0  0  0  0  0
    8.7116    2.2844   -0.2927 C   0  0  0  0  0  0  0  0  0  0  0  0
    9.8636    1.5227   -0.9652 C   0  0  0  0  0  0  0  0  0  0  0  0
   11.0329    0.9643   -3.1285 C   0  0  0  0  0  0  0  0  0  0  0  0
   11.1633    1.1782   -4.5757 N   0  3  0  0  0  0  0  0  0  0  0  0
    8.1493    6.4995   -3.5412 C   0  0  1  0  0  0  0  0  0  0  0  0
    7.3792    7.5619   -4.3627 C   0  0  0  0  0  0  0  0  0  0  0  0
    6.0347    7.9140   -3.6712 C   0  0  1  0  0  0  0  0  0  0  0  0
    5.3483    8.9825   -4.4222 N   0  3  0  0  0  0  0  0  0  0  0  0
    5.1504    6.6410   -3.5330 C   0  0  1  0  0  0  0  0  0  0  0  0
    5.9038    5.4980   -2.8076 C   0  0  1  0  0  0  0  0  0  0  0  0
    5.0743    4.3486   -2.8908 O   0  0  0  0  0  0  0  0  0  0  0  0
    7.3216    5.1814   -3.3880 C   0  0  2  0  0  0  0  0  0  0  0  0
    9.4678    6.2480   -4.1494 N   0  3  0  0  0  0  0  0  0  0  0  0
    1.2631    5.5672   -2.2873 C   0  0  0  0  0  0  0  0  0  0  0  0
    0.3260    6.6791   -1.7551 C   0  0  2  0  0  0  0  0  0  0  0  0
   -0.7441    6.8054   -2.6906 O   0  0  0  0  0  0  0  0  0  0  0  0
    1.1294    8.0287   -1.6346 C   0  0  1  0  0  0  0  0  0  0  0  0
    1.9503    8.3666   -2.9253 C   0  0  2  0  0  0  0  0  0  0  0  0
    2.7286    7.1545   -3.4971 C   0  0  1  0  0  0  0  0  0  0  0  0
    3.9549    6.9297   -2.7532 O   0  0  0  0  0  0  0  0  0  0  0  0
    1.8899    5.9654   -3.5356 O   0  0  0  0  0  0  0  0  0  0  0  0
    2.8659    9.4345   -2.6961 O   0  0  0  0  0  0  0  0  0  0  0  0
    0.1936    9.1460   -1.2966 N   0  3  0  0  0  0  0  0  0  0  0  0
   -0.2152    9.2740    0.1170 C   0  0  0  0  0  0  0  0  0  0  0  0
   -0.2885    6.2086   -0.4138 C   0  0  0  0  0  0  0  0  0  0  0  0
  1  8  1  0  0  0  0
  1  9  1  6  0  0  0
  1  2  1  0  0  0  0
  2  3  1  0  0  0  0
  3  5  1  0  0  0  0
  3  4  1  1  0  0  0
  5  7  1  0  0  0  0
  5  6  1  1  0  0  0
  7  8  1  0  0  0  0
  9 10  1  0  0  0  0
 11 12  1  0  0  0  0
 11 18  1  0  0  0  0
 11 19  1  6  0  0  0
 12 13  1  0  0  0  0
 13 15  1  0  0  0  0
 13 14  1  6  0  0  0
 15 16  1  0  0  0  0
 15 26  1  1  0  0  0
 16 18  1  0  0  0  0
 16 17  1  6  0  0  0
 18  4  1  1  0  0  0
 20 21  1  0  0  0  0
 20 27  1  0  0  0  0
 21 31  1  1  0  0  0
 21 23  1  0  0  0  0
 21 22  1  0  0  0  0
 23 24  1  0  0  0  0
 23 29  1  6  0  0  0
 24 25  1  0  0  0  0
 24 28  1  1  0  0  0
 25 27  1  0  0  0  0
 25 26  1  1  0  0  0
 29 30  1  0  0  0  0
M  CHG  5   6   1  10   1  14   1  19   1  29   1
M  END
>  <CHROM.1>
48.41880816,110.28137250,-158.62698371,37.83677945,-177.81128908,-132.80926955
80.95725575,100.31017411,69.66193226,-177.64636403,-159.04201381,-51.14552080
-136.43351725,5.27862446,5.52841778,-2.58377208,0.44870236,-0.35327509,2.65754512

>  <Name>
1byj cryst

>  <RI>
0

>  <Rbt.Current_Directory>
/home/itssahil/PROJECTS/Mol_Feturizer/New_Systems/rnas/1byj

>  <Rbt.Executable>
rbdock ($Id: //depot/dev/client3/rdock/2013.1/src/exe/rbdock.cxx#4 $)

>  <Rbt.Library>
libRbt.so (2013.1, Build901 2013/11/27)

>  <Rbt.Parameter_File>
/export/apps/rDock/src/rDock_2013.1_src/data/scripts/dock_solv.prm

>  <Rbt.Receptor>
prm/pocket_docking_3.prm

>  <SCORE>
-52.9002

>  <SCORE.INTER>
-51.2482

>  <SCORE.INTER.CONST>
1

>  <SCORE.INTER.POLAR>
-6.62262

>  <SCORE.INTER.ROT>
6

>  <SCORE.INTER.SOLV>
27.3359

>  <SCORE.INTER.VDW>
-28.802

>  <SCORE.INTER.norm>
-1.65317

>  <SCORE.INTRA>
-1.65207

>  <SCORE.INTRA.DIHEDRAL>
9.4489

>  <SCORE.INTRA.DIHEDRAL.0>
18.4149

>  <SCORE.INTRA.POLAR>
-2.27331

>  <SCORE.INTRA.POLAR.0>
0

>  <SCORE.INTRA.REPUL>
-0.0758501

>  <SCORE.INTRA.REPUL.0>
0.092687

>  <SCORE.INTRA.SOLV>
1.40919

>  <SCORE.INTRA.SOLV.lig_0>
-120.37

>  <SCORE.INTRA.VDW>
1.02738

>  <SCORE.INTRA.VDW.0>
-1.75542

>  <SCORE.INTRA.norm>
-0.0532927

>  <SCORE.RESTR>
0

>  <SCORE.RESTR.CAVITY>
0

>  <SCORE.RESTR.norm>
0

>  <SCORE.SYSTEM>
0

>  <SCORE.SYSTEM.CONST>
0

>  <SCORE.SYSTEM.DIHEDRAL>
0

>  <SCORE.SYSTEM.SOLV>
0

>  <SCORE.SYSTEM.norm>
0

>  <SCORE.heavy>
31

>  <SCORE.norm>
-1.70646

>  <RMSD>
1.572

$$$$
1byj cryst
 OpenBabel11021811383D
libRbt.so/2013.1/901 2013/11/27
 31 33  0  0  0  0  0  0  0  0999 V2000
    9.6036    1.6272   -3.0250 C   0  0  1  0  0  0  0  0  0  0  0  0
    8.1814    1.8351   -3.3008 O   0  0  0  0  0  0  0  0  0  0  0  0
    7.3704    2.5311   -2.3075 C   0  0  2  0  0  0  0  0  0  0  0  0
    7.7498    3.9389   -2.2034 O   0  0  0  0  0  0  0  0  0  0  0  0
    7.5102    1.8108   -0.9319 C   0  0  2  0  0  0  0  0  0  0  0  0
    6.7211    2.4469    0.1413 N   0  3  0  0  0  0  0  0  0  0  0  0
    9.0041    1.7248   -0.5258 C   0  0  0  0  0  0  0  0  0  0  0  0
    9.8317    1.0221   -1.6123 C   0  0  0  0  0  0  0  0  0  0  0  0
   10.1965    0.6812   -4.0841 C   0  0  0  0  0  0  0  0  0  0  0  0
   10.1051    1.1951   -5.4569 N   0  3  0  0  0  0  0  0  0  0  0  0
    8.0430    6.1772   -3.1906 C   0  0  1  0  0  0  0  0  0  0  0  0
    7.3923    7.2875   -4.0510 C   0  0  0  0  0  0  0  0  0  0  0  0
    6.0233    7.7075   -3.4517 C   0  0  1  0  0  0  0  0  0  0  0  0
    5.4513    8.8186   -4.2359 N   0  3  0  0  0  0  0  0  0  0  0  0
    5.0632    6.4842   -3.3918 C   0  0  1  0  0  0  0  0  0  0  0  0
    5.6997    5.2953   -2.6293 C   0  0  1  0  0  0  0  0  0  0  0  0
    4.8168    4.1942   -2.7850 O   0  0  0  0  0  0  0  0  0  0  0  0
    7.1358    4.9056   -3.1124 C   0  0  2  0  0  0  0  0  0  0  0  0
    9.3856    5.8584   -3.7074 N   0  3  0  0  0  0  0  0  0  0  0  0
    1.9579    4.7658   -1.4559 C   0  0  0  0  0  0  0  0  0  0  0  0
    0.6678    5.5436   -1.0979 C   0  0  2  0  0  0  0  0  0  0  0  0
   -0.3944    4.9574   -1.8491 O   0  0  0  0  0  0  0  0  0  0  0  0
    0.8500    7.0626   -1.4736 C   0  0  1  0  0  0  0  0  0  0  0  0
    1.4102    7.2692   -2.9218 C   0  0  2  0  0  0  0  0  0  0  0  0
    2.5953    6.3314   -3.2652 C   0  0  1  0  0  0  0  0  0  0  0  0
    3.8329    6.8320   -2.6947 O   0  0  0  0  0  0  0  0  0  0  0  0
    2.3181    4.9644   -2.8490 O   0  0  0  0  0  0  0  0  0  0  0  0
    1.8144    8.6189   -3.1367 O   0  0  0  0  0  0  0  0  0  0  0  0
   -0.4486    7.7855   -1.3017 N   0  3  0  0  0  0  0  0  0  0  0  0
   -0.3977    9.1099   -0.6496 C   0  0  0  0  0  0  0  0  0  0  0  0
    0.3520    5.3156    0.4009 C   0  0  0  0  0  0  0  0  0  0  0  0
  1  8  1  0  0  0  0
  1  9  1  6  0  0  0
  1  2  1  0  0  0  0
  2  3  1  0  0  0  0
  3  5  1  0  0  0  0
  3  4  1  1  0  0  0
  5  7  1  0  0  0  0
  5  6  1  1  0  0  0
  7  8  1  0  0  0  0
  9 10  1  0  0  0  0
 11 12  1  0  0  0  0
 11 18  1  0  0  0  0
 11 19  1  6  0  0  0
 12 13  1  0  0  0  0
 13 15  1  0  0  0  0
 13 14  1  6  0  0  0
 15 16  1  0  0  0  0
 15 26  1  1  0  0  0
 16 18  1  0  0  0  0
 16 17  1  6  0  0  0
 18  4  1  1  0  0  0
 20 21  1  0  0  0  0
 20 27  1  0  0  0  0
 21 31  1  1  0  0  0
 21 23  1  0  0  0  0
 21 22  1  0  0  0  0
 23 24  1  0  0  0  0
 23 29  1  6  0  0  0
 24 25  1  0  0  0  0
 24 28  1  1  0  0  0
 25 27  1  0  0  0  0
 25 26  1  1  0  0  0
 29 30  1  0  0  0  0
M  CHG  5   6   1  10   1  14   1  19   1  29   1
M  END
>  <CHROM.1>
60.83274697,86.46394968,-159.00481307,47.28112176,-165.77829496,82.19419119
-167.97474700,138.23613121,60.00856682,-65.14647616,-102.27463001,-161.67409853
-151.93512374,5.13499512,4.98561784,-2.48144040,0.40690051,-0.36549990,2.68148758

>  <Name>
1byj cryst

>  <RI>
0

>  <Rbt.Current_Directory>
/home/itssahil/PROJECTS/Mol_Feturizer/New_Systems/rnas/1byj

>  <Rbt.Executable>
rbdock ($Id: //depot/dev/client3/rdock/2013.1/src/exe/rbdock.cxx#4 $)

>  <Rbt.Library>
libRbt.so (2013.1, Build901 2013/11/27)

>  <Rbt.Parameter_File>
/export/apps/rDock/src/rDock_2013.1_src/data/scripts/dock_solv.prm

>  <Rbt.Receptor>
prm/pocket_docking_2.prm

>  <SCORE>
-52.3807

>  <SCORE.INTER>
-52.0053

>  <SCORE.INTER.CONST>
1

>  <SCORE.INTER.POLAR>
-6.89816

>  <SCORE.INTER.ROT>
6

>  <SCORE.INTER.SOLV>
27.7563

>  <SCORE.INTER.VDW>
-28.5285

>  <SCORE.INTER.norm>
-1.67759

>  <SCORE.INTRA>
-2.22392

>  <SCORE.INTRA.DIHEDRAL>
2.46998

>  <SCORE.INTRA.DIHEDRAL.0>
18.4149

>  <SCORE.INTRA.POLAR>
-0.015544

>  <SCORE.INTRA.POLAR.0>
0

>  <SCORE.INTRA.REPUL>
-0.092687

>  <SCORE.INTRA.REPUL.0>
0.092687

>  <SCORE.INTRA.SOLV>
-2.46693

>  <SCORE.INTRA.SOLV.lig_0>
-120.37

>  <SCORE.INTRA.VDW>
-1.70916

>  <SCORE.INTRA.VDW.0>
-1.75542

>  <SCORE.INTRA.norm>
-0.0717393

>  <SCORE.RESTR>
1.84857

>  <SCORE.RESTR.CAVITY>
1.84857

>  <SCORE.RESTR.norm>
0.0596312

>  <SCORE.SYSTEM>
0

>  <SCORE.SYSTEM.CONST>
0

>  <SCORE.SYSTEM.DIHEDRAL>
0

>  <SCORE.SYSTEM.SOLV>
0

>  <SCORE.SYSTEM.norm>
0

>  <SCORE.heavy>
31

>  <SCORE.norm>
-1.6897

>  <RMSD>
1.601

$$$$
1byj cryst
 OpenBabel11021811383D
libRbt.so/2013.1/901 2013/11/27
 31 33  0  0  0  0  0  0  0  0999 V2000
    9.4163    1.7743   -3.2016 C   0  0  1  0  0  0  0  0  0  0  0  0
    8.0379    1.9099   -3.6747 O   0  0  0  0  0  0  0  0  0  0  0  0
    7.0833    2.6415   -2.8486 C   0  0  2  0  0  0  0  0  0  0  0  0
    7.4062    4.0662   -2.7986 O   0  0  0  0  0  0  0  0  0  0  0  0
    7.0596    2.0226   -1.4179 C   0  0  2  0  0  0  0  0  0  0  0  0
    6.1178    2.7008   -0.5057 N   0  3  0  0  0  0  0  0  0  0  0  0
    8.4883    2.0202   -0.8155 C   0  0  0  0  0  0  0  0  0  0  0  0
    9.4719    1.2761   -1.7311 C   0  0  0  0  0  0  0  0  0  0  0  0
   10.1704    0.7808   -4.1029 C   0  0  0  0  0  0  0  0  0  0  0  0
   10.2181    1.1791   -5.5158 N   0  3  0  0  0  0  0  0  0  0  0  0
    7.2281    6.4173   -3.5137 C   0  0  1  0  0  0  0  0  0  0  0  0
    6.3118    7.4925   -4.1468 C   0  0  0  0  0  0  0  0  0  0  0  0
    4.9835    7.6111   -3.3521 C   0  0  1  0  0  0  0  0  0  0  0  0
    4.1540    8.6918   -3.9185 N   0  3  0  0  0  0  0  0  0  0  0  0
    4.2353    6.2466   -3.3466 C   0  0  1  0  0  0  0  0  0  0  0  0
    5.1370    5.1028   -2.8187 C   0  0  1  0  0  0  0  0  0  0  0  0
    4.4182    3.8946   -3.0181 O   0  0  0  0  0  0  0  0  0  0  0  0
    6.5413    5.0122   -3.5021 C   0  0  2  0  0  0  0  0  0  0  0  0
    8.5257    6.3844   -4.2112 N   0  3  0  0  0  0  0  0  0  0  0  0
    0.7396    4.4135   -1.9131 C   0  0  0  0  0  0  0  0  0  0  0  0
   -0.3584    5.2936   -1.2671 C   0  0  2  0  0  0  0  0  0  0  0  0
   -1.4971    5.2359   -2.1250 O   0  0  0  0  0  0  0  0  0  0  0  0
    0.1677    6.7720   -1.1300 C   0  0  1  0  0  0  0  0  0  0  0  0
    0.8096    7.3155   -2.4516 C   0  0  2  0  0  0  0  0  0  0  0  0
    1.7695    6.3068   -3.1321 C   0  0  1  0  0  0  0  0  0  0  0  0
    3.0665    6.3066   -2.4800 O   0  0  0  0  0  0  0  0  0  0  0  0
    1.1829    4.9753   -3.1771 O   0  0  0  0  0  0  0  0  0  0  0  0
    1.5091    8.5368   -2.2276 O   0  0  0  0  0  0  0  0  0  0  0  0
   -0.9443    7.6647   -0.6773 N   0  3  0  0  0  0  0  0  0  0  0  0
   -0.5775    8.8118    0.1780 C   0  0  0  0  0  0  0  0  0  0  0  0
   -0.7686    4.6601    0.0852 C   0  0  0  0  0  0  0  0  0  0  0  0
  1  8  1  0  0  0  0
  1  9  1  6  0  0  0
  1  2  1  0  0  0  0
  2  3  1  0  0  0  0
  3  5  1  0  0  0  0
  3  4  1  1  0  0  0
  5  7  1  0  0  0  0
  5  6  1  1  0  0  0
  7  8  1  0  0  0  0
  9 10  1  0  0  0  0
 11 12  1  0  0  0  0
 11 18  1  0  0  0  0
 11 19  1  6  0  0  0
 12 13  1  0  0  0  0
 13 15  1  0  0  0  0
 13 14  1  6  0  0  0
 15 16  1  0  0  0  0
 15 26  1  1  0  0  0
 16 18  1  0  0  0  0
 16 17  1  6  0  0  0
 18  4  1  1  0  0  0
 20 21  1  0  0  0  0
 20 27  1  0  0  0  0
 21 31  1  1  0  0  0
 21 23  1  0  0  0  0
 21 22  1  0  0  0  0
 23 24  1  0  0  0  0
 23 29  1  6  0  0  0
 24 25  1  0  0  0  0
 24 28  1  1  0  0  0
 25 27  1  0  0  0  0
 25 26  1  1  0  0  0
 29 30  1  0  0  0  0
M  CHG  5   6   1  10   1  14   1  19   1  29   1
M  END
>  <CHROM.1>
59.36574564,108.82938696,-170.00102104,-89.11981668,-39.35867372,-39.86837562
55.35864186,108.81610756,73.50988722,-59.21302508,-91.24045214,-67.97828917
-138.49653155,4.49911821,4.97067576,-2.56022961,0.36404534,-0.35035002,2.78254561

>  <Name>
1byj cryst

>  <RI>
0

>  <Rbt.Current_Directory>
/home/itssahil/PROJECTS/Mol_Feturizer/New_Systems/rnas/1byj

>  <Rbt.Executable>
rbdock ($Id: //depot/dev/client3/rdock/2013.1/src/exe/rbdock.cxx#4 $)

>  <Rbt.Library>
libRbt.so (2013.1, Build901 2013/11/27)

>  <Rbt.Parameter_File>
/export/apps/rDock/src/rDock_2013.1_src/data/scripts/dock_solv.prm

>  <Rbt.Receptor>
prm/pocket_docking_6.prm

>  <SCORE>
-62.9418

>  <SCORE.INTER>
-59.0745

>  <SCORE.INTER.CONST>
1

>  <SCORE.INTER.POLAR>
-8.8171

>  <SCORE.INTER.ROT>
6

>  <SCORE.INTER.SOLV>
27.835

>  <SCORE.INTER.VDW>
-26.871

>  <SCORE.INTER.norm>
-1.90563

>  <SCORE.INTRA>
-3.8673

>  <SCORE.INTRA.DIHEDRAL>
7.91601

>  <SCORE.INTRA.DIHEDRAL.0>
18.4149

>  <SCORE.INTRA.POLAR>
-1.71349

>  <SCORE.INTRA.POLAR.0>
0

>  <SCORE.INTRA.REPUL>
-0.092687

>  <SCORE.INTRA.REPUL.0>
0.092687

>  <SCORE.INTRA.SOLV>
0.0449651

>  <SCORE.INTRA.SOLV.lig_0>
-120.37

>  <SCORE.INTRA.VDW>
-1.55848

>  <SCORE.INTRA.VDW.0>
-1.75542

>  <SCORE.INTRA.norm>
-0.124751

>  <SCORE.RESTR>
0

>  <SCORE.RESTR.CAVITY>
0

>  <SCORE.RESTR.norm>
0

>  <SCORE.SYSTEM>
0

>  <SCORE.SYSTEM.CONST>
0

>  <SCORE.SYSTEM.DIHEDRAL>
0

>  <SCORE.SYSTEM.SOLV>
0

>  <SCORE.SYSTEM.norm>
0

>  <SCORE.heavy>
31

>  <SCORE.norm>
-2.03038

>  <RMSD>
1.610

$$$$
1byj cryst
 OpenBabel11021811383D
libRbt.so/2013.1/901 2013/11/27
 31 33  0  0  0  0  0  0  0  0999 V2000
    9.6991    1.8176   -3.0550 C   0  0  1  0  0  0  0  0  0  0  0  0
    8.2561    2.0018   -3.2156 O   0  0  0  0  0  0  0  0  0  0  0  0
    7.5405    2.8110   -2.2349 C   0  0  2  0  0  0  0  0  0  0  0  0
    7.9215    4.2191   -2.3279 O   0  0  0  0  0  0  0  0  0  0  0  0
    7.8144    2.2505   -0.8061 C   0  0  2  0  0  0  0  0  0  0  0  0
    7.1285    3.0091    0.2583 N   0  3  0  0  0  0  0  0  0  0  0  0
    9.3406    2.2018   -0.5373 C   0  0  0  0  0  0  0  0  0  0  0  0
   10.0639    1.3752   -1.6110 C   0  0  0  0  0  0  0  0  0  0  0  0
   10.1925    0.7539   -4.0516 C   0  0  0  0  0  0  0  0  0  0  0  0
   10.1431    1.1863   -5.4544 N   0  3  0  0  0  0  0  0  0  0  0  0
    8.0536    6.3826   -3.4993 C   0  0  1  0  0  0  0  0  0  0  0  0
    7.3062    7.3902   -4.4065 C   0  0  0  0  0  0  0  0  0  0  0  0
    5.9500    7.7940   -3.7682 C   0  0  1  0  0  0  0  0  0  0  0  0
    5.2850    8.8121   -4.6038 N   0  3  0  0  0  0  0  0  0  0  0  0
    5.0559    6.5371   -3.5623 C   0  0  1  0  0  0  0  0  0  0  0  0
    5.7880    5.4428   -2.7458 C   0  0  1  0  0  0  0  0  0  0  0  0
    4.9540    4.2939   -2.7681 O   0  0  0  0  0  0  0  0  0  0  0  0
    7.2154    5.0815   -3.2743 C   0  0  2  0  0  0  0  0  0  0  0  0
    9.3826    6.0849   -4.0619 N   0  3  0  0  0  0  0  0  0  0  0  0
    1.6351    4.8169   -2.4291 C   0  0  0  0  0  0  0  0  0  0  0  0
    0.4389    5.6036   -1.8393 C   0  0  2  0  0  0  0  0  0  0  0  0
   -0.6393    5.4788   -2.7655 O   0  0  0  0  0  0  0  0  0  0  0  0
    0.8461    7.1136   -1.6510 C   0  0  1  0  0  0  0  0  0  0  0  0
    1.5240    7.7253   -2.9239 C   0  0  2  0  0  0  0  0  0  0  0  0
    2.5941    6.8009   -3.5582 C   0  0  1  0  0  0  0  0  0  0  0  0
    3.8466    6.8832   -2.8286 O   0  0  0  0  0  0  0  0  0  0  0  0
    2.1105    5.4315   -3.6564 O   0  0  0  0  0  0  0  0  0  0  0  0
    2.1175    8.9899   -2.6417 O   0  0  0  0  0  0  0  0  0  0  0  0
   -0.3533    7.9153   -1.2549 N   0  3  0  0  0  0  0  0  0  0  0  0
   -0.1047    9.2019   -0.5731 C   0  0  0  0  0  0  0  0  0  0  0  0
   -0.0035    4.9183   -0.5230 C   0  0  0  0  0  0  0  0  0  0  0  0
  1  8  1  0  0  0  0
  1  9  1  6  0  0  0
  1  2  1  0  0  0  0
  2  3  1  0  0  0  0
  3  5  1  0  0  0  0
  3  4  1  1  0  0  0
  5  7  1  0  0  0  0
  5  6  1  1  0  0  0
  7  8  1  0  0  0  0
  9 10  1  0  0  0  0
 11 12  1  0  0  0  0
 11 18  1  0  0  0  0
 11 19  1  6  0  0  0
 12 13  1  0  0  0  0
 13 15  1  0  0  0  0
 13 14  1  6  0  0  0
 15 16  1  0  0  0  0
 15 26  1  1  0  0  0
 16 18  1  0  0  0  0
 16 17  1  6  0  0  0
 18  4  1  1  0  0  0
 20 21  1  0  0  0  0
 20 27  1  0  0  0  0
 21 31  1  1  0  0  0
 21 23  1  0  0  0  0
 21 22  1  0  0  0  0
 23 24  1  0  0  0  0
 23 29  1  6  0  0  0
 24 25  1  0  0  0  0
 24 28  1  1  0  0  0
 25 27  1  0  0  0  0
 25 26  1  1  0  0  0
 29 30  1  0  0  0  0
M  CHG  5   6   1  10   1  14   1  19   1  29   1
M  END
>  <CHROM.1>
69.00216874,86.69870763,-163.35215030,-149.15334675,-169.74727509,-9.45512609
-36.75685162,112.25905260,65.29478731,-168.12091790,-80.43860972,75.88492141
-155.78882823,5.17654807,5.18776558,-2.67343847,0.41268755,-0.32269427,2.68447855

>  <Name>
1byj cryst

>  <RI>
0

>  <Rbt.Current_Directory>
/home/itssahil/PROJECTS/Mol_Feturizer/New_Systems/rnas/1byj

>  <Rbt.Executable>
rbdock ($Id: //depot/dev/client3/rdock/2013.1/src/exe/rbdock.cxx#4 $)

>  <Rbt.Library>
libRbt.so (2013.1, Build901 2013/11/27)

>  <Rbt.Parameter_File>
/export/apps/rDock/src/rDock_2013.1_src/data/scripts/dock_solv.prm

>  <Rbt.Receptor>
prm/pocket_docking_2.prm

>  <SCORE>
-55.7675

>  <SCORE.INTER>
-58.2854

>  <SCORE.INTER.CONST>
1

>  <SCORE.INTER.POLAR>
-8.01382

>  <SCORE.INTER.ROT>
6

>  <SCORE.INTER.SOLV>
29.3552

>  <SCORE.INTER.VDW>
-29.5293

>  <SCORE.INTER.norm>
-1.88017

>  <SCORE.INTRA>
0.494932

>  <SCORE.INTRA.DIHEDRAL>
5.56925

>  <SCORE.INTRA.DIHEDRAL.0>
18.4149

>  <SCORE.INTRA.POLAR>
-0.111313

>  <SCORE.INTRA.POLAR.0>
0

>  <SCORE.INTRA.REPUL>
-0.092687

>  <SCORE.INTRA.REPUL.0>
0.092687

>  <SCORE.INTRA.SOLV>
-1.87762

>  <SCORE.INTRA.SOLV.lig_0>
-120.37

>  <SCORE.INTRA.VDW>
-0.508982

>  <SCORE.INTRA.VDW.0>
-1.75542

>  <SCORE.INTRA.norm>
0.0159656

>  <SCORE.RESTR>
2.02295

>  <SCORE.RESTR.CAVITY>
2.02295

>  <SCORE.RESTR.norm>
0.0652565

>  <SCORE.SYSTEM>
0

>  <SCORE.SYSTEM.CONST>
0

>  <SCORE.SYSTEM.DIHEDRAL>
0

>  <SCORE.SYSTEM.SOLV>
0

>  <SCORE.SYSTEM.norm>
0

>  <SCORE.heavy>
31

>  <SCORE.norm>
-1.79895

>  <RMSD>
1.618

$$$$
1byj cryst
 OpenBabel11021811383D
libRbt.so/2013.1/901 2013/11/27
 31 33  0  0  0  0  0  0  0  0999 V2000
    9.3903    1.7368   -3.2462 C   0  0  1  0  0  0  0  0  0  0  0  0
    7.9802    1.8515   -3.6211 O   0  0  0  0  0  0  0  0  0  0  0  0
    7.0851    2.6102   -2.7541 C   0  0  2  0  0  0  0  0  0  0  0  0
    7.4033    4.0367   -2.7793 O   0  0  0  0  0  0  0  0  0  0  0  0
    7.1697    2.0438   -1.3041 C   0  0  2  0  0  0  0  0  0  0  0  0
    6.2939    2.7523   -0.3501 N   0  3  0  0  0  0  0  0  0  0  0  0
    8.6388    2.0670   -0.8087 C   0  0  0  0  0  0  0  0  0  0  0  0
    9.5564    1.2925   -1.7667 C   0  0  0  0  0  0  0  0  0  0  0  0
   10.0814    0.7131   -4.1641 C   0  0  0  0  0  0  0  0  0  0  0  0
   10.2167    1.1604   -5.5565 N   0  3  0  0  0  0  0  0  0  0  0  0
    7.1754    6.3661   -3.5490 C   0  0  1  0  0  0  0  0  0  0  0  0
    6.2417    7.4026   -4.2202 C   0  0  0  0  0  0  0  0  0  0  0  0
    4.8979    7.5030   -3.4496 C   0  0  1  0  0  0  0  0  0  0  0  0
    4.0498    8.5487   -4.0529 N   0  3  0  0  0  0  0  0  0  0  0  0
    4.1858    6.1196   -3.4258 C   0  0  1  0  0  0  0  0  0  0  0  0
    5.1084    5.0118   -2.8584 C   0  0  1  0  0  0  0  0  0  0  0  0
    4.4249    3.7809   -3.0425 O   0  0  0  0  0  0  0  0  0  0  0  0
    6.5256    4.9439   -3.5173 C   0  0  2  0  0  0  0  0  0  0  0  0
    8.4847    6.3527   -4.2249 N   0  3  0  0  0  0  0  0  0  0  0  0
    0.5346    4.3959   -2.2706 C   0  0  0  0  0  0  0  0  0  0  0  0
   -0.5161    5.2762   -1.5503 C   0  0  2  0  0  0  0  0  0  0  0  0
   -1.6332    5.3959   -2.4299 O   0  0  0  0  0  0  0  0  0  0  0  0
    0.1080    6.6886   -1.2389 C   0  0  1  0  0  0  0  0  0  0  0  0
    0.8205    7.3269   -2.4795 C   0  0  2  0  0  0  0  0  0  0  0  0
    1.7253    6.3330   -3.2510 C   0  0  1  0  0  0  0  0  0  0  0  0
    3.0017    6.1673   -2.5794 O   0  0  0  0  0  0  0  0  0  0  0  0
    1.0488    5.0604   -3.4555 O   0  0  0  0  0  0  0  0  0  0  0  0
    1.5973    8.4624   -2.1073 O   0  0  0  0  0  0  0  0  0  0  0  0
   -0.9506    7.6038   -0.7095 N   0  3  0  0  0  0  0  0  0  0  0  0
   -0.5101    8.6889    0.1908 C   0  0  0  0  0  0  0  0  0  0  0  0
   -1.0046    4.5286   -0.2851 C   0  0  0  0  0  0  0  0  0  0  0  0
  1  8  1  0  0  0  0
  1  9  1  6  0  0  0
  1  2  1  0  0  0  0
  2  3  1  0  0  0  0
  3  5  1  0  0  0  0
  3  4  1  1  0  0  0
  5  7  1  0  0  0  0
  5  6  1  1  0  0  0
  7  8  1  0  0  0  0
  9 10  1  0  0  0  0
 11 12  1  0  0  0  0
 11 18  1  0  0  0  0
 11 19  1  6  0  0  0
 12 13  1  0  0  0  0
 13 15  1  0  0  0  0
 13 14  1  6  0  0  0
 15 16  1  0  0  0  0
 15 26  1  1  0  0  0
 16 18  1  0  0  0  0
 16 17  1  6  0  0  0
 18  4  1  1  0  0  0
 20 21  1  0  0  0  0
 20 27  1  0  0  0  0
 21 31  1  1  0  0  0
 21 23  1  0  0  0  0
 21 22  1  0  0  0  0
 23 24  1  0  0  0  0
 23 29  1  6  0  0  0
 24 25  1  0  0  0  0
 24 28  1  1  0  0  0
 25 27  1  0  0  0  0
 25 26  1  1  0  0  0
 29 30  1  0  0  0  0
M  CHG  5   6   1  10   1  14   1  19   1  29   1
M  END
>  <CHROM.1>
68.78518941,105.29873681,-172.68043800,-155.67516836,-44.35641129,82.36628135
-65.86132144,99.33072036,-63.25052267,63.21116657,-86.42837485,-70.02377819
-138.47715067,4.46582326,4.92753982,-2.62175319,0.36366452,-0.33003835,2.77861166

>  <Name>
1byj cryst

>  <RI>
0

>  <Rbt.Current_Directory>
/home/itssahil/PROJECTS/Mol_Feturizer/New_Systems/rnas/1byj

>  <Rbt.Executable>
rbdock ($Id: //depot/dev/client3/rdock/2013.1/src/exe/rbdock.cxx#4 $)

>  <Rbt.Library>
libRbt.so (2013.1, Build901 2013/11/27)

>  <Rbt.Parameter_File>
/export/apps/rDock/src/rDock_2013.1_src/data/scripts/dock_solv.prm

>  <Rbt.Receptor>
prm/pocket_docking_8.prm

>  <SCORE>
-67.6519

>  <SCORE.INTER>
-64.7078

>  <SCORE.INTER.CONST>
1

>  <SCORE.INTER.POLAR>
-9.50524

>  <SCORE.INTER.ROT>
6

>  <SCORE.INTER.SOLV>
29.2004

>  <SCORE.INTER.VDW>
-28.7879

>  <SCORE.INTER.norm>
-2.08735

>  <SCORE.INTRA>
-2.94407

>  <SCORE.INTRA.DIHEDRAL>
4.64107

>  <SCORE.INTRA.DIHEDRAL.0>
18.4149

>  <SCORE.INTRA.POLAR>
-1.16789

>  <SCORE.INTRA.POLAR.0>
0

>  <SCORE.INTRA.REPUL>
-0.092687

>  <SCORE.INTRA.REPUL.0>
0.092687

>  <SCORE.INTRA.SOLV>
-0.520044

>  <SCORE.INTRA.SOLV.lig_0>
-120.37

>  <SCORE.INTRA.VDW>
-0.570319

>  <SCORE.INTRA.VDW.0>
-1.75542

>  <SCORE.INTRA.norm>
-0.0949699

>  <SCORE.RESTR>
0

>  <SCORE.RESTR.CAVITY>
0

>  <SCORE.RESTR.norm>
0

>  <SCORE.SYSTEM>
0

>  <SCORE.SYSTEM.CONST>
0

>  <SCORE.SYSTEM.DIHEDRAL>
0

>  <SCORE.SYSTEM.SOLV>
0

>  <SCORE.SYSTEM.norm>
0

>  <SCORE.heavy>
31

>  <SCORE.norm>
-2.18232

>  <RMSD>
1.657

$$$$
1byj cryst
 OpenBabel11021811383D
libRbt.so/2013.1/901 2013/11/27
 31 33  0  0  0  0  0  0  0  0999 V2000
    9.0114    1.8478   -3.5141 C   0  0  1  0  0  0  0  0  0  0  0  0
    7.5774    2.0408   -3.2940 O   0  0  0  0  0  0  0  0  0  0  0  0
    7.1412    2.7208   -2.0791 C   0  0  2  0  0  0  0  0  0  0  0  0
    7.5210    4.1323   -2.0945 O   0  0  0  0  0  0  0  0  0  0  0  0
    7.7415    1.9934   -0.8377 C   0  0  2  0  0  0  0  0  0  0  0  0
    7.3533    2.6133    0.4445 N   0  3  0  0  0  0  0  0  0  0  0  0
    9.2857    1.9224   -0.9579 C   0  0  0  0  0  0  0  0  0  0  0  0
    9.7063    1.2363   -2.2663 C   0  0  0  0  0  0  0  0  0  0  0  0
    9.2223    0.9156   -4.7202 C   0  0  0  0  0  0  0  0  0  0  0  0
   10.5672    0.9964   -5.3050 N   0  3  0  0  0  0  0  0  0  0  0  0
    7.7057    6.3394   -3.1738 C   0  0  1  0  0  0  0  0  0  0  0  0
    6.9993    7.3835   -4.0724 C   0  0  0  0  0  0  0  0  0  0  0  0
    5.6172    7.7658   -3.4780 C   0  0  1  0  0  0  0  0  0  0  0  0
    4.9899    8.8174   -4.3012 N   0  3  0  0  0  0  0  0  0  0  0  0
    4.7137    6.5042   -3.3601 C   0  0  1  0  0  0  0  0  0  0  0  0
    5.4088    5.3770   -2.5561 C   0  0  1  0  0  0  0  0  0  0  0  0
    4.5753    4.2321   -2.6591 O   0  0  0  0  0  0  0  0  0  0  0  0
    6.8574    5.0327   -3.0361 C   0  0  2  0  0  0  0  0  0  0  0  0
    9.0575    6.0603   -3.6897 N   0  3  0  0  0  0  0  0  0  0  0  0
    1.8081    4.6647   -1.2957 C   0  0  0  0  0  0  0  0  0  0  0  0
    0.4728    5.3523   -0.9194 C   0  0  2  0  0  0  0  0  0  0  0  0
   -0.5632    4.6588   -1.6136 O   0  0  0  0  0  0  0  0  0  0  0  0
    0.5227    6.8664   -1.3513 C   0  0  1  0  0  0  0  0  0  0  0  0
    1.0185    7.0641   -2.8240 C   0  0  2  0  0  0  0  0  0  0  0  0
    2.2623    6.2095   -3.1768 C   0  0  1  0  0  0  0  0  0  0  0  0
    3.4741    6.8247   -2.6663 O   0  0  0  0  0  0  0  0  0  0  0  0
    2.1071    4.8408   -2.7062 O   0  0  0  0  0  0  0  0  0  0  0  0
    1.3081    8.4325   -3.0973 O   0  0  0  0  0  0  0  0  0  0  0  0
   -0.8227    7.4919   -1.1587 N   0  3  0  0  0  0  0  0  0  0  0  0
   -0.9779    8.4090   -0.0112 C   0  0  0  0  0  0  0  0  0  0  0  0
    0.2238    5.1541    0.5961 C   0  0  0  0  0  0  0  0  0  0  0  0
  1  8  1  0  0  0  0
  1  9  1  6  0  0  0
  1  2  1  0  0  0  0
  2  3  1  0  0  0  0
  3  5  1  0  0  0  0
  3  4  1  6  0  0  0
  5  7  1  0  0  0  0
  5  6  1  1  0  0  0
  7  8  1  0  0  0  0
  9 10  1  0  0  0  0
 11 12  1  0  0  0  0
 11 18  1  0  0  0  0
 11 19  1  6  0  0  0
 12 13  1  0  0  0  0
 13 15  1  0  0  0  0
 13 14  1  6  0  0  0
 15 16  1  0  0  0  0
 15 26  1  1  0  0  0
 16 18  1  0  0  0  0
 16 17  1  6  0  0  0
 18  4  1  1  0  0  0
 20 21  1  0  0  0  0
 20 27  1  0  0  0  0
 21 31  1  1  0  0  0
 21 23  1  0  0  0  0
 21 22  1  0  0  0  0
 23 24  1  0  0  0  0
 23 29  1  6  0  0  0
 24 25  1  0  0  0  0
 24 28  1  1  0  0  0
 25 27  1  0  0  0  0
 25 26  1  1  0  0  0
 29 30  1  0  0  0  0
M  CHG  5   6   1  10   1  14   1  19   1  29   1
M  END
>  <CHROM.1>
160.96262553,69.21497674,-162.94811699,177.22236502,63.66598975,-60.60619864
64.89208487,140.30085563,64.71796016,-60.99545507,-133.22245647,-162.85012627
-154.42134677,4.88743586,4.97472258,-2.44295716,0.34094779,-0.37693747,2.65876544

>  <Name>
1byj cryst

>  <RI>
0

>  <Rbt.Current_Directory>
/home/itssahil/PROJECTS/Mol_Feturizer/New_Systems/rnas/1byj

>  <Rbt.Executable>
rbdock ($Id: //depot/dev/client3/rdock/2013.1/src/exe/rbdock.cxx#4 $)

>  <Rbt.Library>
libRbt.so (2013.1, Build901 2013/11/27)

>  <Rbt.Parameter_File>
/export/apps/rDock/src/rDock_2013.1_src/data/scripts/dock_solv.prm

>  <Rbt.Receptor>
prm/pocket_docking_2.prm

>  <SCORE>
-54.0059

>  <SCORE.INTER>
-50.79

>  <SCORE.INTER.CONST>
1

>  <SCORE.INTER.POLAR>
-7.07767

>  <SCORE.INTER.ROT>
6

>  <SCORE.INTER.SOLV>
28.6798

>  <SCORE.INTER.VDW>
-27.4277

>  <SCORE.INTER.norm>
-1.63839

>  <SCORE.INTRA>
-5.46094

>  <SCORE.INTRA.DIHEDRAL>
-2.38534

>  <SCORE.INTRA.DIHEDRAL.0>
18.4149

>  <SCORE.INTRA.POLAR>
-0.0117429

>  <SCORE.INTRA.POLAR.0>
0

>  <SCORE.INTRA.REPUL>
-0.092687

>  <SCORE.INTRA.REPUL.0>
0.092687

>  <SCORE.INTRA.SOLV>
-3.84237

>  <SCORE.INTRA.SOLV.lig_0>
-120.37

>  <SCORE.INTRA.VDW>
-1.84372

>  <SCORE.INTRA.VDW.0>
-1.75542

>  <SCORE.INTRA.norm>
-0.176159

>  <SCORE.RESTR>
2.24498

>  <SCORE.RESTR.CAVITY>
2.24498

>  <SCORE.RESTR.norm>
0.0724188

>  <SCORE.SYSTEM>
0

>  <SCORE.SYSTEM.CONST>
0

>  <SCORE.SYSTEM.DIHEDRAL>
0

>  <SCORE.SYSTEM.SOLV>
0

>  <SCORE.SYSTEM.norm>
0

>  <SCORE.heavy>
31

>  <SCORE.norm>
-1.74213

>  <RMSD>
1.664

$$$$
1byj cryst
 OpenBabel11021811383D
libRbt.so/2013.1/901 2013/11/27
 31 33  0  0  0  0  0  0  0  0999 V2000
    9.5400    1.7784   -3.2235 C   0  0  1  0  0  0  0  0  0  0  0  0
    8.1519    2.0613   -3.5910 O   0  0  0  0  0  0  0  0  0  0  0  0
    7.3386    2.8665   -2.6861 C   0  0  2  0  0  0  0  0  0  0  0  0
    7.8069    4.2505   -2.6398 O   0  0  0  0  0  0  0  0  0  0  0  0
    7.3558    2.2222   -1.2666 C   0  0  2  0  0  0  0  0  0  0  0  0
    6.5560    2.9712   -0.2775 N   0  3  0  0  0  0  0  0  0  0  0  0
    8.8167    2.0639   -0.7719 C   0  0  0  0  0  0  0  0  0  0  0  0
    9.6511    1.2452   -1.7684 C   0  0  0  0  0  0  0  0  0  0  0  0
   10.1225    0.7343   -4.1923 C   0  0  0  0  0  0  0  0  0  0  0  0
   10.2551    1.2151   -5.5738 N   0  3  0  0  0  0  0  0  0  0  0  0
    8.0457    6.5303   -3.5430 C   0  0  1  0  0  0  0  0  0  0  0  0
    7.3563    7.6674   -4.3358 C   0  0  0  0  0  0  0  0  0  0  0  0
    6.0034    8.0472   -3.6760 C   0  0  1  0  0  0  0  0  0  0  0  0
    5.3953    9.1829   -4.3951 N   0  3  0  0  0  0  0  0  0  0  0  0
    5.0580    6.8118   -3.6357 C   0  0  1  0  0  0  0  0  0  0  0  0
    5.7307    5.6000   -2.9436 C   0  0  1  0  0  0  0  0  0  0  0  0
    4.8542    4.4963   -3.1159 O   0  0  0  0  0  0  0  0  0  0  0  0
    7.1541    5.2465   -3.4881 C   0  0  2  0  0  0  0  0  0  0  0  0
    9.3738    6.2479   -4.1154 N   0  3  0  0  0  0  0  0  0  0  0  0
    1.7529    4.9314   -2.4927 C   0  0  0  0  0  0  0  0  0  0  0  0
    0.5284    5.6432   -1.8670 C   0  0  2  0  0  0  0  0  0  0  0  0
   -0.5582    5.4812   -2.7776 O   0  0  0  0  0  0  0  0  0  0  0  0
    0.8606    7.1682   -1.6541 C   0  0  1  0  0  0  0  0  0  0  0  0
    1.4836    7.8395   -2.9251 C   0  0  2  0  0  0  0  0  0  0  0  0
    2.5885    6.9846   -3.5960 C   0  0  1  0  0  0  0  0  0  0  0  0
    3.8477    7.1171   -2.8857 O   0  0  0  0  0  0  0  0  0  0  0  0
    2.1743    5.5942   -3.7146 O   0  0  0  0  0  0  0  0  0  0  0  0
    2.0161    9.1273   -2.6264 O   0  0  0  0  0  0  0  0  0  0  0  0
   -0.3714    7.8987   -1.2215 N   0  3  0  0  0  0  0  0  0  0  0  0
   -0.1827    9.0679   -0.3388 C   0  0  0  0  0  0  0  0  0  0  0  0
    0.1451    4.9099   -0.5580 C   0  0  0  0  0  0  0  0  0  0  0  0
  1  8  1  0  0  0  0
  1  9  1  6  0  0  0
  1  2  1  0  0  0  0
  2  3  1  0  0  0  0
  3  5  1  0  0  0  0
  3  4  1  1  0  0  0
  5  7  1  0  0  0  0
  5  6  1  1  0  0  0
  7  8  1  0  0  0  0
  9 10  1  0  0  0  0
 11 12  1  0  0  0  0
 11 18  1  0  0  0  0
 11 19  1  6  0  0  0
 12 13  1  0  0  0  0
 13 15  1  0  0  0  0
 13 14  1  6  0  0  0
 15 16  1  0  0  0  0
 15 26  1  1  0  0  0
 16 18  1  0  0  0  0
 16 17  1  6  0  0  0
 18  4  1  1  0  0  0
 20 21  1  0  0  0  0
 20 27  1  0  0  0  0
 21 31  1  1  0  0  0
 21 23  1  0  0  0  0
 21 22  1  0  0  0  0
 23 24  1  0  0  0  0
 23 29  1  6  0  0  0
 24 25  1  0  0  0  0
 24 28  1  1  0  0  0
 25 27  1  0  0  0  0
 25 26  1  1  0  0  0
 29 30  1  0  0  0  0
M  CHG  5   6   1  10   1  14   1  19   1  29   1
M  END
>  <CHROM.1>
66.20876785,96.27875056,-165.51452241,-68.35808278,-165.31510160,-138.20251675
-149.69820341,120.83097748,-70.98559908,60.32627069,-89.69246088,-62.40761081
-157.48791485,5.10133031,5.27413546,-2.78530118,0.44316966,-0.32410169,2.78342582

>  <Name>
1byj cryst

>  <RI>
0

>  <Rbt.Current_Directory>
/home/itssahil/PROJECTS/Mol_Feturizer/New_Systems/rnas/1byj

>  <Rbt.Executable>
rbdock ($Id: //depot/dev/client3/rdock/2013.1/src/exe/rbdock.cxx#4 $)

>  <Rbt.Library>
libRbt.so (2013.1, Build901 2013/11/27)

>  <Rbt.Parameter_File>
/export/apps/rDock/src/rDock_2013.1_src/data/scripts/dock_solv.prm

>  <Rbt.Receptor>
prm/pocket_docking_3.prm

>  <SCORE>
-57.9821

>  <SCORE.INTER>
-60.8277

>  <SCORE.INTER.CONST>
1

>  <SCORE.INTER.POLAR>
-8.65619

>  <SCORE.INTER.ROT>
6

>  <SCORE.INTER.SOLV>
29.0153

>  <SCORE.INTER.VDW>
-28.9696

>  <SCORE.INTER.norm>
-1.96218

>  <SCORE.INTRA>
2.1782

>  <SCORE.INTRA.DIHEDRAL>
4.95262

>  <SCORE.INTRA.DIHEDRAL.0>
18.4149

>  <SCORE.INTRA.POLAR>
-0.00205257

>  <SCORE.INTRA.POLAR.0>
0

>  <SCORE.INTRA.REPUL>
-0.092687

>  <SCORE.INTRA.REPUL.0>
0.092687

>  <SCORE.INTRA.SOLV>
-2.01596

>  <SCORE.INTRA.SOLV.lig_0>
-120.37

>  <SCORE.INTRA.VDW>
1.18029

>  <SCORE.INTRA.VDW.0>
-1.75542

>  <SCORE.INTRA.norm>
0.0702646

>  <SCORE.RESTR>
0.667366

>  <SCORE.RESTR.CAVITY>
0.667366

>  <SCORE.RESTR.norm>
0.0215279

>  <SCORE.SYSTEM>
0

>  <SCORE.SYSTEM.CONST>
0

>  <SCORE.SYSTEM.DIHEDRAL>
0

>  <SCORE.SYSTEM.SOLV>
0

>  <SCORE.SYSTEM.norm>
0

>  <SCORE.heavy>
31

>  <SCORE.norm>
-1.87039

>  <RMSD>
1.667

$$$$
1byj cryst
 OpenBabel11021811383D
libRbt.so/2013.1/901 2013/11/27
 31 33  0  0  0  0  0  0  0  0999 V2000
    9.1898    1.5898   -3.2719 C   0  0  1  0  0  0  0  0  0  0  0  0
    7.7528    1.7788   -3.4754 O   0  0  0  0  0  0  0  0  0  0  0  0
    6.9994    2.5378   -2.4830 C   0  0  2  0  0  0  0  0  0  0  0  0
    7.3784    3.9496   -2.4936 O   0  0  0  0  0  0  0  0  0  0  0  0
    7.2237    1.9089   -1.0743 C   0  0  2  0  0  0  0  0  0  0  0  0
    6.4971    2.6134    0.0003 N   0  3  0  0  0  0  0  0  0  0  0  0
    8.7394    1.8500   -0.7531 C   0  0  0  0  0  0  0  0  0  0  0  0
    9.5040    1.0781   -1.8390 C   0  0  0  0  0  0  0  0  0  0  0  0
    9.7226    0.5768   -4.3006 C   0  0  0  0  0  0  0  0  0  0  0  0
    9.3712    0.9004   -5.6895 N   0  3  0  0  0  0  0  0  0  0  0  0
    7.5154    6.0944   -3.6983 C   0  0  1  0  0  0  0  0  0  0  0  0
    6.7230    7.1763   -4.4718 C   0  0  0  0  0  0  0  0  0  0  0  0
    5.5491    7.7115   -3.6085 C   0  0  1  0  0  0  0  0  0  0  0  0
    4.8511    8.7952   -4.3262 N   0  3  0  0  0  0  0  0  0  0  0  0
    4.5849    6.5499   -3.2307 C   0  0  1  0  0  0  0  0  0  0  0  0
    5.3376    5.3836   -2.5426 C   0  0  1  0  0  0  0  0  0  0  0  0
    4.4024    4.3245   -2.4014 O   0  0  0  0  0  0  0  0  0  0  0  0
    6.6050    4.8831   -3.3110 C   0  0  2  0  0  0  0  0  0  0  0  0
    8.6867    5.6672   -4.4837 N   0  3  0  0  0  0  0  0  0  0  0  0
    0.9187    5.5269   -2.6238 C   0  0  0  0  0  0  0  0  0  0  0  0
   -0.0642    6.2203   -1.6488 C   0  0  2  0  0  0  0  0  0  0  0  0
   -1.1260    6.7553   -2.4378 O   0  0  0  0  0  0  0  0  0  0  0  0
    0.6888    7.3640   -0.8702 C   0  0  1  0  0  0  0  0  0  0  0  0
    1.5137    8.3031   -1.8145 C   0  0  2  0  0  0  0  0  0  0  0  0
    2.3421    7.5371   -2.8770 C   0  0  1  0  0  0  0  0  0  0  0  0
    3.5659    7.0123   -2.2988 O   0  0  0  0  0  0  0  0  0  0  0  0
    1.5469    6.4935   -3.5075 O   0  0  0  0  0  0  0  0  0  0  0  0
    2.3875    9.1505   -1.0732 O   0  0  0  0  0  0  0  0  0  0  0  0
   -0.2906    8.1558   -0.0626 N   0  3  0  0  0  0  0  0  0  0  0  0
    0.2352    8.8666    1.1206 C   0  0  0  0  0  0  0  0  0  0  0  0
   -0.6788    5.1459   -0.7182 C   0  0  0  0  0  0  0  0  0  0  0  0
  1  8  1  0  0  0  0
  1  9  1  6  0  0  0
  1  2  1  0  0  0  0
  2  3  1  0  0  0  0
  3  5  1  0  0  0  0
  3  4  1  1  0  0  0
  5  7  1  0  0  0  0
  5  6  1  1  0  0  0
  7  8  1  0  0  0  0
  9 10  1  0  0  0  0
 11 12  1  0  0  0  0
 11 18  1  0  0  0  0
 11 19  1  6  0  0  0
 12 13  1  0  0  0  0
 13 15  1  0  0  0  0
 13 14  1  6  0  0  0
 15 16  1  0  0  0  0
 15 26  1  1  0  0  0
 16 18  1  0  0  0  0
 16 17  1  6  0  0  0
 18  4  1  1  0  0  0
 20 21  1  0  0  0  0
 20 27  1  0  0  0  0
 21 31  1  1  0  0  0
 21 23  1  0  0  0  0
 21 22  1  0  0  0  0
 23 24  1  0  0  0  0
 23 29  1  6  0  0  0
 24 25  1  0  0  0  0
 24 28  1  1  0  0  0
 25 27  1  0  0  0  0
 25 26  1  1  0  0  0
 29 30  1  0  0  0  0
M  CHG  5   6   1  10   1  14   1  19   1  29   1
M  END
>  <CHROM.1>
52.17603536,93.45799202,-153.92305022,-176.43637241,-12.16974513,-99.51823235
-172.77273295,89.82919775,60.70578553,-153.90643314,-83.59343814,-67.03235442
-165.92162603,4.74020657,5.24220859,-2.47038069,0.41372759,-0.47417211,2.65972666

>  <Name>
1byj cryst

>  <RI>
0

>  <Rbt.Current_Directory>
/home/itssahil/PROJECTS/Mol_Feturizer/New_Systems/rnas/1byj

>  <Rbt.Executable>
rbdock ($Id: //depot/dev/client3/rdock/2013.1/src/exe/rbdock.cxx#4 $)

>  <Rbt.Library>
libRbt.so (2013.1, Build901 2013/11/27)

>  <Rbt.Parameter_File>
/export/apps/rDock/src/rDock_2013.1_src/data/scripts/dock_solv.prm

>  <Rbt.Receptor>
prm/pocket_docking_4.prm

>  <SCORE>
-45.7822

>  <SCORE.INTER>
-46.5938

>  <SCORE.INTER.CONST>
1

>  <SCORE.INTER.POLAR>
-6.70684

>  <SCORE.INTER.ROT>
6

>  <SCORE.INTER.SOLV>
29.47

>  <SCORE.INTER.VDW>
-26.1298

>  <SCORE.INTER.norm>
-1.50303

>  <SCORE.INTRA>
0.811686

>  <SCORE.INTRA.DIHEDRAL>
4.37095

>  <SCORE.INTRA.DIHEDRAL.0>
18.4149

>  <SCORE.INTRA.POLAR>
-0.0452056

>  <SCORE.INTRA.POLAR.0>
0

>  <SCORE.INTRA.REPUL>
-0.092687

>  <SCORE.INTRA.REPUL.0>
0.092687

>  <SCORE.INTRA.SOLV>
-0.797409

>  <SCORE.INTRA.SOLV.lig_0>
-120.37

>  <SCORE.INTRA.VDW>
-0.357951

>  <SCORE.INTRA.VDW.0>
-1.75542

>  <SCORE.INTRA.norm>
0.0261834

>  <SCORE.RESTR>
0

>  <SCORE.RESTR.CAVITY>
0

>  <SCORE.RESTR.norm>
0

>  <SCORE.SYSTEM>
0

>  <SCORE.SYSTEM.CONST>
0

>  <SCORE.SYSTEM.DIHEDRAL>
0

>  <SCORE.SYSTEM.SOLV>
0

>  <SCORE.SYSTEM.norm>
0

>  <SCORE.heavy>
31

>  <SCORE.norm>
-1.47684

>  <RMSD>
1.675

$$$$
1byj cryst
 OpenBabel11021811383D
libRbt.so/2013.1/901 2013/11/27
 31 33  0  0  0  0  0  0  0  0999 V2000
    9.9181    2.2566   -2.7429 C   0  0  1  0  0  0  0  0  0  0  0  0
    8.6292    2.0758   -3.4123 O   0  0  0  0  0  0  0  0  0  0  0  0
    7.4071    2.2227   -2.6289 C   0  0  2  0  0  0  0  0  0  0  0  0
    7.2084    3.6086   -2.2089 O   0  0  0  0  0  0  0  0  0  0  0  0
    7.4664    1.2681   -1.3979 C   0  0  2  0  0  0  0  0  0  0  0  0
    6.2668    1.3472   -0.5413 N   0  3  0  0  0  0  0  0  0  0  0  0
    8.7439    1.5512   -0.5660 C   0  0  0  0  0  0  0  0  0  0  0  0
   10.0058    1.4260   -1.4329 C   0  0  0  0  0  0  0  0  0  0  0  0
   11.0512    1.8285   -3.6920 C   0  0  0  0  0  0  0  0  0  0  0  0
   10.8169    0.5375   -4.3521 N   0  3  0  0  0  0  0  0  0  0  0  0
    7.7873    5.6465   -3.4668 C   0  0  1  0  0  0  0  0  0  0  0  0
    7.2594    6.7628   -4.4005 C   0  0  0  0  0  0  0  0  0  0  0  0
    6.0426    7.4801   -3.7563 C   0  0  1  0  0  0  0  0  0  0  0  0
    5.5991    8.5907   -4.6203 N   0  3  0  0  0  0  0  0  0  0  0  0
    4.8977    6.4613   -3.4863 C   0  0  1  0  0  0  0  0  0  0  0  0
    5.3893    5.2607   -2.6395 C   0  0  1  0  0  0  0  0  0  0  0  0
    4.3211    4.3259   -2.6026 O   0  0  0  0  0  0  0  0  0  0  0  0
    6.6876    4.5729   -3.1767 C   0  0  2  0  0  0  0  0  0  0  0  0
    9.0029    5.0415   -4.0390 N   0  3  0  0  0  0  0  0  0  0  0  0
    1.2816    5.4461   -2.3037 C   0  0  0  0  0  0  0  0  0  0  0  0
    0.2590    6.4250   -1.6764 C   0  0  2  0  0  0  0  0  0  0  0  0
   -0.8471    6.5043   -2.5743 O   0  0  0  0  0  0  0  0  0  0  0  0
    0.9321    7.8367   -1.4878 C   0  0  1  0  0  0  0  0  0  0  0  0
    1.6756    8.3340   -2.7738 C   0  0  2  0  0  0  0  0  0  0  0  0
    2.5487    7.2425   -3.4433 C   0  0  1  0  0  0  0  0  0  0  0  0
    3.8137    7.0929   -2.7469 O   0  0  0  0  0  0  0  0  0  0  0  0
    1.8276    5.9816   -3.5387 O   0  0  0  0  0  0  0  0  0  0  0  0
    2.4908    9.4701   -2.4981 O   0  0  0  0  0  0  0  0  0  0  0  0
   -0.0959    8.8333   -1.0538 N   0  3  0  0  0  0  0  0  0  0  0  0
   -0.4307    8.8684    0.3845 C   0  0  0  0  0  0  0  0  0  0  0  0
   -0.2648    5.8131   -0.3537 C   0  0  0  0  0  0  0  0  0  0  0  0
  1  8  1  0  0  0  0
  1  9  1  6  0  0  0
  1  2  1  0  0  0  0
  2  3  1  0  0  0  0
  3  5  1  0  0  0  0
  3  4  1  1  0  0  0
  5  7  1  0  0  0  0
  5  6  1  1  0  0  0
  7  8  1  0  0  0  0
  9 10  1  0  0  0  0
 11 12  1  0  0  0  0
 11 18  1  0  0  0  0
 11 19  1  6  0  0  0
 12 13  1  0  0  0  0
 13 15  1  0  0  0  0
 13 14  1  6  0  0  0
 15 16  1  0  0  0  0
 15 26  1  1  0  0  0
 16 18  1  0  0  0  0
 16 17  1  6  0  0  0
 18  4  1  1  0  0  0
 20 21  1  0  0  0  0
 20 27  1  0  0  0  0
 21 31  1  1  0  0  0
 21 23  1  0  0  0  0
 21 22  1  0  0  0  0
 23 24  1  0  0  0  0
 23 29  1  6  0  0  0
 24 25  1  0  0  0  0
 24 28  1  1  0  0  0
 25 27  1  0  0  0  0
 25 26  1  1  0  0  0
 29 30  1  0  0  0  0
M  CHG  5   6   1  10   1  14   1  19   1  29   1
M  END
>  <CHROM.1>
-46.95820421,78.21660787,-114.61471477,59.35643367,40.96278304,144.90012819
77.22142711,113.40847020,-68.46777584,60.22340021,-156.64005274,57.85146018
-159.93761602,5.06640884,5.16930974,-2.56575101,0.45651484,-0.38391638,2.65976707

>  <Name>
1byj cryst

>  <RI>
0

>  <Rbt.Current_Directory>
/home/itssahil/PROJECTS/Mol_Feturizer/New_Systems/rnas/1byj

>  <Rbt.Executable>
rbdock ($Id: //depot/dev/client3/rdock/2013.1/src/exe/rbdock.cxx#4 $)

>  <Rbt.Library>
libRbt.so (2013.1, Build901 2013/11/27)

>  <Rbt.Parameter_File>
/export/apps/rDock/src/rDock_2013.1_src/data/scripts/dock_solv.prm

>  <Rbt.Receptor>
prm/pocket_docking_3.prm

>  <SCORE>
-36.6498

>  <SCORE.INTER>
-37.6602

>  <SCORE.INTER.CONST>
1

>  <SCORE.INTER.POLAR>
-3.35857

>  <SCORE.INTER.ROT>
6

>  <SCORE.INTER.SOLV>
27.4857

>  <SCORE.INTER.VDW>
-30.6734

>  <SCORE.INTER.norm>
-1.21484

>  <SCORE.INTRA>
1.01039

>  <SCORE.INTRA.DIHEDRAL>
5.07423

>  <SCORE.INTRA.DIHEDRAL.0>
18.4149

>  <SCORE.INTRA.POLAR>
-0.221654

>  <SCORE.INTRA.POLAR.0>
0

>  <SCORE.INTRA.REPUL>
-0.092687

>  <SCORE.INTRA.REPUL.0>
0.092687

>  <SCORE.INTRA.SOLV>
0.756087

>  <SCORE.INTRA.SOLV.lig_0>
-120.37

>  <SCORE.INTRA.VDW>
-0.687708

>  <SCORE.INTRA.VDW.0>
-1.75542

>  <SCORE.INTRA.norm>
0.0325933

>  <SCORE.RESTR>
0

>  <SCORE.RESTR.CAVITY>
0

>  <SCORE.RESTR.norm>
0

>  <SCORE.SYSTEM>
0

>  <SCORE.SYSTEM.CONST>
0

>  <SCORE.SYSTEM.DIHEDRAL>
0

>  <SCORE.SYSTEM.SOLV>
0

>  <SCORE.SYSTEM.norm>
0

>  <SCORE.heavy>
31

>  <SCORE.norm>
-1.18225

>  <RMSD>
1.677

$$$$
1byj cryst
 OpenBabel11021811383D
libRbt.so/2013.1/901 2013/11/27
 31 33  0  0  0  0  0  0  0  0999 V2000
    9.7562    1.8072   -3.1892 C   0  0  1  0  0  0  0  0  0  0  0  0
    8.3269    2.0189   -3.4224 O   0  0  0  0  0  0  0  0  0  0  0  0
    7.5735    2.8231   -2.4662 C   0  0  2  0  0  0  0  0  0  0  0  0
    7.9817    4.2259   -2.5133 O   0  0  0  0  0  0  0  0  0  0  0  0
    7.7621    2.2334   -1.0354 C   0  0  2  0  0  0  0  0  0  0  0  0
    7.0331    2.9851    0.0050 N   0  3  0  0  0  0  0  0  0  0  0  0
    9.2709    2.1539   -0.6873 C   0  0  0  0  0  0  0  0  0  0  0  0
   10.0367    1.3337   -1.7363 C   0  0  0  0  0  0  0  0  0  0  0  0
   10.2845    0.7526   -4.1776 C   0  0  0  0  0  0  0  0  0  0  0  0
   10.2737    1.1938   -5.5785 N   0  3  0  0  0  0  0  0  0  0  0  0
    8.0626    6.4792   -3.5065 C   0  0  1  0  0  0  0  0  0  0  0  0
    7.2923    7.5380   -4.3325 C   0  0  0  0  0  0  0  0  0  0  0  0
    5.9255    7.8560   -3.6689 C   0  0  1  0  0  0  0  0  0  0  0  0
    5.2371    8.9215   -4.4225 N   0  3  0  0  0  0  0  0  0  0  0  0
    5.0622    6.5652   -3.5681 C   0  0  1  0  0  0  0  0  0  0  0  0
    5.8195    5.4269   -2.8395 C   0  0  1  0  0  0  0  0  0  0  0  0
    5.0140    4.2635   -2.9572 O   0  0  0  0  0  0  0  0  0  0  0  0
    7.2564    5.1442   -3.3900 C   0  0  2  0  0  0  0  0  0  0  0  0
    9.3995    6.2602   -4.0862 N   0  3  0  0  0  0  0  0  0  0  0  0
    1.5989    4.7848   -2.4472 C   0  0  0  0  0  0  0  0  0  0  0  0
    0.4110    5.5838   -1.8572 C   0  0  2  0  0  0  0  0  0  0  0  0
   -0.6633    5.4839   -2.7911 O   0  0  0  0  0  0  0  0  0  0  0  0
    0.8395    7.0857   -1.6520 C   0  0  1  0  0  0  0  0  0  0  0  0
    1.5343    7.6992   -2.9149 C   0  0  2  0  0  0  0  0  0  0  0  0
    2.5944    6.7649   -3.5515 C   0  0  1  0  0  0  0  0  0  0  0  0
    3.8434    6.8215   -2.8135 O   0  0  0  0  0  0  0  0  0  0  0  0
    2.0910    5.4039   -3.6656 O   0  0  0  0  0  0  0  0  0  0  0  0
    2.1449    8.9520   -2.6170 O   0  0  0  0  0  0  0  0  0  0  0  0
   -0.3503    7.9015   -1.2555 N   0  3  0  0  0  0  0  0  0  0  0  0
   -0.0859    9.1969   -0.5968 C   0  0  0  0  0  0  0  0  0  0  0  0
   -0.0498    4.8928   -0.5502 C   0  0  0  0  0  0  0  0  0  0  0  0
  1  8  1  0  0  0  0
  1  9  1  6  0  0  0
  1  2  1  0  0  0  0
  2  3  1  0  0  0  0
  3  5  1  0  0  0  0
  3  4  1  1  0  0  0
  5  7  1  0  0  0  0
  5  6  1  1  0  0  0
  7  8  1  0  0  0  0
  9 10  1  0  0  0  0
 11 12  1  0  0  0  0
 11 18  1  0  0  0  0
 11 19  1  6  0  0  0
 12 13  1  0  0  0  0
 13 15  1  0  0  0  0
 13 14  1  6  0  0  0
 15 16  1  0  0  0  0
 15 26  1  1  0  0  0
 16 18  1  0  0  0  0
 16 17  1  6  0  0  0
 18  4  1  1  0  0  0
 20 21  1  0  0  0  0
 20 27  1  0  0  0  0
 21 31  1  1  0  0  0
 21 23  1  0  0  0  0
 21 22  1  0  0  0  0
 23 24  1  0  0  0  0
 23 29  1  6  0  0  0
 24 25  1  0  0  0  0
 24 28  1  1  0  0  0
 25 27  1  0  0  0  0
 25 26  1  1  0  0  0
 29 30  1  0  0  0  0
M  CHG  5   6   1  10   1  14   1  19   1  29   1
M  END
>  <CHROM.1>
67.02847606,92.36249868,-167.57197522,-55.16766663,68.76273462,-17.60678564
-165.68797427,112.38596501,-57.08038967,58.43698326,-78.63193095,-163.07487311
-151.18845233,5.18045674,5.19478200,-2.73617953,0.42176561,-0.30800139,2.75094571

>  <Name>
1byj cryst

>  <RI>
0

>  <Rbt.Current_Directory>
/home/itssahil/PROJECTS/Mol_Feturizer/New_Systems/rnas/1byj

>  <Rbt.Executable>
rbdock ($Id: //depot/dev/client3/rdock/2013.1/src/exe/rbdock.cxx#4 $)

>  <Rbt.Library>
libRbt.so (2013.1, Build901 2013/11/27)

>  <Rbt.Parameter_File>
/export/apps/rDock/src/rDock_2013.1_src/data/scripts/dock_solv.prm

>  <Rbt.Receptor>
prm/pocket_docking_3.prm

>  <SCORE>
-58.1948

>  <SCORE.INTER>
-58.4395

>  <SCORE.INTER.CONST>
1

>  <SCORE.INTER.POLAR>
-8.10244

>  <SCORE.INTER.ROT>
6

>  <SCORE.INTER.SOLV>
29.6681

>  <SCORE.INTER.VDW>
-29.4409

>  <SCORE.INTER.norm>
-1.88515

>  <SCORE.INTRA>
-0.427727

>  <SCORE.INTRA.DIHEDRAL>
2.9043

>  <SCORE.INTRA.DIHEDRAL.0>
18.4149

>  <SCORE.INTRA.POLAR>
-0.00365678

>  <SCORE.INTRA.POLAR.0>
0

>  <SCORE.INTRA.REPUL>
-0.092687

>  <SCORE.INTRA.REPUL.0>
0.092687

>  <SCORE.INTRA.SOLV>
-2.10329

>  <SCORE.INTRA.SOLV.lig_0>
-120.37

>  <SCORE.INTRA.VDW>
-0.352363

>  <SCORE.INTRA.VDW.0>
-1.75542

>  <SCORE.INTRA.norm>
-0.0137977

>  <SCORE.RESTR>
0.67242

>  <SCORE.RESTR.CAVITY>
0.67242

>  <SCORE.RESTR.norm>
0.021691

>  <SCORE.SYSTEM>
0

>  <SCORE.SYSTEM.CONST>
0

>  <SCORE.SYSTEM.DIHEDRAL>
0

>  <SCORE.SYSTEM.SOLV>
0

>  <SCORE.SYSTEM.norm>
0

>  <SCORE.heavy>
31

>  <SCORE.norm>
-1.87725

>  <RMSD>
1.686

$$$$
1byj cryst
 OpenBabel11021811383D
libRbt.so/2013.1/901 2013/11/27
 31 33  0  0  0  0  0  0  0  0999 V2000
    9.3315    2.0620   -3.2877 C   0  0  1  0  0  0  0  0  0  0  0  0
    7.9560    2.3964   -3.6595 O   0  0  0  0  0  0  0  0  0  0  0  0
    7.2158    3.3392   -2.8277 C   0  0  2  0  0  0  0  0  0  0  0  0
    7.7713    4.6875   -2.9294 O   0  0  0  0  0  0  0  0  0  0  0  0
    7.2246    2.8404   -1.3508 C   0  0  2  0  0  0  0  0  0  0  0  0
    6.4962    3.7350   -0.4297 N   0  3  0  0  0  0  0  0  0  0  0  0
    8.6834    2.6378   -0.8662 C   0  0  0  0  0  0  0  0  0  0  0  0
    9.4417    1.6710   -1.7881 C   0  0  0  0  0  0  0  0  0  0  0  0
    9.8249    0.8906   -4.1551 C   0  0  0  0  0  0  0  0  0  0  0  0
   10.1025    1.2599   -5.5493 N   0  3  0  0  0  0  0  0  0  0  0  0
    7.8111    7.0558   -3.6076 C   0  0  1  0  0  0  0  0  0  0  0  0
    7.0295    8.1975   -4.3021 C   0  0  0  0  0  0  0  0  0  0  0  0
    5.6407    8.3893   -3.6355 C   0  0  1  0  0  0  0  0  0  0  0  0
    4.9393    9.5298   -4.2553 N   0  3  0  0  0  0  0  0  0  0  0  0
    4.8114    7.0760   -3.7308 C   0  0  1  0  0  0  0  0  0  0  0  0
    5.5842    5.8684   -3.1438 C   0  0  1  0  0  0  0  0  0  0  0  0
    4.8137    4.7124   -3.4370 O   0  0  0  0  0  0  0  0  0  0  0  0
    7.0396    5.6980   -3.6918 C   0  0  2  0  0  0  0  0  0  0  0  0
    9.1654    6.9500   -4.1784 N   0  3  0  0  0  0  0  0  0  0  0  0
    1.9464    4.7212   -2.2387 C   0  0  0  0  0  0  0  0  0  0  0  0
    0.6052    5.2598   -1.6829 C   0  0  2  0  0  0  0  0  0  0  0  0
   -0.4275    4.7651   -2.5342 O   0  0  0  0  0  0  0  0  0  0  0  0
    0.6307    6.8348   -1.6870 C   0  0  1  0  0  0  0  0  0  0  0  0
    1.1103    7.4330   -3.0530 C   0  0  2  0  0  0  0  0  0  0  0  0
    2.3624    6.7259   -3.6312 C   0  0  1  0  0  0  0  0  0  0  0  0
    3.5704    7.1980   -2.9788 O   0  0  0  0  0  0  0  0  0  0  0  0
    2.2300    5.2786   -3.5497 O   0  0  0  0  0  0  0  0  0  0  0  0
    1.3788    8.8286   -2.9454 O   0  0  0  0  0  0  0  0  0  0  0  0
   -0.7213    7.3635   -1.3248 N   0  3  0  0  0  0  0  0  0  0  0  0
   -0.7870    8.3290   -0.2089 C   0  0  0  0  0  0  0  0  0  0  0  0
    0.3728    4.6533   -0.2771 C   0  0  0  0  0  0  0  0  0  0  0  0
  1  8  1  0  0  0  0
  1  9  1  6  0  0  0
  1  2  1  0  0  0  0
  2  3  1  0  0  0  0
  3  5  1  0  0  0  0
  3  4  1  1  0  0  0
  5  7  1  0  0  0  0
  5  6  1  1  0  0  0
  7  8  1  0  0  0  0
  9 10  1  0  0  0  0
 11 12  1  0  0  0  0
 11 18  1  0  0  0  0
 11 19  1  6  0  0  0
 12 13  1  0  0  0  0
 13 15  1  0  0  0  0
 13 14  1  6  0  0  0
 15 16  1  0  0  0  0
 15 26  1  1  0  0  0
 16 18  1  0  0  0  0
 16 17  1  6  0  0  0
 18  4  1  1  0  0  0
 20 21  1  0  0  0  0
 20 27  1  0  0  0  0
 21 31  1  1  0  0  0
 21 23  1  0  0  0  0
 21 22  1  0  0  0  0
 23 24  1  0  0  0  0
 23 29  1  6  0  0  0
 24 25  1  0  0  0  0
 24 28  1  1  0  0  0
 25 27  1  0  0  0  0
 25 26  1  1  0  0  0
 29 30  1  0  0  0  0
M  CHG  5   6   1  10   1  14   1  19   1  29   1
M  END
>  <CHROM.1>
72.80111238,106.19283473,178.08224672,-165.08816494,69.77738782,-178.45219630
-156.81542741,134.61113857,-137.24300700,54.13362878,-112.54825690,-50.94045222
-155.45666331,4.91941245,5.37860080,-2.81932453,0.37631670,-0.30062991,2.80815006

>  <Name>
1byj cryst

>  <RI>
0

>  <Rbt.Current_Directory>
/home/itssahil/PROJECTS/Mol_Feturizer/New_Systems/rnas/1byj

>  <Rbt.Executable>
rbdock ($Id: //depot/dev/client3/rdock/2013.1/src/exe/rbdock.cxx#4 $)

>  <Rbt.Library>
libRbt.so (2013.1, Build901 2013/11/27)

>  <Rbt.Parameter_File>
/export/apps/rDock/src/rDock_2013.1_src/data/scripts/dock_solv.prm

>  <Rbt.Receptor>
prm/pocket_docking_3.prm

>  <SCORE>
-57.0356

>  <SCORE.INTER>
-60.0115

>  <SCORE.INTER.CONST>
1

>  <SCORE.INTER.POLAR>
-9.17509

>  <SCORE.INTER.ROT>
6

>  <SCORE.INTER.SOLV>
30.4361

>  <SCORE.INTER.VDW>
-27.1694

>  <SCORE.INTER.norm>
-1.93585

>  <SCORE.INTRA>
2.23118

>  <SCORE.INTRA.DIHEDRAL>
9.12455

>  <SCORE.INTRA.DIHEDRAL.0>
18.4149

>  <SCORE.INTRA.POLAR>
-0.00205214

>  <SCORE.INTRA.POLAR.0>
0

>  <SCORE.INTRA.REPUL>
-0.092687

>  <SCORE.INTRA.REPUL.0>
0.092687

>  <SCORE.INTRA.SOLV>
-1.85586

>  <SCORE.INTRA.SOLV.lig_0>
-120.37

>  <SCORE.INTRA.VDW>
-0.932751

>  <SCORE.INTRA.VDW.0>
-1.75542

>  <SCORE.INTRA.norm>
0.0719736

>  <SCORE.RESTR>
0.744686

>  <SCORE.RESTR.CAVITY>
0.744686

>  <SCORE.RESTR.norm>
0.0240221

>  <SCORE.SYSTEM>
0

>  <SCORE.SYSTEM.CONST>
0

>  <SCORE.SYSTEM.DIHEDRAL>
0

>  <SCORE.SYSTEM.SOLV>
0

>  <SCORE.SYSTEM.norm>
0

>  <SCORE.heavy>
31

>  <SCORE.norm>
-1.83986

>  <RMSD>
1.689

$$$$
1byj cryst
 OpenBabel11021811383D
libRbt.so/2013.1/901 2013/11/27
 31 33  0  0  0  0  0  0  0  0999 V2000
    9.3457    1.7762   -3.1098 C   0  0  1  0  0  0  0  0  0  0  0  0
    7.9471    1.7459   -3.5399 O   0  0  0  0  0  0  0  0  0  0  0  0
    6.9111    2.1047   -2.5774 C   0  0  2  0  0  0  0  0  0  0  0  0
    6.9721    3.5246   -2.2353 O   0  0  0  0  0  0  0  0  0  0  0  0
    7.0596    1.2159   -1.3052 C   0  0  2  0  0  0  0  0  0  0  0  0
    6.0493    1.5084   -0.2694 N   0  3  0  0  0  0  0  0  0  0  0  0
    8.4889    1.3574   -0.7212 C   0  0  0  0  0  0  0  0  0  0  0  0
    9.5520    1.0100   -1.7741 C   0  0  0  0  0  0  0  0  0  0  0  0
   10.2291    1.1434   -4.1994 C   0  0  0  0  0  0  0  0  0  0  0  0
    9.5237    0.8894   -5.4624 N   0  3  0  0  0  0  0  0  0  0  0  0
    7.3645    5.6897   -3.3438 C   0  0  1  0  0  0  0  0  0  0  0  0
    6.7414    6.8108   -4.2107 C   0  0  0  0  0  0  0  0  0  0  0  0
    5.4529    7.3617   -3.5429 C   0  0  1  0  0  0  0  0  0  0  0  0
    4.9135    8.4806   -4.3391 N   0  3  0  0  0  0  0  0  0  0  0  0
    4.4096    6.2212   -3.3625 C   0  0  1  0  0  0  0  0  0  0  0  0
    5.0058    5.0188   -2.5886 C   0  0  1  0  0  0  0  0  0  0  0  0
    4.0336    3.9849   -2.6338 O   0  0  0  0  0  0  0  0  0  0  0  0
    6.3714    4.4978   -3.1463 C   0  0  2  0  0  0  0  0  0  0  0  0
    8.6401    5.2452   -3.9324 N   0  3  0  0  0  0  0  0  0  0  0  0
    1.6407    4.7873   -0.8528 C   0  0  0  0  0  0  0  0  0  0  0  0
    0.3840    5.5862   -0.4285 C   0  0  2  0  0  0  0  0  0  0  0  0
   -0.7482    4.8853   -0.9413 O   0  0  0  0  0  0  0  0  0  0  0  0
    0.4616    7.0418   -1.0257 C   0  0  1  0  0  0  0  0  0  0  0  0
    0.8154    7.0564   -2.5517 C   0  0  2  0  0  0  0  0  0  0  0  0
    1.9756    6.0994   -2.9258 C   0  0  1  0  0  0  0  0  0  0  0  0
    3.2604    6.6934   -2.6030 O   0  0  0  0  0  0  0  0  0  0  0  0
    1.8041    4.7983   -2.2961 O   0  0  0  0  0  0  0  0  0  0  0  0
    1.1403    8.3700   -2.9990 O   0  0  0  0  0  0  0  0  0  0  0  0
   -0.8265    7.7606   -0.7756 N   0  3  0  0  0  0  0  0  0  0  0  0
   -0.7620    8.9859    0.0467 C   0  0  0  0  0  0  0  0  0  0  0  0
    0.2798    5.5613    1.1163 C   0  0  0  0  0  0  0  0  0  0  0  0
  1  8  1  0  0  0  0
  1  9  1  6  0  0  0
  1  2  1  0  0  0  0
  2  3  1  0  0  0  0
  3  5  1  0  0  0  0
  3  4  1  1  0  0  0
  5  7  1  0  0  0  0
  5  6  1  1  0  0  0
  7  8  1  0  0  0  0
  9 10  1  0  0  0  0
 11 12  1  0  0  0  0
 11 18  1  0  0  0  0
 11 19  1  6  0  0  0
 12 13  1  0  0  0  0
 13 15  1  0  0  0  0
 13 14  1  6  0  0  0
 15 16  1  0  0  0  0
 15 26  1  1  0  0  0
 16 18  1  0  0  0  0
 16 17  1  6  0  0  0
 18  4  1  1  0  0  0
 20 21  1  0  0  0  0
 20 27  1  0  0  0  0
 21 31  1  1  0  0  0
 21 23  1  0  0  0  0
 21 22  1  0  0  0  0
 23 24  1  0  0  0  0
 23 29  1  6  0  0  0
 24 25  1  0  0  0  0
 24 28  1  1  0  0  0
 25 27  1  0  0  0  0
 25 26  1  1  0  0  0
 29 30  1  0  0  0  0
M  CHG  5   6   1  10   1  14   1  19   1  29   1
M  END
>  <CHROM.1>
10.07347423,80.72440917,-134.49062553,67.43431006,-179.35056206,-82.65433466
-172.03476447,148.01476643,68.88946220,-63.37968530,-120.11358730,-177.99932035
-155.05596938,4.63283096,4.75578643,-2.36319469,0.34279539,-0.46542157,2.60151904

>  <Name>
1byj cryst

>  <RI>
0

>  <Rbt.Current_Directory>
/home/itssahil/PROJECTS/Mol_Feturizer/New_Systems/rnas/1byj

>  <Rbt.Executable>
rbdock ($Id: //depot/dev/client3/rdock/2013.1/src/exe/rbdock.cxx#4 $)

>  <Rbt.Library>
libRbt.so (2013.1, Build901 2013/11/27)

>  <Rbt.Parameter_File>
/export/apps/rDock/src/rDock_2013.1_src/data/scripts/dock_solv.prm

>  <Rbt.Receptor>
prm/pocket_docking_8.prm

>  <SCORE>
-53.1234

>  <SCORE.INTER>
-54.8396

>  <SCORE.INTER.CONST>
1

>  <SCORE.INTER.POLAR>
-7.77441

>  <SCORE.INTER.ROT>
6

>  <SCORE.INTER.SOLV>
30.1405

>  <SCORE.INTER.VDW>
-28.2919

>  <SCORE.INTER.norm>
-1.76902

>  <SCORE.INTRA>
1.71625

>  <SCORE.INTRA.DIHEDRAL>
6.92592

>  <SCORE.INTRA.DIHEDRAL.0>
18.4149

>  <SCORE.INTRA.POLAR>
-0.00232437

>  <SCORE.INTRA.POLAR.0>
0

>  <SCORE.INTRA.REPUL>
-0.092687

>  <SCORE.INTRA.REPUL.0>
0.092687

>  <SCORE.INTRA.SOLV>
-0.598359

>  <SCORE.INTRA.SOLV.lig_0>
-120.37

>  <SCORE.INTRA.VDW>
-0.976199

>  <SCORE.INTRA.VDW.0>
-1.75542

>  <SCORE.INTRA.norm>
0.0553628

>  <SCORE.RESTR>
0

>  <SCORE.RESTR.CAVITY>
0

>  <SCORE.RESTR.norm>
0

>  <SCORE.SYSTEM>
0

>  <SCORE.SYSTEM.CONST>
0

>  <SCORE.SYSTEM.DIHEDRAL>
0

>  <SCORE.SYSTEM.SOLV>
0

>  <SCORE.SYSTEM.norm>
0

>  <SCORE.heavy>
31

>  <SCORE.norm>
-1.71366

>  <RMSD>
1.704

$$$$
1byj cryst
 OpenBabel11021811383D
libRbt.so/2013.1/901 2013/11/27
 31 33  0  0  0  0  0  0  0  0999 V2000
    9.4956    1.7819   -3.2671 C   0  0  1  0  0  0  0  0  0  0  0  0
    8.0912    2.0520   -3.5781 O   0  0  0  0  0  0  0  0  0  0  0  0
    7.3102    2.8572   -2.6452 C   0  0  2  0  0  0  0  0  0  0  0  0
    7.7694    4.2449   -2.6274 O   0  0  0  0  0  0  0  0  0  0  0  0
    7.3917    2.2227   -1.2236 C   0  0  2  0  0  0  0  0  0  0  0  0
    6.6282    2.9724   -0.2067 N   0  3  0  0  0  0  0  0  0  0  0  0
    8.8731    2.0786   -0.7893 C   0  0  0  0  0  0  0  0  0  0  0  0
    9.6714    1.2594   -1.8146 C   0  0  0  0  0  0  0  0  0  0  0  0
   10.0451    0.7356   -4.2527 C   0  0  0  0  0  0  0  0  0  0  0  0
   10.0981    1.2014   -5.6447 N   0  3  0  0  0  0  0  0  0  0  0  0
    8.0025    6.5090   -3.5707 C   0  0  1  0  0  0  0  0  0  0  0  0
    7.3216    7.6187   -4.4083 C   0  0  0  0  0  0  0  0  0  0  0  0
    5.9432    7.9911   -3.7990 C   0  0  1  0  0  0  0  0  0  0  0  0
    5.3411    9.1022   -4.5604 N   0  3  0  0  0  0  0  0  0  0  0  0
    5.0154    6.7423   -3.7620 C   0  0  1  0  0  0  0  0  0  0  0  0
    5.6840    5.5556   -3.0238 C   0  0  1  0  0  0  0  0  0  0  0  0
    4.8297    4.4352   -3.1999 O   0  0  0  0  0  0  0  0  0  0  0  0
    7.1288    5.2130   -3.5164 C   0  0  2  0  0  0  0  0  0  0  0  0
    9.3520    6.2355   -4.0956 N   0  3  0  0  0  0  0  0  0  0  0  0
    2.0433    4.7630   -2.0042 C   0  0  0  0  0  0  0  0  0  0  0  0
    0.7276    5.4301   -1.5338 C   0  0  2  0  0  0  0  0  0  0  0  0
   -0.3260    4.8731   -2.3185 O   0  0  0  0  0  0  0  0  0  0  0  0
    0.8240    6.9879   -1.7472 C   0  0  1  0  0  0  0  0  0  0  0  0
    1.3309    7.3768   -3.1775 C   0  0  2  0  0  0  0  0  0  0  0  0
    2.5501    6.5439   -3.6482 C   0  0  1  0  0  0  0  0  0  0  0  0
    3.7778    7.0442   -3.0565 O   0  0  0  0  0  0  0  0  0  0  0  0
    2.3526    5.1277   -3.3758 O   0  0  0  0  0  0  0  0  0  0  0  0
    1.6620    8.7609   -3.2547 O   0  0  0  0  0  0  0  0  0  0  0  0
   -0.5029    7.6199   -1.4674 N   0  3  0  0  0  0  0  0  0  0  0  0
   -0.5514    8.6284   -0.3893 C   0  0  0  0  0  0  0  0  0  0  0  0
    0.4672    5.0272   -0.0614 C   0  0  0  0  0  0  0  0  0  0  0  0
  1  8  1  0  0  0  0
  1  9  1  6  0  0  0
  1  2  1  0  0  0  0
  2  3  1  0  0  0  0
  3  5  1  0  0  0  0
  3  4  1  1  0  0  0
  5  7  1  0  0  0  0
  5  6  1  1  0  0  0
  7  8  1  0  0  0  0
  9 10  1  0  0  0  0
 11 12  1  0  0  0  0
 11 18  1  0  0  0  0
 11 19  1  6  0  0  0
 12 13  1  0  0  0  0
 13 15  1  0  0  0  0
 13 14  1  6  0  0  0
 15 16  1  0  0  0  0
 15 26  1  1  0  0  0
 16 18  1  0  0  0  0
 16 17  1  6  0  0  0
 18  4  1  1  0  0  0
 20 21  1  0  0  0  0
 20 27  1  0  0  0  0
 21 31  1  1  0  0  0
 21 23  1  0  0  0  0
 21 22  1  0  0  0  0
 23 24  1  0  0  0  0
 23 29  1  6  0  0  0
 24 25  1  0  0  0  0
 24 28  1  1  0  0  0
 25 27  1  0  0  0  0
 25 26  1  1  0  0  0
 29 30  1  0  0  0  0
M  CHG  5   6   1  10   1  14   1  19   1  29   1
M  END
>  <CHROM.1>
65.37534565,92.48557592,-166.38647760,65.72364259,-173.78088762,104.03302730
-147.62926859,137.13753090,75.99951836,-52.02773569,-118.80424643,-166.17337342
-156.78183596,5.08819856,5.14296020,-2.79908263,0.39186459,-0.34771768,2.70649755

>  <Name>
1byj cryst

>  <RI>
0

>  <Rbt.Current_Directory>
/home/itssahil/PROJECTS/Mol_Feturizer/New_Systems/rnas/1byj

>  <Rbt.Executable>
rbdock ($Id: //depot/dev/client3/rdock/2013.1/src/exe/rbdock.cxx#4 $)

>  <Rbt.Library>
libRbt.so (2013.1, Build901 2013/11/27)

>  <Rbt.Parameter_File>
/export/apps/rDock/src/rDock_2013.1_src/data/scripts/dock_solv.prm

>  <Rbt.Receptor>
prm/pocket_docking_5.prm

>  <SCORE>
-61.1189

>  <SCORE.INTER>
-61.904

>  <SCORE.INTER.CONST>
1

>  <SCORE.INTER.POLAR>
-8.96896

>  <SCORE.INTER.ROT>
6

>  <SCORE.INTER.SOLV>
30.9817

>  <SCORE.INTER.VDW>
-29.3

>  <SCORE.INTER.norm>
-1.9969

>  <SCORE.INTRA>
0.785033

>  <SCORE.INTRA.DIHEDRAL>
6.24931

>  <SCORE.INTRA.DIHEDRAL.0>
18.4149

>  <SCORE.INTRA.POLAR>
-0.009017

>  <SCORE.INTRA.POLAR.0>
0

>  <SCORE.INTRA.REPUL>
-0.092687

>  <SCORE.INTRA.REPUL.0>
0.092687

>  <SCORE.INTRA.SOLV>
-2.69357

>  <SCORE.INTRA.SOLV.lig_0>
-120.37

>  <SCORE.INTRA.VDW>
-0.498746

>  <SCORE.INTRA.VDW.0>
-1.75542

>  <SCORE.INTRA.norm>
0.0253236

>  <SCORE.RESTR>
0

>  <SCORE.RESTR.CAVITY>
0

>  <SCORE.RESTR.norm>
0

>  <SCORE.SYSTEM>
0

>  <SCORE.SYSTEM.CONST>
0

>  <SCORE.SYSTEM.DIHEDRAL>
0

>  <SCORE.SYSTEM.SOLV>
0

>  <SCORE.SYSTEM.norm>
0

>  <SCORE.heavy>
31

>  <SCORE.norm>
-1.97158

>  <RMSD>
1.710

$$$$
1byj cryst
 OpenBabel11021811383D
libRbt.so/2013.1/901 2013/11/27
 31 33  0  0  0  0  0  0  0  0999 V2000
    9.2653    2.0477   -3.4957 C   0  0  1  0  0  0  0  0  0  0  0  0
    7.8055    2.0583   -3.5994 O   0  0  0  0  0  0  0  0  0  0  0  0
    7.0377    2.7830   -2.5925 C   0  0  2  0  0  0  0  0  0  0  0  0
    7.2448    4.2258   -2.7028 O   0  0  0  0  0  0  0  0  0  0  0  0
    7.4318    2.2680   -1.1748 C   0  0  2  0  0  0  0  0  0  0  0  0
    6.7027    2.9466   -0.0853 N   0  3  0  0  0  0  0  0  0  0  0  0
    8.9623    2.4025   -0.9663 C   0  0  0  0  0  0  0  0  0  0  0  0
    9.7362    1.6607   -2.0665 C   0  0  0  0  0  0  0  0  0  0  0  0
    9.8423    1.0437   -4.5092 C   0  0  0  0  0  0  0  0  0  0  0  0
   11.3079    1.0702   -4.6027 N   0  3  0  0  0  0  0  0  0  0  0  0
    6.8681    6.4640   -3.6613 C   0  0  1  0  0  0  0  0  0  0  0  0
    5.8607    7.3877   -4.3883 C   0  0  0  0  0  0  0  0  0  0  0  0
    4.5352    7.4846   -3.5860 C   0  0  1  0  0  0  0  0  0  0  0  0
    3.6146    8.4278   -4.2490 N   0  3  0  0  0  0  0  0  0  0  0  0
    3.9011    6.0731   -3.4208 C   0  0  1  0  0  0  0  0  0  0  0  0
    4.8984    5.0689   -2.7908 C   0  0  1  0  0  0  0  0  0  0  0  0
    4.2788    3.7926   -2.8466 O   0  0  0  0  0  0  0  0  0  0  0  0
    6.2985    5.0180   -3.4869 C   0  0  2  0  0  0  0  0  0  0  0  0
    8.1570    6.4602   -4.3755 N   0  3  0  0  0  0  0  0  0  0  0  0
    0.2728    4.3810   -2.1378 C   0  0  0  0  0  0  0  0  0  0  0  0
   -0.7529    5.2794   -1.4039 C   0  0  2  0  0  0  0  0  0  0  0  0
   -1.8931    5.3909   -2.2545 O   0  0  0  0  0  0  0  0  0  0  0  0
   -0.1129    6.6931   -1.1336 C   0  0  1  0  0  0  0  0  0  0  0  0
    0.5687    7.3064   -2.4038 C   0  0  2  0  0  0  0  0  0  0  0  0
    1.4466    6.2944   -3.1829 C   0  0  1  0  0  0  0  0  0  0  0  0
    2.7400    6.1325   -2.5438 O   0  0  0  0  0  0  0  0  0  0  0  0
    0.7578    5.0226   -3.3473 O   0  0  0  0  0  0  0  0  0  0  0  0
    1.3616    8.4434   -2.0723 O   0  0  0  0  0  0  0  0  0  0  0  0
   -1.1516    7.6232   -0.5909 N   0  3  0  0  0  0  0  0  0  0  0  0
   -0.6717    8.7875    0.1812 C   0  0  0  0  0  0  0  0  0  0  0  0
   -1.2105    4.5559   -0.1134 C   0  0  0  0  0  0  0  0  0  0  0  0
  1  8  1  0  0  0  0
  1  9  1  6  0  0  0
  1  2  1  0  0  0  0
  2  3  1  0  0  0  0
  3  5  1  0  0  0  0
  3  4  1  1  0  0  0
  5  7  1  0  0  0  0
  5  6  1  1  0  0  0
  7  8  1  0  0  0  0
  9 10  1  0  0  0  0
 11 12  1  0  0  0  0
 11 18  1  0  0  0  0
 11 19  1  6  0  0  0
 12 13  1  0  0  0  0
 13 15  1  0  0  0  0
 13 14  1  6  0  0  0
 15 16  1  0  0  0  0
 15 26  1  1  0  0  0
 16 18  1  0  0  0  0
 16 17  1  6  0  0  0
 18  4  1  1  0  0  0
 20 21  1  0  0  0  0
 20 27  1  0  0  0  0
 21 31  1  1  0  0  0
 21 23  1  0  0  0  0
 21 22  1  0  0  0  0
 23 24  1  0  0  0  0
 23 29  1  6  0  0  0
 24 25  1  0  0  0  0
 24 28  1  1  0  0  0
 25 27  1  0  0  0  0
 25 26  1  1  0  0  0
 29 30  1  0  0  0  0
M  CHG  5   6   1  10   1  14   1  19   1  29   1
M  END
>  <CHROM.1>
173.04403088,94.48319939,-170.10244928,67.86594872,-179.43192744,-35.22041456
-114.39595329,93.90480615,-59.34750042,-66.44158227,-81.27188298,67.84308845
-138.05930006,4.34869681,5.00108530,-2.57230250,0.31417109,-0.33155499,2.70490924

>  <Name>
1byj cryst

>  <RI>
0

>  <Rbt.Current_Directory>
/home/itssahil/PROJECTS/Mol_Feturizer/New_Systems/rnas/1byj

>  <Rbt.Executable>
rbdock ($Id: //depot/dev/client3/rdock/2013.1/src/exe/rbdock.cxx#4 $)

>  <Rbt.Library>
libRbt.so (2013.1, Build901 2013/11/27)

>  <Rbt.Parameter_File>
/export/apps/rDock/src/rDock_2013.1_src/data/scripts/dock_solv.prm

>  <Rbt.Receptor>
prm/pocket_docking_3.prm

>  <SCORE>
-47.7352

>  <SCORE.INTER>
-48.1085

>  <SCORE.INTER.CONST>
1

>  <SCORE.INTER.POLAR>
-6.90131

>  <SCORE.INTER.ROT>
6

>  <SCORE.INTER.SOLV>
31.0467

>  <SCORE.INTER.VDW>
-27.0168

>  <SCORE.INTER.norm>
-1.55189

>  <SCORE.INTRA>
0.370572

>  <SCORE.INTRA.DIHEDRAL>
3.45725

>  <SCORE.INTRA.DIHEDRAL.0>
18.4149

>  <SCORE.INTRA.POLAR>
-0.0501467

>  <SCORE.INTRA.POLAR.0>
0

>  <SCORE.INTRA.REPUL>
-0.092687

>  <SCORE.INTRA.REPUL.0>
0.092687

>  <SCORE.INTRA.SOLV>
-0.518411

>  <SCORE.INTRA.SOLV.lig_0>
-120.37

>  <SCORE.INTRA.VDW>
-0.464913

>  <SCORE.INTRA.VDW.0>
-1.75542

>  <SCORE.INTRA.norm>
0.0119539

>  <SCORE.RESTR>
0.00266449

>  <SCORE.RESTR.CAVITY>
0.00266449

>  <SCORE.RESTR.norm>
8.59514e-05

>  <SCORE.SYSTEM>
0

>  <SCORE.SYSTEM.CONST>
0

>  <SCORE.SYSTEM.DIHEDRAL>
0

>  <SCORE.SYSTEM.SOLV>
0

>  <SCORE.SYSTEM.norm>
0

>  <SCORE.heavy>
31

>  <SCORE.norm>
-1.53985

>  <RMSD>
1.715

$$$$
1byj cryst
 OpenBabel11021811383D
libRbt.so/2013.1/901 2013/11/27
 31 33  0  0  0  0  0  0  0  0999 V2000
    9.5088    1.5588   -2.9278 C   0  0  1  0  0  0  0  0  0  0  0  0
    8.0475    1.4828   -2.8955 O   0  0  0  0  0  0  0  0  0  0  0  0
    7.3396    2.0948   -1.7762 C   0  0  2  0  0  0  0  0  0  0  0  0
    7.4516    3.5519   -1.8092 O   0  0  0  0  0  0  0  0  0  0  0  0
    7.8972    1.5210   -0.4382 C   0  0  2  0  0  0  0  0  0  0  0  0
    7.2383    2.0845    0.7565 N   0  3  0  0  0  0  0  0  0  0  0  0
    9.4303    1.7397   -0.3634 C   0  0  0  0  0  0  0  0  0  0  0  0
   10.1364    1.1168   -1.5771 C   0  0  0  0  0  0  0  0  0  0  0  0
   10.0426    0.6569   -4.0547 C   0  0  0  0  0  0  0  0  0  0  0  0
   10.0397    1.2950   -5.3776 N   0  3  0  0  0  0  0  0  0  0  0  0
    7.2779    5.7112   -2.9830 C   0  0  1  0  0  0  0  0  0  0  0  0
    6.3998    6.5992   -3.8978 C   0  0  0  0  0  0  0  0  0  0  0  0
    4.9940    6.8021   -3.2713 C   0  0  1  0  0  0  0  0  0  0  0  0
    4.1953    7.7125   -4.1139 N   0  3  0  0  0  0  0  0  0  0  0  0
    4.2902    5.4288   -3.0707 C   0  0  1  0  0  0  0  0  0  0  0  0
    5.1666    4.4527   -2.2465 C   0  0  1  0  0  0  0  0  0  0  0  0
    4.5084    3.1949   -2.2737 O   0  0  0  0  0  0  0  0  0  0  0  0
    6.6357    4.3022   -2.7627 C   0  0  2  0  0  0  0  0  0  0  0  0
    8.6407    5.6093   -3.5342 N   0  3  0  0  0  0  0  0  0  0  0  0
    0.3647    4.1271   -2.2096 C   0  0  0  0  0  0  0  0  0  0  0  0
   -0.6386    5.1527   -1.6273 C   0  0  2  0  0  0  0  0  0  0  0  0
   -1.6498    5.3530   -2.6139 O   0  0  0  0  0  0  0  0  0  0  0  0
    0.1132    6.5005   -1.3114 C   0  0  1  0  0  0  0  0  0  0  0  0
    1.0044    6.9945   -2.5012 C   0  0  2  0  0  0  0  0  0  0  0  0
    1.8550    5.8698   -3.1441 C   0  0  1  0  0  0  0  0  0  0  0  0
    3.0374    5.5960   -2.3474 O   0  0  0  0  0  0  0  0  0  0  0  0
    1.0577    4.6719   -3.3641 O   0  0  0  0  0  0  0  0  0  0  0  0
    1.8699    8.0533   -2.0997 O   0  0  0  0  0  0  0  0  0  0  0  0
   -0.8766    7.5523   -0.9210 N   0  3  0  0  0  0  0  0  0  0  0  0
   -0.3669    8.6940   -0.1345 C   0  0  0  0  0  0  0  0  0  0  0  0
   -1.3231    4.5265   -0.3874 C   0  0  0  0  0  0  0  0  0  0  0  0
  1  8  1  0  0  0  0
  1  9  1  6  0  0  0
  1  2  1  0  0  0  0
  2  3  1  0  0  0  0
  3  5  1  0  0  0  0
  3  4  1  1  0  0  0
  5  7  1  0  0  0  0
  5  6  1  1  0  0  0
  7  8  1  0  0  0  0
  9 10  1  0  0  0  0
 11 12  1  0  0  0  0
 11 18  1  0  0  0  0
 11 19  1  6  0  0  0
 12 13  1  0  0  0  0
 13 15  1  0  0  0  0
 13 14  1  6  0  0  0
 15 16  1  0  0  0  0
 15 26  1  1  0  0  0
 16 18  1  0  0  0  0
 16 17  1  6  0  0  0
 18  4  1  1  0  0  0
 20 21  1  0  0  0  0
 20 27  1  0  0  0  0
 21 31  1  1  0  0  0
 21 23  1  0  0  0  0
 21 22  1  0  0  0  0
 23 24  1  0  0  0  0
 23 29  1  6  0  0  0
 24 25  1  0  0  0  0
 24 28  1  1  0  0  0
 25 27  1  0  0  0  0
 25 26  1  1  0  0  0
 29 30  1  0  0  0  0
M  CHG  5   6   1  10   1  14   1  19   1  29   1
M  END
>  <CHROM.1>
83.76781051,76.51944128,-159.51486864,178.17328919,70.53736453,174.74608659
-170.31667016,88.14604785,65.10732397,-174.14403352,-80.59780325,-70.25223076
-136.09484869,4.61442270,4.53716858,-2.31484768,0.35024136,-0.30788563,2.62364027

>  <Name>
1byj cryst

>  <RI>
0

>  <Rbt.Current_Directory>
/home/itssahil/PROJECTS/Mol_Feturizer/New_Systems/rnas/1byj

>  <Rbt.Executable>
rbdock ($Id: //depot/dev/client3/rdock/2013.1/src/exe/rbdock.cxx#4 $)

>  <Rbt.Library>
libRbt.so (2013.1, Build901 2013/11/27)

>  <Rbt.Parameter_File>
/export/apps/rDock/src/rDock_2013.1_src/data/scripts/dock_solv.prm

>  <Rbt.Receptor>
prm/pocket_docking_2.prm

>  <SCORE>
-57.1177

>  <SCORE.INTER>
-51.1387

>  <SCORE.INTER.CONST>
1

>  <SCORE.INTER.POLAR>
-6.06533

>  <SCORE.INTER.ROT>
6

>  <SCORE.INTER.SOLV>
28.0569

>  <SCORE.INTER.VDW>
-30.827

>  <SCORE.INTER.norm>
-1.64963

>  <SCORE.INTRA>
-7.25249

>  <SCORE.INTRA.DIHEDRAL>
-1.52579

>  <SCORE.INTRA.DIHEDRAL.0>
18.4149

>  <SCORE.INTRA.POLAR>
-1.16667

>  <SCORE.INTRA.POLAR.0>
0

>  <SCORE.INTRA.REPUL>
-0.092687

>  <SCORE.INTRA.REPUL.0>
0.092687

>  <SCORE.INTRA.SOLV>
-1.55534

>  <SCORE.INTRA.SOLV.lig_0>
-120.37

>  <SCORE.INTRA.VDW>
-1.28183

>  <SCORE.INTRA.VDW.0>
-1.75542

>  <SCORE.INTRA.norm>
-0.233951

>  <SCORE.RESTR>
1.2735

>  <SCORE.RESTR.CAVITY>
1.2735

>  <SCORE.RESTR.norm>
0.0410808

>  <SCORE.SYSTEM>
0

>  <SCORE.SYSTEM.CONST>
0

>  <SCORE.SYSTEM.DIHEDRAL>
0

>  <SCORE.SYSTEM.SOLV>
0

>  <SCORE.SYSTEM.norm>
0

>  <SCORE.heavy>
31

>  <SCORE.norm>
-1.84251

>  <RMSD>
1.726

$$$$
1byj cryst
 OpenBabel11021811383D
libRbt.so/2013.1/901 2013/11/27
 31 33  0  0  0  0  0  0  0  0999 V2000
    9.5950    1.6683   -3.0540 C   0  0  1  0  0  0  0  0  0  0  0  0
    8.1645    1.8780   -3.2820 O   0  0  0  0  0  0  0  0  0  0  0  0
    7.3898    2.5820   -2.2657 C   0  0  2  0  0  0  0  0  0  0  0  0
    7.7757    3.9895   -2.1834 O   0  0  0  0  0  0  0  0  0  0  0  0
    7.5751    1.8698   -0.8914 C   0  0  2  0  0  0  0  0  0  0  0  0
    6.8249    2.5143    0.2043 N   0  3  0  0  0  0  0  0  0  0  0  0
    9.0819    1.7825   -0.5363 C   0  0  0  0  0  0  0  0  0  0  0  0
    9.8701    1.0712   -1.6463 C   0  0  0  0  0  0  0  0  0  0  0  0
   10.1489    0.7144   -4.1270 C   0  0  0  0  0  0  0  0  0  0  0  0
   10.1261    1.2717   -5.4857 N   0  3  0  0  0  0  0  0  0  0  0  0
    8.2104    6.1146   -3.3518 C   0  0  1  0  0  0  0  0  0  0  0  0
    7.6166    7.2109   -4.2694 C   0  0  0  0  0  0  0  0  0  0  0  0
    6.3167    7.7920   -3.6510 C   0  0  1  0  0  0  0  0  0  0  0  0
    5.8047    8.8878   -4.4958 N   0  3  0  0  0  0  0  0  0  0  0  0
    5.2609    6.6649   -3.4588 C   0  0  1  0  0  0  0  0  0  0  0  0
    5.8295    5.4845   -2.6321 C   0  0  1  0  0  0  0  0  0  0  0  0
    4.8510    4.4562   -2.6671 O   0  0  0  0  0  0  0  0  0  0  0  0
    7.2041    4.9364   -3.1397 C   0  0  2  0  0  0  0  0  0  0  0  0
    9.4963    5.6425   -3.8949 N   0  3  0  0  0  0  0  0  0  0  0  0
    1.4582    5.7496   -2.1612 C   0  0  0  0  0  0  0  0  0  0  0  0
    0.4794    6.8656   -1.7206 C   0  0  2  0  0  0  0  0  0  0  0  0
   -0.5935    6.8743   -2.6612 O   0  0  0  0  0  0  0  0  0  0  0  0
    1.2314    8.2498   -1.7131 C   0  0  1  0  0  0  0  0  0  0  0  0
    2.0406    8.5109   -3.0288 C   0  0  2  0  0  0  0  0  0  0  0  0
    2.8645    7.2859   -3.5004 C   0  0  1  0  0  0  0  0  0  0  0  0
    4.0975    7.1694   -2.7428 O   0  0  0  0  0  0  0  0  0  0  0  0
    2.0711    6.0670   -3.4393 O   0  0  0  0  0  0  0  0  0  0  0  0
    2.9151    9.6276   -2.8900 O   0  0  0  0  0  0  0  0  0  0  0  0
    0.2539    9.3552   -1.4664 N   0  3  0  0  0  0  0  0  0  0  0  0
   -0.2389    9.5186   -0.0835 C   0  0  0  0  0  0  0  0  0  0  0  0
   -0.1185    6.4845   -0.3439 C   0  0  0  0  0  0  0  0  0  0  0  0
  1  8  1  0  0  0  0
  1  9  1  6  0  0  0
  1  2  1  0  0  0  0
  2  3  1  0  0  0  0
  3  5  1  0  0  0  0
  3  4  1  1  0  0  0
  5  7  1  0  0  0  0
  5  6  1  1  0  0  0
  7  8  1  0  0  0  0
  9 10  1  0  0  0  0
 11 12  1  0  0  0  0
 11 18  1  0  0  0  0
 11 19  1  6  0  0  0
 12 13  1  0  0  0  0
 13 15  1  0  0  0  0
 13 14  1  6  0  0  0
 15 16  1  0  0  0  0
 15 26  1  1  0  0  0
 16 18  1  0  0  0  0
 16 17  1  6  0  0  0
 18  4  1  1  0  0  0
 20 21  1  0  0  0  0
 20 27  1  0  0  0  0
 21 31  1  1  0  0  0
 21 23  1  0  0  0  0
 21 22  1  0  0  0  0
 23 24  1  0  0  0  0
 23 29  1  6  0  0  0
 24 25  1  0  0  0  0
 24 28  1  1  0  0  0
 25 27  1  0  0  0  0
 25 26  1  1  0  0  0
 29 30  1  0  0  0  0
M  CHG  5   6   1  10   1  14   1  19   1  29   1
M  END
>  <CHROM.1>
66.21878423,82.15182570,-151.93249059,69.55753033,74.00376927,-35.05360588
-21.09281660,110.68803492,72.36383555,178.87610056,-163.51023178,-165.35912406
-145.51771749,5.26004017,5.45017223,-2.62059283,0.49078071,-0.41397788,2.64814547

>  <Name>
1byj cryst

>  <RI>
0

>  <Rbt.Current_Directory>
/home/itssahil/PROJECTS/Mol_Feturizer/New_Systems/rnas/1byj

>  <Rbt.Executable>
rbdock ($Id: //depot/dev/client3/rdock/2013.1/src/exe/rbdock.cxx#4 $)

>  <Rbt.Library>
libRbt.so (2013.1, Build901 2013/11/27)

>  <Rbt.Parameter_File>
/export/apps/rDock/src/rDock_2013.1_src/data/scripts/dock_solv.prm

>  <Rbt.Receptor>
prm/pocket_docking_4.prm

>  <SCORE>
-54.6497

>  <SCORE.INTER>
-56.6725

>  <SCORE.INTER.CONST>
1

>  <SCORE.INTER.POLAR>
-7.75037

>  <SCORE.INTER.ROT>
6

>  <SCORE.INTER.SOLV>
28.2947

>  <SCORE.INTER.VDW>
-28.9787

>  <SCORE.INTER.norm>
-1.82814

>  <SCORE.INTRA>
2.02276

>  <SCORE.INTRA.DIHEDRAL>
5.46061

>  <SCORE.INTRA.DIHEDRAL.0>
18.4149

>  <SCORE.INTRA.POLAR>
-0.0128202

>  <SCORE.INTRA.POLAR.0>
0

>  <SCORE.INTRA.REPUL>
-0.092687

>  <SCORE.INTRA.REPUL.0>
0.092687

>  <SCORE.INTRA.SOLV>
-1.48907

>  <SCORE.INTRA.SOLV.lig_0>
-120.37

>  <SCORE.INTRA.VDW>
0.544016

>  <SCORE.INTRA.VDW.0>
-1.75542

>  <SCORE.INTRA.norm>
0.0652504

>  <SCORE.RESTR>
0

>  <SCORE.RESTR.CAVITY>
0

>  <SCORE.RESTR.norm>
0

>  <SCORE.SYSTEM>
0

>  <SCORE.SYSTEM.CONST>
0

>  <SCORE.SYSTEM.DIHEDRAL>
0

>  <SCORE.SYSTEM.SOLV>
0

>  <SCORE.SYSTEM.norm>
0

>  <SCORE.heavy>
31

>  <SCORE.norm>
-1.76289

>  <RMSD>
1.728

$$$$
1byj cryst
 OpenBabel11021811383D
libRbt.so/2013.1/901 2013/11/27
 31 33  0  0  0  0  0  0  0  0999 V2000
    9.3835    1.6439   -3.3978 C   0  0  1  0  0  0  0  0  0  0  0  0
    7.9878    1.9919   -3.6683 O   0  0  0  0  0  0  0  0  0  0  0  0
    7.2845    2.8504   -2.7213 C   0  0  2  0  0  0  0  0  0  0  0  0
    7.8232    4.2093   -2.7343 O   0  0  0  0  0  0  0  0  0  0  0  0
    7.3742    2.2267   -1.2954 C   0  0  2  0  0  0  0  0  0  0  0  0
    6.6877    3.0296   -0.2643 N   0  3  0  0  0  0  0  0  0  0  0  0
    8.8579    2.0013   -0.9056 C   0  0  0  0  0  0  0  0  0  0  0  0
    9.5748    1.1269   -1.9453 C   0  0  0  0  0  0  0  0  0  0  0  0
    9.8403    0.5576   -4.3874 C   0  0  0  0  0  0  0  0  0  0  0  0
    9.4837    0.8391   -5.7842 N   0  3  0  0  0  0  0  0  0  0  0  0
    8.0354    6.5208   -3.5603 C   0  0  1  0  0  0  0  0  0  0  0  0
    7.3333    7.6753   -4.3158 C   0  0  0  0  0  0  0  0  0  0  0  0
    5.9751    8.0164   -3.6461 C   0  0  1  0  0  0  0  0  0  0  0  0
    5.3540    9.1681   -4.3279 N   0  3  0  0  0  0  0  0  0  0  0  0
    5.0447    6.7690   -3.6488 C   0  0  1  0  0  0  0  0  0  0  0  0
    5.7312    5.5429   -2.9964 C   0  0  1  0  0  0  0  0  0  0  0  0
    4.8684    4.4351   -3.2071 O   0  0  0  0  0  0  0  0  0  0  0  0
    7.1595    5.2252   -3.5499 C   0  0  2  0  0  0  0  0  0  0  0  0
    9.3677    6.2739   -4.1395 N   0  3  0  0  0  0  0  0  0  0  0  0
    1.7302    4.8647   -2.4386 C   0  0  0  0  0  0  0  0  0  0  0  0
    0.5055    5.5967   -1.8370 C   0  0  2  0  0  0  0  0  0  0  0  0
   -0.5792    5.4097   -2.7450 O   0  0  0  0  0  0  0  0  0  0  0  0
    0.8399    7.1268   -1.6685 C   0  0  1  0  0  0  0  0  0  0  0  0
    1.4670    7.7592   -2.9573 C   0  0  2  0  0  0  0  0  0  0  0  0
    2.5719    6.8830   -3.6002 C   0  0  1  0  0  0  0  0  0  0  0  0
    3.8297    7.0343   -2.8911 O   0  0  0  0  0  0  0  0  0  0  0  0
    2.1556    5.4904   -3.6786 O   0  0  0  0  0  0  0  0  0  0  0  0
    2.0011    9.0543   -2.6956 O   0  0  0  0  0  0  0  0  0  0  0  0
   -0.3917    7.8718   -1.2606 N   0  3  0  0  0  0  0  0  0  0  0  0
   -0.2011    9.0818   -0.4351 C   0  0  0  0  0  0  0  0  0  0  0  0
    0.1180    4.9030   -0.5079 C   0  0  0  0  0  0  0  0  0  0  0  0
  1  8  1  0  0  0  0
  1  9  1  6  0  0  0
  1  2  1  0  0  0  0
  2  3  1  0  0  0  0
  3  5  1  0  0  0  0
  3  4  1  1  0  0  0
  5  7  1  0  0  0  0
  5  6  1  1  0  0  0
  7  8  1  0  0  0  0
  9 10  1  0  0  0  0
 11 12  1  0  0  0  0
 11 18  1  0  0  0  0
 11 19  1  6  0  0  0
 12 13  1  0  0  0  0
 13 15  1  0  0  0  0
 13 14  1  6  0  0  0
 15 16  1  0  0  0  0
 15 26  1  1  0  0  0
 16 18  1  0  0  0  0
 16 17  1  6  0  0  0
 18  4  1  1  0  0  0
 20 21  1  0  0  0  0
 20 27  1  0  0  0  0
 21 31  1  1  0  0  0
 21 23  1  0  0  0  0
 21 22  1  0  0  0  0
 23 24  1  0  0  0  0
 23 29  1  6  0  0  0
 24 25  1  0  0  0  0
 24 28  1  1  0  0  0
 25 27  1  0  0  0  0
 25 26  1  1  0  0  0
 29 30  1  0  0  0  0
M  CHG  5   6   1  10   1  14   1  19   1  29   1
M  END
>  <CHROM.1>
47.12822420,96.32207108,-171.81410558,-179.49102701,122.10354309,-137.44640206
86.40648470,122.08801461,-169.95176672,58.13713985,-88.48962117,-176.26631361
-154.53117579,5.05006125,5.21191484,-2.83024073,0.47007493,-0.31793409,2.83294208

>  <Name>
1byj cryst

>  <RI>
0

>  <Rbt.Current_Directory>
/home/itssahil/PROJECTS/Mol_Feturizer/New_Systems/rnas/1byj

>  <Rbt.Executable>
rbdock ($Id: //depot/dev/client3/rdock/2013.1/src/exe/rbdock.cxx#4 $)

>  <Rbt.Library>
libRbt.so (2013.1, Build901 2013/11/27)

>  <Rbt.Parameter_File>
/export/apps/rDock/src/rDock_2013.1_src/data/scripts/dock_solv.prm

>  <Rbt.Receptor>
prm/pocket_docking_5.prm

>  <SCORE>
-50.967

>  <SCORE.INTER>
-54.4703

>  <SCORE.INTER.CONST>
1

>  <SCORE.INTER.POLAR>
-8.10312

>  <SCORE.INTER.ROT>
6

>  <SCORE.INTER.SOLV>
31.7843

>  <SCORE.INTER.VDW>
-27.4979

>  <SCORE.INTER.norm>
-1.75711

>  <SCORE.INTRA>
3.50333

>  <SCORE.INTRA.DIHEDRAL>
7.69739

>  <SCORE.INTRA.DIHEDRAL.0>
18.4149

>  <SCORE.INTRA.POLAR>
-0.0227192

>  <SCORE.INTRA.POLAR.0>
0

>  <SCORE.INTRA.REPUL>
-0.092687

>  <SCORE.INTRA.REPUL.0>
0.092687

>  <SCORE.INTRA.SOLV>
-1.39574

>  <SCORE.INTRA.SOLV.lig_0>
-120.37

>  <SCORE.INTRA.VDW>
0.893183

>  <SCORE.INTRA.VDW.0>
-1.75542

>  <SCORE.INTRA.norm>
0.113011

>  <SCORE.RESTR>
0

>  <SCORE.RESTR.CAVITY>
0

>  <SCORE.RESTR.norm>
0

>  <SCORE.SYSTEM>
0

>  <SCORE.SYSTEM.CONST>
0

>  <SCORE.SYSTEM.DIHEDRAL>
0

>  <SCORE.SYSTEM.SOLV>
0

>  <SCORE.SYSTEM.norm>
0

>  <SCORE.heavy>
31

>  <SCORE.norm>
-1.6441

>  <RMSD>
1.728

$$$$
1byj cryst
 OpenBabel11021811383D
libRbt.so/2013.1/901 2013/11/27
 31 33  0  0  0  0  0  0  0  0999 V2000
    9.3892    1.6922   -3.3439 C   0  0  1  0  0  0  0  0  0  0  0  0
    7.9697    2.0426   -3.4091 O   0  0  0  0  0  0  0  0  0  0  0  0
    7.4278    2.9563   -2.4091 C   0  0  2  0  0  0  0  0  0  0  0  0
    7.9629    4.3062   -2.5770 O   0  0  0  0  0  0  0  0  0  0  0  0
    7.7389    2.4044   -0.9846 C   0  0  2  0  0  0  0  0  0  0  0  0
    7.2267    3.2666    0.0986 N   0  3  0  0  0  0  0  0  0  0  0  0
    9.2647    2.1814   -0.8220 C   0  0  0  0  0  0  0  0  0  0  0  0
    9.8053    1.2470   -1.9147 C   0  0  0  0  0  0  0  0  0  0  0  0
    9.6800    0.5518   -4.3354 C   0  0  0  0  0  0  0  0  0  0  0  0
    9.4509    0.9137   -5.7404 N   0  3  0  0  0  0  0  0  0  0  0  0
    8.1140    6.5471   -3.5900 C   0  0  1  0  0  0  0  0  0  0  0  0
    7.3816    7.6171   -4.4357 C   0  0  0  0  0  0  0  0  0  0  0  0
    6.0149    7.9761   -3.7930 C   0  0  1  0  0  0  0  0  0  0  0  0
    5.3637    9.0514   -4.5653 N   0  3  0  0  0  0  0  0  0  0  0  0
    5.1177    6.7086   -3.6915 C   0  0  1  0  0  0  0  0  0  0  0  0
    5.8364    5.5585   -2.9425 C   0  0  1  0  0  0  0  0  0  0  0  0
    5.0030    4.4149   -3.0599 O   0  0  0  0  0  0  0  0  0  0  0  0
    7.2725    5.2341   -3.4715 C   0  0  2  0  0  0  0  0  0  0  0  0
    9.4522    6.2886   -4.1501 N   0  3  0  0  0  0  0  0  0  0  0  0
    1.8853    4.8456   -2.1672 C   0  0  0  0  0  0  0  0  0  0  0  0
    0.6351    5.6112   -1.6689 C   0  0  2  0  0  0  0  0  0  0  0  0
   -0.4449    5.2504   -2.5290 O   0  0  0  0  0  0  0  0  0  0  0  0
    0.9097    7.1610   -1.7316 C   0  0  1  0  0  0  0  0  0  0  0  0
    1.5067    7.6192   -3.1055 C   0  0  2  0  0  0  0  0  0  0  0  0
    2.6428    6.7004   -3.6222 C   0  0  1  0  0  0  0  0  0  0  0  0
    3.8963    7.0031   -2.9552 O   0  0  0  0  0  0  0  0  0  0  0  0
    2.2812    5.2966   -3.4900 O   0  0  0  0  0  0  0  0  0  0  0  0
    1.9905    8.9583   -3.0431 O   0  0  0  0  0  0  0  0  0  0  0  0
   -0.3487    7.9105   -1.4266 N   0  3  0  0  0  0  0  0  0  0  0  0
   -0.2016    9.2542   -0.8311 C   0  0  0  0  0  0  0  0  0  0  0  0
    0.2799    5.1076   -0.2482 C   0  0  0  0  0  0  0  0  0  0  0  0
  1  8  1  0  0  0  0
  1  9  1  6  0  0  0
  1  2  1  0  0  0  0
  2  3  1  0  0  0  0
  3  5  1  0  0  0  0
  3  4  1  1  0  0  0
  5  7  1  0  0  0  0
  5  6  1  1  0  0  0
  7  8  1  0  0  0  0
  9 10  1  0  0  0  0
 11 12  1  0  0  0  0
 11 18  1  0  0  0  0
 11 19  1  6  0  0  0
 12 13  1  0  0  0  0
 13 15  1  0  0  0  0
 13 14  1  6  0  0  0
 15 16  1  0  0  0  0
 15 26  1  1  0  0  0
 16 18  1  0  0  0  0
 16 17  1  6  0  0  0
 18  4  1  1  0  0  0
 20 21  1  0  0  0  0
 20 27  1  0  0  0  0
 21 31  1  1  0  0  0
 21 23  1  0  0  0  0
 21 22  1  0  0  0  0
 23 24  1  0  0  0  0
 23 29  1  6  0  0  0
 24 25  1  0  0  0  0
 24 28  1  1  0  0  0
 25 27  1  0  0  0  0
 25 26  1  1  0  0  0
 29 30  1  0  0  0  0
M  CHG  5   6   1  10   1  14   1  19   1  29   1
M  END
>  <CHROM.1>
63.33868502,88.42913517,-174.32691085,-157.67664839,-19.75447065,-10.39487640
92.16032063,124.98485206,-16.14215073,-36.40161346,-86.56119358,-165.48951501
-152.92481728,5.15465593,5.23137358,-2.79407948,0.44344570,-0.32650797,2.75101321

>  <Name>
1byj cryst

>  <RI>
0

>  <Rbt.Current_Directory>
/home/itssahil/PROJECTS/Mol_Feturizer/New_Systems/rnas/1byj

>  <Rbt.Executable>
rbdock ($Id: //depot/dev/client3/rdock/2013.1/src/exe/rbdock.cxx#4 $)

>  <Rbt.Library>
libRbt.so (2013.1, Build901 2013/11/27)

>  <Rbt.Parameter_File>
/export/apps/rDock/src/rDock_2013.1_src/data/scripts/dock_solv.prm

>  <Rbt.Receptor>
prm/pocket_docking_4.prm

>  <SCORE>
-44.0763

>  <SCORE.INTER>
-50.1839

>  <SCORE.INTER.CONST>
1

>  <SCORE.INTER.POLAR>
-7.58395

>  <SCORE.INTER.ROT>
6

>  <SCORE.INTER.SOLV>
32.9332

>  <SCORE.INTER.VDW>
-26.7538

>  <SCORE.INTER.norm>
-1.61883

>  <SCORE.INTRA>
6.10762

>  <SCORE.INTRA.DIHEDRAL>
15.5605

>  <SCORE.INTRA.DIHEDRAL.0>
18.4149

>  <SCORE.INTRA.POLAR>
-0.489144

>  <SCORE.INTRA.POLAR.0>
0

>  <SCORE.INTRA.REPUL>
-0.092687

>  <SCORE.INTRA.REPUL.0>
0.092687

>  <SCORE.INTRA.SOLV>
-2.64503

>  <SCORE.INTRA.SOLV.lig_0>
-120.37

>  <SCORE.INTRA.VDW>
1.77639

>  <SCORE.INTRA.VDW.0>
-1.75542

>  <SCORE.INTRA.norm>
0.19702

>  <SCORE.RESTR>
0

>  <SCORE.RESTR.CAVITY>
0

>  <SCORE.RESTR.norm>
0

>  <SCORE.SYSTEM>
0

>  <SCORE.SYSTEM.CONST>
0

>  <SCORE.SYSTEM.DIHEDRAL>
0

>  <SCORE.SYSTEM.SOLV>
0

>  <SCORE.SYSTEM.norm>
0

>  <SCORE.heavy>
31

>  <SCORE.norm>
-1.42181

>  <RMSD>
1.732

$$$$
1byj cryst
 OpenBabel11021811383D
libRbt.so/2013.1/901 2013/11/27
 31 33  0  0  0  0  0  0  0  0999 V2000
    9.8126    1.8644   -3.1343 C   0  0  1  0  0  0  0  0  0  0  0  0
    8.3703    2.0650   -3.2815 O   0  0  0  0  0  0  0  0  0  0  0  0
    7.6770    2.9008   -2.3071 C   0  0  2  0  0  0  0  0  0  0  0  0
    8.0754    4.3019   -2.4294 O   0  0  0  0  0  0  0  0  0  0  0  0
    7.9603    2.3619   -0.8719 C   0  0  2  0  0  0  0  0  0  0  0  0
    7.2970    3.1482    0.1868 N   0  3  0  0  0  0  0  0  0  0  0  0
    9.4888    2.2975   -0.6198 C   0  0  0  0  0  0  0  0  0  0  0  0
   10.1885    1.4425   -1.6870 C   0  0  0  0  0  0  0  0  0  0  0  0
   10.2801    0.7768   -4.1175 C   0  0  0  0  0  0  0  0  0  0  0  0
   10.2159    1.1836   -5.5273 N   0  3  0  0  0  0  0  0  0  0  0  0
    8.1531    6.4821   -3.5744 C   0  0  1  0  0  0  0  0  0  0  0  0
    7.3696    7.4954   -4.4438 C   0  0  0  0  0  0  0  0  0  0  0  0
    6.0307    7.8789   -3.7581 C   0  0  1  0  0  0  0  0  0  0  0  0
    5.3316    8.9024   -4.5584 N   0  3  0  0  0  0  0  0  0  0  0  0
    5.1538    6.6116   -3.5418 C   0  0  1  0  0  0  0  0  0  0  0  0
    5.9200    5.5127   -2.7638 C   0  0  1  0  0  0  0  0  0  0  0  0
    5.0951    4.3571   -2.7759 O   0  0  0  0  0  0  0  0  0  0  0  0
    7.3331    5.1709   -3.3413 C   0  0  2  0  0  0  0  0  0  0  0  0
    9.4663    6.2035   -4.1821 N   0  3  0  0  0  0  0  0  0  0  0  0
    1.2724    5.5999   -2.2370 C   0  0  0  0  0  0  0  0  0  0  0  0
    0.3417    6.7325   -1.7384 C   0  0  2  0  0  0  0  0  0  0  0  0
   -0.7337    6.8294   -2.6714 O   0  0  0  0  0  0  0  0  0  0  0  0
    1.1495    8.0831   -1.6699 C   0  0  1  0  0  0  0  0  0  0  0  0
    1.9636    8.3733   -2.9764 C   0  0  2  0  0  0  0  0  0  0  0  0
    2.7351    7.1396   -3.5101 C   0  0  1  0  0  0  0  0  0  0  0  0
    3.9652    6.9373   -2.7661 O   0  0  0  0  0  0  0  0  0  0  0  0
    1.8928    5.9525   -3.5022 O   0  0  0  0  0  0  0  0  0  0  0  0
    2.8836    9.4458   -2.7900 O   0  0  0  0  0  0  0  0  0  0  0  0
    0.2189    9.2143   -1.3655 N   0  3  0  0  0  0  0  0  0  0  0  0
   -0.2561    9.3357    0.0278 C   0  0  0  0  0  0  0  0  0  0  0  0
   -0.2661    6.3110   -0.3779 C   0  0  0  0  0  0  0  0  0  0  0  0
  1  8  1  0  0  0  0
  1  9  1  6  0  0  0
  1  2  1  0  0  0  0
  2  3  1  0  0  0  0
  3  5  1  0  0  0  0
  3  4  1  1  0  0  0
  5  7  1  0  0  0  0
  5  6  1  1  0  0  0
  7  8  1  0  0  0  0
  9 10  1  0  0  0  0
 11 12  1  0  0  0  0
 11 18  1  0  0  0  0
 11 19  1  6  0  0  0
 12 13  1  0  0  0  0
 13 15  1  0  0  0  0
 13 14  1  6  0  0  0
 15 16  1  0  0  0  0
 15 26  1  1  0  0  0
 16 18  1  0  0  0  0
 16 17  1  6  0  0  0
 18  4  1  1  0  0  0
 20 21  1  0  0  0  0
 20 27  1  0  0  0  0
 21 31  1  1  0  0  0
 21 23  1  0  0  0  0
 21 22  1  0  0  0  0
 23 24  1  0  0  0  0
 23 29  1  6  0  0  0
 24 25  1  0  0  0  0
 24 28  1  1  0  0  0
 25 27  1  0  0  0  0
 25 26  1  1  0  0  0
 29 30  1  0  0  0  0
M  CHG  5   6   1  10   1  14   1  19   1  29   1
M  END
>  <CHROM.1>
68.81442204,89.25095998,-165.60089647,179.70858044,68.93298935,-126.05603495
-39.46877346,99.26001948,-54.10944240,179.99322740,-163.21280022,-60.31092047
-136.71772320,5.28146457,5.53636006,-2.67058146,0.43244576,-0.39823199,2.62433017

>  <Name>
1byj cryst

>  <RI>
0

>  <Rbt.Current_Directory>
/home/itssahil/PROJECTS/Mol_Feturizer/New_Systems/rnas/1byj

>  <Rbt.Executable>
rbdock ($Id: //depot/dev/client3/rdock/2013.1/src/exe/rbdock.cxx#4 $)

>  <Rbt.Library>
libRbt.so (2013.1, Build901 2013/11/27)

>  <Rbt.Parameter_File>
/export/apps/rDock/src/rDock_2013.1_src/data/scripts/dock_solv.prm

>  <Rbt.Receptor>
prm/pocket_docking_3.prm

>  <SCORE>
-63.5793

>  <SCORE.INTER>
-61.9689

>  <SCORE.INTER.CONST>
1

>  <SCORE.INTER.POLAR>
-9.00207

>  <SCORE.INTER.ROT>
6

>  <SCORE.INTER.SOLV>
29.9487

>  <SCORE.INTER.VDW>
-28.8886

>  <SCORE.INTER.norm>
-1.999

>  <SCORE.INTRA>
-2.26407

>  <SCORE.INTRA.DIHEDRAL>
3.07907

>  <SCORE.INTRA.DIHEDRAL.0>
18.4149

>  <SCORE.INTRA.POLAR>
-1.17923

>  <SCORE.INTRA.POLAR.0>
0

>  <SCORE.INTRA.REPUL>
-0.092687

>  <SCORE.INTRA.REPUL.0>
0.092687

>  <SCORE.INTRA.SOLV>
-0.927509

>  <SCORE.INTRA.SOLV.lig_0>
-120.37

>  <SCORE.INTRA.VDW>
1.13297

>  <SCORE.INTRA.VDW.0>
-1.75542

>  <SCORE.INTRA.norm>
-0.0730346

>  <SCORE.RESTR>
0.653602

>  <SCORE.RESTR.CAVITY>
0.653602

>  <SCORE.RESTR.norm>
0.0210839

>  <SCORE.SYSTEM>
0

>  <SCORE.SYSTEM.CONST>
0

>  <SCORE.SYSTEM.DIHEDRAL>
0

>  <SCORE.SYSTEM.SOLV>
0

>  <SCORE.SYSTEM.norm>
0

>  <SCORE.heavy>
31

>  <SCORE.norm>
-2.05095

>  <RMSD>
1.750

$$$$
1byj cryst
 OpenBabel11021811383D
libRbt.so/2013.1/901 2013/11/27
 31 33  0  0  0  0  0  0  0  0999 V2000
    9.8591    1.7741   -3.2627 C   0  0  1  0  0  0  0  0  0  0  0  0
    8.4162    1.9879   -3.3818 O   0  0  0  0  0  0  0  0  0  0  0  0
    7.7468    2.8160   -2.3844 C   0  0  2  0  0  0  0  0  0  0  0  0
    8.1542    4.2155   -2.4953 O   0  0  0  0  0  0  0  0  0  0  0  0
    8.0508    2.2559   -0.9617 C   0  0  2  0  0  0  0  0  0  0  0  0
    7.4125    3.0332    0.1188 N   0  3  0  0  0  0  0  0  0  0  0  0
    9.5829    2.1763   -0.7374 C   0  0  0  0  0  0  0  0  0  0  0  0
   10.2569    1.3301   -1.8280 C   0  0  0  0  0  0  0  0  0  0  0  0
   10.3007    0.6961   -4.2682 C   0  0  0  0  0  0  0  0  0  0  0  0
   10.1709    1.1056   -5.6728 N   0  3  0  0  0  0  0  0  0  0  0  0
    8.1358    6.4759   -3.4754 C   0  0  1  0  0  0  0  0  0  0  0  0
    7.3149    7.5091   -4.2848 C   0  0  0  0  0  0  0  0  0  0  0  0
    5.9456    7.7706   -3.6018 C   0  0  1  0  0  0  0  0  0  0  0  0
    5.2072    8.8132   -4.3398 N   0  3  0  0  0  0  0  0  0  0  0  0
    5.1338    6.4471   -3.4980 C   0  0  1  0  0  0  0  0  0  0  0  0
    5.9436    5.3345   -2.7863 C   0  0  1  0  0  0  0  0  0  0  0  0
    5.1817    4.1418   -2.9008 O   0  0  0  0  0  0  0  0  0  0  0  0
    7.3829    5.1103   -3.3568 C   0  0  2  0  0  0  0  0  0  0  0  0
    9.4725    6.3117   -4.0736 N   0  3  0  0  0  0  0  0  0  0  0  0
    1.3145    5.1210   -2.2706 C   0  0  0  0  0  0  0  0  0  0  0  0
    0.3046    6.1723   -1.7488 C   0  0  2  0  0  0  0  0  0  0  0  0
   -0.7655    6.2260   -2.6912 O   0  0  0  0  0  0  0  0  0  0  0  0
    1.0188    7.5713   -1.6292 C   0  0  1  0  0  0  0  0  0  0  0  0
    1.8243    7.9563   -2.9164 C   0  0  2  0  0  0  0  0  0  0  0  0
    2.6825    6.7946   -3.4784 C   0  0  1  0  0  0  0  0  0  0  0  0
    3.9160    6.6521   -2.7262 O   0  0  0  0  0  0  0  0  0  0  0  0
    1.9222    5.5539   -3.5168 O   0  0  0  0  0  0  0  0  0  0  0  0
    2.6678    9.0818   -2.6862 O   0  0  0  0  0  0  0  0  0  0  0  0
    0.0109    8.6274   -1.3015 N   0  3  0  0  0  0  0  0  0  0  0  0
   -0.4810    8.6762    0.0904 C   0  0  0  0  0  0  0  0  0  0  0  0
   -0.2867    5.6685   -0.4092 C   0  0  0  0  0  0  0  0  0  0  0  0
  1  8  1  0  0  0  0
  1  9  1  6  0  0  0
  1  2  1  0  0  0  0
  2  3  1  0  0  0  0
  3  5  1  0  0  0  0
  3  4  1  1  0  0  0
  5  7  1  0  0  0  0
  5  6  1  1  0  0  0
  7  8  1  0  0  0  0
  9 10  1  0  0  0  0
 11 12  1  0  0  0  0
 11 18  1  0  0  0  0
 11 19  1  6  0  0  0
 12 13  1  0  0  0  0
 13 15  1  0  0  0  0
 13 14  1  6  0  0  0
 15 16  1  0  0  0  0
 15 26  1  1  0  0  0
 16 18  1  0  0  0  0
 16 17  1  6  0  0  0
 18  4  1  1  0  0  0
 20 21  1  0  0  0  0
 20 27  1  0  0  0  0
 21 31  1  1  0  0  0
 21 23  1  0  0  0  0
 21 22  1  0  0  0  0
 23 24  1  0  0  0  0
 23 29  1  6  0  0  0
 24 25  1  0  0  0  0
 24 28  1  1  0  0  0
 25 27  1  0  0  0  0
 25 26  1  1  0  0  0
 29 30  1  0  0  0  0
M  CHG  5   6   1  10   1  14   1  19   1  29   1
M  END
>  <CHROM.1>
66.80287538,90.75732897,-171.51752609,63.72966054,-174.89214759,148.02952227
71.76326990,101.52098020,-58.05551644,59.32240568,-162.98048139,-61.68728214
-136.02421312,5.26159185,5.29023207,-2.67623094,0.41625603,-0.34890301,2.70425208

>  <Name>
1byj cryst

>  <RI>
0

>  <Rbt.Current_Directory>
/home/itssahil/PROJECTS/Mol_Feturizer/New_Systems/rnas/1byj

>  <Rbt.Executable>
rbdock ($Id: //depot/dev/client3/rdock/2013.1/src/exe/rbdock.cxx#4 $)

>  <Rbt.Library>
libRbt.so (2013.1, Build901 2013/11/27)

>  <Rbt.Parameter_File>
/export/apps/rDock/src/rDock_2013.1_src/data/scripts/dock_solv.prm

>  <Rbt.Receptor>
prm/pocket_docking_4.prm

>  <SCORE>
-57.4166

>  <SCORE.INTER>
-52.5236

>  <SCORE.INTER.CONST>
1

>  <SCORE.INTER.POLAR>
-7.20372

>  <SCORE.INTER.ROT>
6

>  <SCORE.INTER.SOLV>
30.4828

>  <SCORE.INTER.VDW>
-28.7642

>  <SCORE.INTER.norm>
-1.69431

>  <SCORE.INTRA>
-4.89308

>  <SCORE.INTRA.DIHEDRAL>
0.764211

>  <SCORE.INTRA.DIHEDRAL.0>
18.4149

>  <SCORE.INTRA.POLAR>
-1.23243

>  <SCORE.INTRA.POLAR.0>
0

>  <SCORE.INTRA.REPUL>
-0.092687

>  <SCORE.INTRA.REPUL.0>
0.092687

>  <SCORE.INTRA.SOLV>
-1.81473

>  <SCORE.INTRA.SOLV.lig_0>
-120.37

>  <SCORE.INTRA.VDW>
0.285864

>  <SCORE.INTRA.VDW.0>
-1.75542

>  <SCORE.INTRA.norm>
-0.157841

>  <SCORE.RESTR>
0

>  <SCORE.RESTR.CAVITY>
0

>  <SCORE.RESTR.norm>
0

>  <SCORE.SYSTEM>
0

>  <SCORE.SYSTEM.CONST>
0

>  <SCORE.SYSTEM.DIHEDRAL>
0

>  <SCORE.SYSTEM.SOLV>
0

>  <SCORE.SYSTEM.norm>
0

>  <SCORE.heavy>
31

>  <SCORE.norm>
-1.85215

>  <RMSD>
1.765

$$$$
1byj cryst
 OpenBabel11021811383D
libRbt.so/2013.1/901 2013/11/27
 31 33  0  0  0  0  0  0  0  0999 V2000
    9.8650    1.7721   -3.2963 C   0  0  1  0  0  0  0  0  0  0  0  0
    8.4202    1.9674   -3.4247 O   0  0  0  0  0  0  0  0  0  0  0  0
    7.7340    2.7875   -2.4321 C   0  0  2  0  0  0  0  0  0  0  0  0
    8.1243    4.1920   -2.5413 O   0  0  0  0  0  0  0  0  0  0  0  0
    8.0360    2.2321   -1.0071 C   0  0  2  0  0  0  0  0  0  0  0  0
    7.3810    3.0018    0.0688 N   0  3  0  0  0  0  0  0  0  0  0  0
    9.5676    2.1721   -0.7730 C   0  0  0  0  0  0  0  0  0  0  0  0
   10.2592    1.3340   -1.8587 C   0  0  0  0  0  0  0  0  0  0  0  0
   10.3266    0.6992   -4.2982 C   0  0  0  0  0  0  0  0  0  0  0  0
   10.2398    1.1215   -5.7023 N   0  3  0  0  0  0  0  0  0  0  0  0
    8.0811    6.4529   -3.5194 C   0  0  1  0  0  0  0  0  0  0  0  0
    7.2519    7.4749   -4.3345 C   0  0  0  0  0  0  0  0  0  0  0  0
    5.8734    7.7158   -3.6624 C   0  0  1  0  0  0  0  0  0  0  0  0
    5.1260    8.7484   -4.4054 N   0  3  0  0  0  0  0  0  0  0  0  0
    5.0800    6.3806   -3.5665 C   0  0  1  0  0  0  0  0  0  0  0  0
    5.9001    5.2791   -2.8493 C   0  0  1  0  0  0  0  0  0  0  0  0
    5.1566    4.0756   -2.9712 O   0  0  0  0  0  0  0  0  0  0  0  0
    7.3471    5.0764   -3.4083 C   0  0  2  0  0  0  0  0  0  0  0  0
    9.4248    6.3088   -4.1067 N   0  3  0  0  0  0  0  0  0  0  0  0
    1.5076    4.6780   -2.3050 C   0  0  0  0  0  0  0  0  0  0  0  0
    0.3571    5.5780   -1.7912 C   0  0  2  0  0  0  0  0  0  0  0  0
   -0.7146    5.4586   -2.7257 O   0  0  0  0  0  0  0  0  0  0  0  0
    0.8586    7.0684   -1.6986 C   0  0  1  0  0  0  0  0  0  0  0  0
    1.5915    7.5467   -2.9978 C   0  0  2  0  0  0  0  0  0  0  0  0
    2.6079    6.5147   -3.5489 C   0  0  1  0  0  0  0  0  0  0  0  0
    3.8532    6.5671   -2.8045 O   0  0  0  0  0  0  0  0  0  0  0  0
    2.0380    5.1753   -3.5625 O   0  0  0  0  0  0  0  0  0  0  0  0
    2.2617    8.7874   -2.7915 O   0  0  0  0  0  0  0  0  0  0  0  0
   -0.2917    7.9702   -1.3790 N   0  3  0  0  0  0  0  0  0  0  0  0
    0.0159    9.2159   -0.6471 C   0  0  0  0  0  0  0  0  0  0  0  0
   -0.1462    5.0145   -0.4394 C   0  0  0  0  0  0  0  0  0  0  0  0
  1  8  1  0  0  0  0
  1  9  1  6  0  0  0
  1  2  1  0  0  0  0
  2  3  1  0  0  0  0
  3  5  1  0  0  0  0
  3  4  1  1  0  0  0
  5  7  1  0  0  0  0
  5  6  1  1  0  0  0
  7  8  1  0  0  0  0
  9 10  1  0  0  0  0
 11 12  1  0  0  0  0
 11 18  1  0  0  0  0
 11 19  1  6  0  0  0
 12 13  1  0  0  0  0
 13 15  1  0  0  0  0
 13 14  1  6  0  0  0
 15 16  1  0  0  0  0
 15 26  1  1  0  0  0
 16 18  1  0  0  0  0
 16 17  1  6  0  0  0
 18  4  1  1  0  0  0
 20 21  1  0  0  0  0
 20 27  1  0  0  0  0
 21 31  1  1  0  0  0
 21 23  1  0  0  0  0
 21 22  1  0  0  0  0
 23 24  1  0  0  0  0
 23 29  1  6  0  0  0
 24 25  1  0  0  0  0
 24 28  1  1  0  0  0
 25 27  1  0  0  0  0
 25 26  1  1  0  0  0
 29 30  1  0  0  0  0
M  CHG  5   6   1  10   1  14   1  19   1  29   1
M  END
>  <CHROM.1>
68.59725912,90.76040482,-171.69222401,-53.46995097,-52.55370697,-12.54930700
-172.42229120,109.45447518,-160.31381697,54.48829310,-87.00964873,-62.73497278
-142.67856829,5.24088900,5.12314495,-2.74972948,0.41104656,-0.30575949,2.74793036

>  <Name>
1byj cryst

>  <RI>
0

>  <Rbt.Current_Directory>
/home/itssahil/PROJECTS/Mol_Feturizer/New_Systems/rnas/1byj

>  <Rbt.Executable>
rbdock ($Id: //depot/dev/client3/rdock/2013.1/src/exe/rbdock.cxx#4 $)

>  <Rbt.Library>
libRbt.so (2013.1, Build901 2013/11/27)

>  <Rbt.Parameter_File>
/export/apps/rDock/src/rDock_2013.1_src/data/scripts/dock_solv.prm

>  <Rbt.Receptor>
prm/pocket_docking_7.prm

>  <SCORE>
-58.5546

>  <SCORE.INTER>
-57.9562

>  <SCORE.INTER.CONST>
1

>  <SCORE.INTER.POLAR>
-8.12123

>  <SCORE.INTER.ROT>
6

>  <SCORE.INTER.SOLV>
31.0916

>  <SCORE.INTER.VDW>
-29.5306

>  <SCORE.INTER.norm>
-1.86956

>  <SCORE.INTRA>
-0.598357

>  <SCORE.INTRA.DIHEDRAL>
4.81164

>  <SCORE.INTRA.DIHEDRAL.0>
18.4149

>  <SCORE.INTRA.POLAR>
-0.610126

>  <SCORE.INTRA.POLAR.0>
0

>  <SCORE.INTRA.REPUL>
-0.092687

>  <SCORE.INTRA.REPUL.0>
0.092687

>  <SCORE.INTRA.SOLV>
-1.68063

>  <SCORE.INTRA.SOLV.lig_0>
-120.37

>  <SCORE.INTRA.VDW>
0.374005

>  <SCORE.INTRA.VDW.0>
-1.75542

>  <SCORE.INTRA.norm>
-0.0193018

>  <SCORE.RESTR>
0

>  <SCORE.RESTR.CAVITY>
0

>  <SCORE.RESTR.norm>
0

>  <SCORE.SYSTEM>
0

>  <SCORE.SYSTEM.CONST>
0

>  <SCORE.SYSTEM.DIHEDRAL>
0

>  <SCORE.SYSTEM.SOLV>
0

>  <SCORE.SYSTEM.norm>
0

>  <SCORE.heavy>
31

>  <SCORE.norm>
-1.88886

>  <RMSD>
1.781

$$$$
1byj cryst
 OpenBabel11021811383D
libRbt.so/2013.1/901 2013/11/27
 31 33  0  0  0  0  0  0  0  0999 V2000
    9.3033    2.0490   -3.7044 C   0  0  1  0  0  0  0  0  0  0  0  0
    7.8830    2.3881   -3.6039 O   0  0  0  0  0  0  0  0  0  0  0  0
    7.4481    3.2664   -2.5231 C   0  0  2  0  0  0  0  0  0  0  0  0
    7.9537    4.6256   -2.7066 O   0  0  0  0  0  0  0  0  0  0  0  0
    7.9160    2.6749   -1.1587 C   0  0  2  0  0  0  0  0  0  0  0  0
    7.5200    3.4994   -0.0001 N   0  3  0  0  0  0  0  0  0  0  0  0
    9.4517    2.4612   -1.1700 C   0  0  0  0  0  0  0  0  0  0  0  0
    9.8754    1.5650   -2.3434 C   0  0  0  0  0  0  0  0  0  0  0  0
    9.4909    0.9417   -4.7564 C   0  0  0  0  0  0  0  0  0  0  0  0
   10.8425    0.8896   -5.3290 N   0  3  0  0  0  0  0  0  0  0  0  0
    7.8688    6.9695   -3.4612 C   0  0  1  0  0  0  0  0  0  0  0  0
    7.0240    8.0481   -4.1819 C   0  0  0  0  0  0  0  0  0  0  0  0
    5.6352    8.1935   -3.5039 C   0  0  1  0  0  0  0  0  0  0  0  0
    4.8714    9.2774   -4.1509 N   0  3  0  0  0  0  0  0  0  0  0  0
    4.8706    6.8388   -3.5460 C   0  0  1  0  0  0  0  0  0  0  0  0
    5.7087    5.6904   -2.9305 C   0  0  1  0  0  0  0  0  0  0  0  0
    4.9928    4.4891   -3.1761 O   0  0  0  0  0  0  0  0  0  0  0  0
    7.1643    5.5735   -3.4916 C   0  0  2  0  0  0  0  0  0  0  0  0
    9.2201    6.9114   -4.0460 N   0  3  0  0  0  0  0  0  0  0  0  0
    1.5967    4.6714   -2.4767 C   0  0  0  0  0  0  0  0  0  0  0  0
    0.3373    5.3353   -1.8678 C   0  0  2  0  0  0  0  0  0  0  0  0
   -0.7226    5.1578   -2.8066 O   0  0  0  0  0  0  0  0  0  0  0  0
    0.6188    6.8654   -1.6207 C   0  0  1  0  0  0  0  0  0  0  0  0
    1.2506    7.5776   -2.8648 C   0  0  2  0  0  0  0  0  0  0  0  0
    2.3958    6.7679   -3.5242 C   0  0  1  0  0  0  0  0  0  0  0  0
    3.6337    6.9246   -2.7821 O   0  0  0  0  0  0  0  0  0  0  0  0
    2.0262    5.3682   -3.6766 O   0  0  0  0  0  0  0  0  0  0  0  0
    1.7373    8.8749   -2.5313 O   0  0  0  0  0  0  0  0  0  0  0  0
   -0.6441    7.5513   -1.2048 N   0  3  0  0  0  0  0  0  0  0  0  0
   -0.5399    8.5483   -0.1199 C   0  0  0  0  0  0  0  0  0  0  0  0
   -0.0540    4.5676   -0.5812 C   0  0  0  0  0  0  0  0  0  0  0  0
  1  8  1  0  0  0  0
  1  9  1  6  0  0  0
  1  2  1  0  0  0  0
  2  3  1  0  0  0  0
  3  5  1  0  0  0  0
  3  4  1  6  0  0  0
  5  7  1  0  0  0  0
  5  6  1  1  0  0  0
  7  8  1  0  0  0  0
  9 10  1  0  0  0  0
 11 12  1  0  0  0  0
 11 18  1  0  0  0  0
 11 19  1  6  0  0  0
 12 13  1  0  0  0  0
 13 15  1  0  0  0  0
 13 14  1  6  0  0  0
 15 16  1  0  0  0  0
 15 26  1  1  0  0  0
 16 18  1  0  0  0  0
 16 17  1  6  0  0  0
 18  4  1  1  0  0  0
 20 21  1  0  0  0  0
 20 27  1  0  0  0  0
 21 31  1  1  0  0  0
 21 23  1  0  0  0  0
 21 22  1  0  0  0  0
 23 24  1  0  0  0  0
 23 29  1  6  0  0  0
 24 25  1  0  0  0  0
 24 28  1  1  0  0  0
 25 27  1  0  0  0  0
 25 26  1  1  0  0  0
 29 30  1  0  0  0  0
M  CHG  5   6   1  10   1  14   1  19   1  29   1
M  END
>  <CHROM.1>
156.91820628,88.42681721,176.39041619,-67.38239757,-168.71703801,-59.34990910
75.47537470,116.15555661,-68.47668775,-172.40663003,-100.22822587,-21.83179963
-149.80891071,5.03807339,5.32304786,-2.77473366,0.40183419,-0.26543724,2.88130358

>  <Name>
1byj cryst

>  <RI>
0

>  <Rbt.Current_Directory>
/home/itssahil/PROJECTS/Mol_Feturizer/New_Systems/rnas/1byj

>  <Rbt.Executable>
rbdock ($Id: //depot/dev/client3/rdock/2013.1/src/exe/rbdock.cxx#4 $)

>  <Rbt.Library>
libRbt.so (2013.1, Build901 2013/11/27)

>  <Rbt.Parameter_File>
/export/apps/rDock/src/rDock_2013.1_src/data/scripts/dock_solv.prm

>  <Rbt.Receptor>
prm/pocket_docking_3.prm

>  <SCORE>
-54.3151

>  <SCORE.INTER>
-56.6582

>  <SCORE.INTER.CONST>
1

>  <SCORE.INTER.POLAR>
-8.21635

>  <SCORE.INTER.ROT>
6

>  <SCORE.INTER.SOLV>
31.3118

>  <SCORE.INTER.VDW>
-28.4216

>  <SCORE.INTER.norm>
-1.82769

>  <SCORE.INTRA>
1.50257

>  <SCORE.INTRA.DIHEDRAL>
7.11526

>  <SCORE.INTRA.DIHEDRAL.0>
18.4149

>  <SCORE.INTRA.POLAR>
0

>  <SCORE.INTRA.POLAR.0>
0

>  <SCORE.INTRA.REPUL>
-0.092687

>  <SCORE.INTRA.REPUL.0>
0.092687

>  <SCORE.INTRA.SOLV>
-2.32391

>  <SCORE.INTRA.SOLV.lig_0>
-120.37

>  <SCORE.INTRA.VDW>
-0.429673

>  <SCORE.INTRA.VDW.0>
-1.75542

>  <SCORE.INTRA.norm>
0.0484699

>  <SCORE.RESTR>
0.840549

>  <SCORE.RESTR.CAVITY>
0.840549

>  <SCORE.RESTR.norm>
0.0271145

>  <SCORE.SYSTEM>
0

>  <SCORE.SYSTEM.CONST>
0

>  <SCORE.SYSTEM.DIHEDRAL>
0

>  <SCORE.SYSTEM.SOLV>
0

>  <SCORE.SYSTEM.norm>
0

>  <SCORE.heavy>
31

>  <SCORE.norm>
-1.7521

>  <RMSD>
1.792

$$$$
1byj cryst
 OpenBabel11021811383D
libRbt.so/2013.1/901 2013/11/27
 31 33  0  0  0  0  0  0  0  0999 V2000
    9.8415    1.7141   -3.2755 C   0  0  1  0  0  0  0  0  0  0  0  0
    8.3990    1.9442   -3.3680 O   0  0  0  0  0  0  0  0  0  0  0  0
    7.7578    2.7807   -2.3592 C   0  0  2  0  0  0  0  0  0  0  0  0
    8.1790    4.1753   -2.4790 O   0  0  0  0  0  0  0  0  0  0  0  0
    8.0818    2.2182   -0.9418 C   0  0  2  0  0  0  0  0  0  0  0  0
    7.4726    3.0036    0.1496 N   0  3  0  0  0  0  0  0  0  0  0  0
    9.6168    2.1213   -0.7459 C   0  0  0  0  0  0  0  0  0  0  0  0
   10.2608    1.2667   -1.8480 C   0  0  0  0  0  0  0  0  0  0  0  0
   10.2519    0.6303   -4.2880 C   0  0  0  0  0  0  0  0  0  0  0  0
   10.2306    1.0841   -5.6848 N   0  3  0  0  0  0  0  0  0  0  0  0
    8.1740    6.4236   -3.4868 C   0  0  1  0  0  0  0  0  0  0  0  0
    7.3393    7.4736   -4.2596 C   0  0  0  0  0  0  0  0  0  0  0  0
    6.0227    7.7878   -3.4994 C   0  0  1  0  0  0  0  0  0  0  0  0
    5.2749    8.8454   -4.2059 N   0  3  0  0  0  0  0  0  0  0  0  0
    5.1766    6.4929   -3.3292 C   0  0  1  0  0  0  0  0  0  0  0  0
    5.9918    5.3627   -2.6522 C   0  0  1  0  0  0  0  0  0  0  0  0
    5.1867    4.1944   -2.7048 O   0  0  0  0  0  0  0  0  0  0  0  0
    7.3862    5.0848   -3.3048 C   0  0  2  0  0  0  0  0  0  0  0  0
    9.4662    6.2087   -4.1616 N   0  3  0  0  0  0  0  0  0  0  0  0
    1.8077    5.2779   -0.9752 C   0  0  0  0  0  0  0  0  0  0  0  0
    0.6512    6.2987   -0.8416 C   0  0  2  0  0  0  0  0  0  0  0  0
   -0.4748    5.7441   -1.5204 O   0  0  0  0  0  0  0  0  0  0  0  0
    1.0817    7.6670   -1.4925 C   0  0  1  0  0  0  0  0  0  0  0  0
    1.6985    7.4945   -2.9222 C   0  0  2  0  0  0  0  0  0  0  0  0
    2.7255    6.3377   -3.0161 C   0  0  1  0  0  0  0  0  0  0  0  0
    4.0148    6.7468   -2.4888 O   0  0  0  0  0  0  0  0  0  0  0  0
    2.2246    5.1390   -2.3597 O   0  0  0  0  0  0  0  0  0  0  0  0
    2.3177    8.6970   -3.3714 O   0  0  0  0  0  0  0  0  0  0  0  0
   -0.0880    8.5991   -1.5312 N   0  3  0  0  0  0  0  0  0  0  0  0
   -0.5473    9.1528   -0.2411 C   0  0  0  0  0  0  0  0  0  0  0  0
    0.2712    6.4233    0.6544 C   0  0  0  0  0  0  0  0  0  0  0  0
  1  8  1  0  0  0  0
  1  9  1  6  0  0  0
  1  2  1  0  0  0  0
  2  3  1  0  0  0  0
  3  5  1  0  0  0  0
  3  4  1  1  0  0  0
  5  7  1  0  0  0  0
  5  6  1  1  0  0  0
  7  8  1  0  0  0  0
  9 10  1  0  0  0  0
 11 12  1  0  0  0  0
 11 18  1  0  0  0  0
 11 19  1  6  0  0  0
 12 13  1  0  0  0  0
 13 15  1  0  0  0  0
 13 14  1  6  0  0  0
 15 16  1  0  0  0  0
 15 26  1  1  0  0  0
 16 18  1  0  0  0  0
 16 17  1  6  0  0  0
 18  4  1  1  0  0  0
 20 21  1  0  0  0  0
 20 27  1  0  0  0  0
 21 31  1  1  0  0  0
 21 23  1  0  0  0  0
 21 22  1  0  0  0  0
 23 24  1  0  0  0  0
 23 29  1  6  0  0  0
 24 25  1  0  0  0  0
 24 28  1  1  0  0  0
 25 27  1  0  0  0  0
 25 26  1  1  0  0  0
 29 30  1  0  0  0  0
M  CHG  5   6   1  10   1  14   1  19   1  29   1
M  END
>  <CHROM.1>
72.65894453,92.00817048,-169.59937968,64.35039237,63.94431352,109.91353457
179.73370887,128.40149278,-53.72722557,-69.56245093,-167.98515502,-145.88036971
-129.74704399,5.32649498,5.25463081,-2.49323080,0.36641605,-0.42939199,2.60861631

>  <Name>
1byj cryst

>  <RI>
0

>  <Rbt.Current_Directory>
/home/itssahil/PROJECTS/Mol_Feturizer/New_Systems/rnas/1byj

>  <Rbt.Executable>
rbdock ($Id: //depot/dev/client3/rdock/2013.1/src/exe/rbdock.cxx#4 $)

>  <Rbt.Library>
libRbt.so (2013.1, Build901 2013/11/27)

>  <Rbt.Parameter_File>
/export/apps/rDock/src/rDock_2013.1_src/data/scripts/dock_solv.prm

>  <Rbt.Receptor>
prm/pocket_docking_4.prm

>  <SCORE>
-57.6566

>  <SCORE.INTER>
-55.7683

>  <SCORE.INTER.CONST>
1

>  <SCORE.INTER.POLAR>
-7.99936

>  <SCORE.INTER.ROT>
6

>  <SCORE.INTER.SOLV>
29.3262

>  <SCORE.INTER.VDW>
-27.8897

>  <SCORE.INTER.norm>
-1.79898

>  <SCORE.INTRA>
-1.88828

>  <SCORE.INTRA.DIHEDRAL>
8.94069

>  <SCORE.INTRA.DIHEDRAL.0>
18.4149

>  <SCORE.INTRA.POLAR>
-1.6093

>  <SCORE.INTRA.POLAR.0>
0

>  <SCORE.INTRA.REPUL>
-0.092687

>  <SCORE.INTRA.REPUL.0>
0.092687

>  <SCORE.INTRA.SOLV>
-1.8258

>  <SCORE.INTRA.SOLV.lig_0>
-120.37

>  <SCORE.INTRA.VDW>
0.489313

>  <SCORE.INTRA.VDW.0>
-1.75542

>  <SCORE.INTRA.norm>
-0.0609123

>  <SCORE.RESTR>
0

>  <SCORE.RESTR.CAVITY>
0

>  <SCORE.RESTR.norm>
0

>  <SCORE.SYSTEM>
0

>  <SCORE.SYSTEM.CONST>
0

>  <SCORE.SYSTEM.DIHEDRAL>
0

>  <SCORE.SYSTEM.SOLV>
0

>  <SCORE.SYSTEM.norm>
0

>  <SCORE.heavy>
31

>  <SCORE.norm>
-1.85989

>  <RMSD>
1.792

$$$$
1byj cryst
 OpenBabel11021811383D
libRbt.so/2013.1/901 2013/11/27
 31 33  0  0  0  0  0  0  0  0999 V2000
    9.7253    1.6769   -3.0453 C   0  0  1  0  0  0  0  0  0  0  0  0
    8.2797    1.8412   -3.2044 O   0  0  0  0  0  0  0  0  0  0  0  0
    7.5370    2.5460   -2.1651 C   0  0  2  0  0  0  0  0  0  0  0  0
    7.8853    3.9652   -2.1324 O   0  0  0  0  0  0  0  0  0  0  0  0
    7.8121    1.8705   -0.7872 C   0  0  2  0  0  0  0  0  0  0  0  0
    7.0995    2.5184    0.3315 N   0  3  0  0  0  0  0  0  0  0  0  0
    9.3367    1.8337   -0.5077 C   0  0  0  0  0  0  0  0  0  0  0  0
   10.0884    1.1197   -1.6412 C   0  0  0  0  0  0  0  0  0  0  0  0
   10.2520    0.7148   -4.1247 C   0  0  0  0  0  0  0  0  0  0  0  0
   10.1487    1.2422   -5.4917 N   0  3  0  0  0  0  0  0  0  0  0  0
    7.9962    6.2222   -3.1143 C   0  0  1  0  0  0  0  0  0  0  0  0
    7.2536    7.2820   -3.9639 C   0  0  0  0  0  0  0  0  0  0  0  0
    5.8628    7.5944   -3.3490 C   0  0  1  0  0  0  0  0  0  0  0  0
    5.1994    8.6608   -4.1233 N   0  3  0  0  0  0  0  0  0  0  0  0
    4.9998    6.3011   -3.2839 C   0  0  1  0  0  0  0  0  0  0  0  0
    5.7332    5.1621   -2.5323 C   0  0  1  0  0  0  0  0  0  0  0  0
    4.9355    3.9972   -2.6829 O   0  0  0  0  0  0  0  0  0  0  0  0
    7.1897    4.8848   -3.0314 C   0  0  2  0  0  0  0  0  0  0  0  0
    9.3538    6.0085   -3.6461 N   0  3  0  0  0  0  0  0  0  0  0  0
    2.0323    4.0800   -2.0763 C   0  0  0  0  0  0  0  0  0  0  0  0
    0.7156    4.6131   -1.4602 C   0  0  2  0  0  0  0  0  0  0  0  0
   -0.3385    4.2490   -2.3505 O   0  0  0  0  0  0  0  0  0  0  0  0
    0.8050    6.1781   -1.3054 C   0  0  1  0  0  0  0  0  0  0  0  0
    1.3053    6.8918   -2.6070 C   0  0  2  0  0  0  0  0  0  0  0  0
    2.5262    6.1971   -3.2618 C   0  0  1  0  0  0  0  0  0  0  0  0
    3.7539    6.5518   -2.5729 O   0  0  0  0  0  0  0  0  0  0  0  0
    2.3353    4.7555   -3.3261 O   0  0  0  0  0  0  0  0  0  0  0  0
    1.6305    8.2574   -2.3607 O   0  0  0  0  0  0  0  0  0  0  0  0
   -0.5235    6.7213   -0.8829 N   0  3  0  0  0  0  0  0  0  0  0  0
   -1.6726    6.4484   -1.7700 C   0  0  0  0  0  0  0  0  0  0  0  0
    0.4620    3.8772   -0.1215 C   0  0  0  0  0  0  0  0  0  0  0  0
  1  8  1  0  0  0  0
  1  9  1  6  0  0  0
  1  2  1  0  0  0  0
  2  3  1  0  0  0  0
  3  5  1  0  0  0  0
  3  4  1  1  0  0  0
  5  7  1  0  0  0  0
  5  6  1  1  0  0  0
  7  8  1  0  0  0  0
  9 10  1  0  0  0  0
 11 12  1  0  0  0  0
 11 18  1  0  0  0  0
 11 19  1  6  0  0  0
 12 13  1  0  0  0  0
 13 15  1  0  0  0  0
 13 14  1  6  0  0  0
 15 16  1  0  0  0  0
 15 26  1  1  0  0  0
 16 18  1  0  0  0  0
 16 17  1  6  0  0  0
 18  4  1  1  0  0  0
 20 21  1  0  0  0  0
 20 27  1  0  0  0  0
 21 31  1  1  0  0  0
 21 23  1  0  0  0  0
 21 22  1  0  0  0  0
 23 24  1  0  0  0  0
 23 29  1  6  0  0  0
 24 25  1  0  0  0  0
 24 28  1  1  0  0  0
 25 27  1  0  0  0  0
 25 26  1  1  0  0  0
 29 30  1  0  0  0  0
M  CHG  5   6   1  10   1  14   1  19   1  29   1
M  END
>  <CHROM.1>
66.41849803,85.22365733,-163.77195369,-53.46814474,-167.17636800,-153.97491582
-166.73666687,126.21320769,66.01899128,60.60674744,62.74680318,69.43910287
-162.79599511,5.13258170,4.66627586,-2.48563622,0.33394794,-0.26161890,2.74331064

>  <Name>
1byj cryst

>  <RI>
0

>  <Rbt.Current_Directory>
/home/itssahil/PROJECTS/Mol_Feturizer/New_Systems/rnas/1byj

>  <Rbt.Executable>
rbdock ($Id: //depot/dev/client3/rdock/2013.1/src/exe/rbdock.cxx#4 $)

>  <Rbt.Library>
libRbt.so (2013.1, Build901 2013/11/27)

>  <Rbt.Parameter_File>
/export/apps/rDock/src/rDock_2013.1_src/data/scripts/dock_solv.prm

>  <Rbt.Receptor>
prm/pocket_docking_2.prm

>  <SCORE>
-49.5501

>  <SCORE.INTER>
-48.9467

>  <SCORE.INTER.CONST>
1

>  <SCORE.INTER.POLAR>
-6.63822

>  <SCORE.INTER.ROT>
6

>  <SCORE.INTER.SOLV>
26.5291

>  <SCORE.INTER.VDW>
-26.9468

>  <SCORE.INTER.norm>
-1.57893

>  <SCORE.INTRA>
-2.41124

>  <SCORE.INTRA.DIHEDRAL>
-2.66285

>  <SCORE.INTRA.DIHEDRAL.0>
18.4149

>  <SCORE.INTRA.POLAR>
-0.0600305

>  <SCORE.INTRA.POLAR.0>
0

>  <SCORE.INTRA.REPUL>
-0.092687

>  <SCORE.INTRA.REPUL.0>
0.092687

>  <SCORE.INTRA.SOLV>
-4.29643

>  <SCORE.INTRA.SOLV.lig_0>
-120.37

>  <SCORE.INTRA.VDW>
1.73594

>  <SCORE.INTRA.VDW.0>
-1.75542

>  <SCORE.INTRA.norm>
-0.0777821

>  <SCORE.RESTR>
1.80779

>  <SCORE.RESTR.CAVITY>
1.80779

>  <SCORE.RESTR.norm>
0.0583158

>  <SCORE.SYSTEM>
0

>  <SCORE.SYSTEM.CONST>
0

>  <SCORE.SYSTEM.DIHEDRAL>
0

>  <SCORE.SYSTEM.SOLV>
0

>  <SCORE.SYSTEM.norm>
0

>  <SCORE.heavy>
31

>  <SCORE.norm>
-1.59839

>  <RMSD>
1.835

$$$$
1byj cryst
 OpenBabel11021811383D
libRbt.so/2013.1/901 2013/11/27
 31 33  0  0  0  0  0  0  0  0999 V2000
   10.0123    2.1488   -3.2560 C   0  0  1  0  0  0  0  0  0  0  0  0
    8.5660    2.2212   -3.4683 O   0  0  0  0  0  0  0  0  0  0  0  0
    7.7384    2.8454   -2.4417 C   0  0  2  0  0  0  0  0  0  0  0  0
    7.9887    4.2832   -2.3586 O   0  0  0  0  0  0  0  0  0  0  0  0
    8.0057    2.1509   -1.0718 C   0  0  2  0  0  0  0  0  0  0  0  0
    7.2090    2.7181    0.0339 N   0  3  0  0  0  0  0  0  0  0  0  0
    9.5176    2.2074   -0.7327 C   0  0  0  0  0  0  0  0  0  0  0  0
   10.3583    1.5774   -1.8533 C   0  0  0  0  0  0  0  0  0  0  0  0
   10.6434    1.2548   -4.3379 C   0  0  0  0  0  0  0  0  0  0  0  0
    9.7120    0.8672   -5.4054 N   0  3  0  0  0  0  0  0  0  0  0  0
    8.2367    6.4109   -3.5758 C   0  0  1  0  0  0  0  0  0  0  0  0
    7.5368    7.4493   -4.4860 C   0  0  0  0  0  0  0  0  0  0  0  0
    6.2259    7.9548   -3.8259 C   0  0  1  0  0  0  0  0  0  0  0  0
    5.6106    8.9994   -4.6667 N   0  3  0  0  0  0  0  0  0  0  0  0
    5.2553    6.7646   -3.5750 C   0  0  1  0  0  0  0  0  0  0  0  0
    5.9320    5.6390   -2.7533 C   0  0  1  0  0  0  0  0  0  0  0  0
    5.0231    4.5483   -2.7339 O   0  0  0  0  0  0  0  0  0  0  0  0
    7.3194    5.1732   -3.3061 C   0  0  2  0  0  0  0  0  0  0  0  0
    9.5293    6.0145   -4.1617 N   0  3  0  0  0  0  0  0  0  0  0  0
    1.4652    5.7694   -2.2091 C   0  0  0  0  0  0  0  0  0  0  0  0
    0.4900    6.8775   -1.7418 C   0  0  2  0  0  0  0  0  0  0  0  0
   -0.5986    6.8909   -2.6642 O   0  0  0  0  0  0  0  0  0  0  0  0
    1.2370    8.2644   -1.7340 C   0  0  1  0  0  0  0  0  0  0  0  0
    2.0230    8.5407   -3.0606 C   0  0  2  0  0  0  0  0  0  0  0  0
    2.8433    7.3232   -3.5573 C   0  0  1  0  0  0  0  0  0  0  0  0
    4.0893    7.2043   -2.8216 O   0  0  0  0  0  0  0  0  0  0  0  0
    2.0554    6.1009   -3.4943 O   0  0  0  0  0  0  0  0  0  0  0  0
    2.8957    9.6594   -2.9260 O   0  0  0  0  0  0  0  0  0  0  0  0
    0.2597    9.3638   -1.4607 N   0  3  0  0  0  0  0  0  0  0  0  0
   -0.2300    9.4963   -0.0734 C   0  0  0  0  0  0  0  0  0  0  0  0
   -0.0835    6.4814   -0.3589 C   0  0  0  0  0  0  0  0  0  0  0  0
  1  8  1  0  0  0  0
  1  9  1  6  0  0  0
  1  2  1  0  0  0  0
  2  3  1  0  0  0  0
  3  5  1  0  0  0  0
  3  4  1  1  0  0  0
  5  7  1  0  0  0  0
  5  6  1  1  0  0  0
  7  8  1  0  0  0  0
  9 10  1  0  0  0  0
 11 12  1  0  0  0  0
 11 18  1  0  0  0  0
 11 19  1  6  0  0  0
 12 13  1  0  0  0  0
 13 15  1  0  0  0  0
 13 14  1  6  0  0  0
 15 16  1  0  0  0  0
 15 26  1  1  0  0  0
 16 18  1  0  0  0  0
 16 17  1  6  0  0  0
 18  4  1  1  0  0  0
 20 21  1  0  0  0  0
 20 27  1  0  0  0  0
 21 31  1  1  0  0  0
 21 23  1  0  0  0  0
 21 22  1  0  0  0  0
 23 24  1  0  0  0  0
 23 29  1  6  0  0  0
 24 25  1  0  0  0  0
 24 28  1  1  0  0  0
 25 27  1  0  0  0  0
 25 26  1  1  0  0  0
 29 30  1  0  0  0  0
M  CHG  5   6   1  10   1  14   1  19   1  29   1
M  END
>  <CHROM.1>
8.52405402,82.12074414,-149.31039154,174.98813459,177.36605301,-17.80110297
-144.89656316,106.16055336,57.37709200,-179.35681151,-164.64278402,-169.39464757
-143.01858876,5.35827292,5.60169253,-2.73112078,0.45357276,-0.40331772,2.64089610

>  <Name>
1byj cryst

>  <RI>
0

>  <Rbt.Current_Directory>
/home/itssahil/PROJECTS/Mol_Feturizer/New_Systems/rnas/1byj

>  <Rbt.Executable>
rbdock ($Id: //depot/dev/client3/rdock/2013.1/src/exe/rbdock.cxx#4 $)

>  <Rbt.Library>
libRbt.so (2013.1, Build901 2013/11/27)

>  <Rbt.Parameter_File>
/export/apps/rDock/src/rDock_2013.1_src/data/scripts/dock_solv.prm

>  <Rbt.Receptor>
prm/pocket_docking_8.prm

>  <SCORE>
-52.1659

>  <SCORE.INTER>
-58.0667

>  <SCORE.INTER.CONST>
1

>  <SCORE.INTER.POLAR>
-7.89596

>  <SCORE.INTER.ROT>
6

>  <SCORE.INTER.SOLV>
30.9869

>  <SCORE.INTER.VDW>
-30.3202

>  <SCORE.INTER.norm>
-1.87312

>  <SCORE.INTRA>
5.90034

>  <SCORE.INTRA.DIHEDRAL>
10.1622

>  <SCORE.INTRA.DIHEDRAL.0>
18.4149

>  <SCORE.INTRA.POLAR>
-0.000787385

>  <SCORE.INTRA.POLAR.0>
0

>  <SCORE.INTRA.REPUL>
-0.092687

>  <SCORE.INTRA.REPUL.0>
0.092687

>  <SCORE.INTRA.SOLV>
-0.121328

>  <SCORE.INTRA.SOLV.lig_0>
-120.37

>  <SCORE.INTRA.VDW>
1.34602

>  <SCORE.INTRA.VDW.0>
-1.75542

>  <SCORE.INTRA.norm>
0.190334

>  <SCORE.RESTR>
0.000441325

>  <SCORE.RESTR.CAVITY>
0.000441325

>  <SCORE.RESTR.norm>
1.42363e-05

>  <SCORE.SYSTEM>
0

>  <SCORE.SYSTEM.CONST>
0

>  <SCORE.SYSTEM.DIHEDRAL>
0

>  <SCORE.SYSTEM.SOLV>
0

>  <SCORE.SYSTEM.norm>
0

>  <SCORE.heavy>
31

>  <SCORE.norm>
-1.68277

>  <RMSD>
1.859

$$$$
1byj cryst
 OpenBabel11021811383D
libRbt.so/2013.1/901 2013/11/27
 31 33  0  0  0  0  0  0  0  0999 V2000
    9.3219    1.9027   -3.7727 C   0  0  1  0  0  0  0  0  0  0  0  0
    7.8855    2.0470   -3.5319 O   0  0  0  0  0  0  0  0  0  0  0  0
    7.4443    2.7374   -2.3247 C   0  0  2  0  0  0  0  0  0  0  0  0
    7.7704    4.1613   -2.3774 O   0  0  0  0  0  0  0  0  0  0  0  0
    8.0919    2.0609   -1.0785 C   0  0  2  0  0  0  0  0  0  0  0  0
    7.7020    2.6944    0.1965 N   0  3  0  0  0  0  0  0  0  0  0  0
    9.6355    2.0446   -1.2239 C   0  0  0  0  0  0  0  0  0  0  0  0
   10.0599    1.3455   -2.5242 C   0  0  0  0  0  0  0  0  0  0  0  0
    9.5477    0.9521   -4.9617 C   0  0  0  0  0  0  0  0  0  0  0  0
   10.9588    0.7974   -5.3385 N   0  3  0  0  0  0  0  0  0  0  0  0
    7.6944    6.3594   -3.4879 C   0  0  1  0  0  0  0  0  0  0  0  0
    6.7942    7.4004   -4.1968 C   0  0  0  0  0  0  0  0  0  0  0  0
    5.5992    7.7943   -3.2876 C   0  0  1  0  0  0  0  0  0  0  0  0
    4.7941    8.8429   -3.9426 N   0  3  0  0  0  0  0  0  0  0  0  0
    4.7474    6.5383   -2.9430 C   0  0  1  0  0  0  0  0  0  0  0  0
    5.6134    5.4135   -2.3225 C   0  0  1  0  0  0  0  0  0  0  0  0
    4.7762    4.2722   -2.2102 O   0  0  0  0  0  0  0  0  0  0  0  0
    6.9008    5.0582   -3.1371 C   0  0  2  0  0  0  0  0  0  0  0  0
    8.8795    6.0694   -4.3144 N   0  3  0  0  0  0  0  0  0  0  0  0
    1.0330    5.5116   -2.5034 C   0  0  0  0  0  0  0  0  0  0  0  0
    0.0582    6.1014   -1.4549 C   0  0  2  0  0  0  0  0  0  0  0  0
   -0.9807    6.7617   -2.1766 O   0  0  0  0  0  0  0  0  0  0  0  0
    0.8325    7.1152   -0.5308 C   0  0  1  0  0  0  0  0  0  0  0  0
    1.6918    8.1444   -1.3411 C   0  0  2  0  0  0  0  0  0  0  0  0
    2.5112    7.4981   -2.4869 C   0  0  1  0  0  0  0  0  0  0  0  0
    3.7146    6.8704   -1.9716 O   0  0  0  0  0  0  0  0  0  0  0  0
    1.6958    6.5657   -3.2515 O   0  0  0  0  0  0  0  0  0  0  0  0
    2.5795    8.8659   -0.4911 O   0  0  0  0  0  0  0  0  0  0  0  0
   -0.1344    7.8238    0.3643 N   0  3  0  0  0  0  0  0  0  0  0  0
   -1.0066    8.8391   -0.2605 C   0  0  0  0  0  0  0  0  0  0  0  0
   -0.5942    4.9341   -0.6739 C   0  0  0  0  0  0  0  0  0  0  0  0
  1  8  1  0  0  0  0
  1  9  1  6  0  0  0
  1  2  1  0  0  0  0
  2  3  1  0  0  0  0
  3  5  1  0  0  0  0
  3  4  1  6  0  0  0
  5  7  1  0  0  0  0
  5  6  1  1  0  0  0
  7  8  1  0  0  0  0
  9 10  1  0  0  0  0
 11 12  1  0  0  0  0
 11 18  1  0  0  0  0
 11 19  1  6  0  0  0
 12 13  1  0  0  0  0
 13 15  1  0  0  0  0
 13 14  1  6  0  0  0
 15 16  1  0  0  0  0
 15 26  1  1  0  0  0
 16 18  1  0  0  0  0
 16 17  1  6  0  0  0
 18  4  1  1  0  0  0
 20 21  1  0  0  0  0
 20 27  1  0  0  0  0
 21 31  1  1  0  0  0
 21 23  1  0  0  0  0
 21 22  1  0  0  0  0
 23 24  1  0  0  0  0
 23 29  1  6  0  0  0
 24 25  1  0  0  0  0
 24 28  1  1  0  0  0
 25 27  1  0  0  0  0
 25 26  1  1  0  0  0
 29 30  1  0  0  0  0
M  CHG  5   6   1  10   1  14   1  19   1  29   1
M  END
>  <CHROM.1>
176.67255019,80.42298195,-159.34339279,-57.32802586,-55.36049296,89.44186435
-174.85981131,80.90936236,-60.37687487,60.84382935,48.38675779,63.99309800
-164.19852130,5.01092739,5.28548259,-2.37078959,0.39247646,-0.41499478,2.74680330

>  <Name>
1byj cryst

>  <RI>
0

>  <Rbt.Current_Directory>
/home/itssahil/PROJECTS/Mol_Feturizer/New_Systems/rnas/1byj

>  <Rbt.Executable>
rbdock ($Id: //depot/dev/client3/rdock/2013.1/src/exe/rbdock.cxx#4 $)

>  <Rbt.Library>
libRbt.so (2013.1, Build901 2013/11/27)

>  <Rbt.Parameter_File>
/export/apps/rDock/src/rDock_2013.1_src/data/scripts/dock_solv.prm

>  <Rbt.Receptor>
prm/pocket_docking_3.prm

>  <SCORE>
-53.9813

>  <SCORE.INTER>
-49.5476

>  <SCORE.INTER.CONST>
1

>  <SCORE.INTER.POLAR>
-6.38625

>  <SCORE.INTER.ROT>
6

>  <SCORE.INTER.SOLV>
26.0824

>  <SCORE.INTER.VDW>
-28.0383

>  <SCORE.INTER.norm>
-1.59831

>  <SCORE.INTRA>
-5.49451

>  <SCORE.INTRA.DIHEDRAL>
-8.75997

>  <SCORE.INTRA.DIHEDRAL.0>
18.4149

>  <SCORE.INTRA.POLAR>
-0.0279239

>  <SCORE.INTRA.POLAR.0>
0

>  <SCORE.INTRA.REPUL>
-0.092687

>  <SCORE.INTRA.REPUL.0>
0.092687

>  <SCORE.INTRA.SOLV>
-3.43021

>  <SCORE.INTRA.SOLV.lig_0>
-120.37

>  <SCORE.INTRA.VDW>
1.15896

>  <SCORE.INTRA.VDW.0>
-1.75542

>  <SCORE.INTRA.norm>
-0.177242

>  <SCORE.RESTR>
1.06084

>  <SCORE.RESTR.CAVITY>
1.06084

>  <SCORE.RESTR.norm>
0.0342205

>  <SCORE.SYSTEM>
0

>  <SCORE.SYSTEM.CONST>
0

>  <SCORE.SYSTEM.DIHEDRAL>
0

>  <SCORE.SYSTEM.SOLV>
0

>  <SCORE.SYSTEM.norm>
0

>  <SCORE.heavy>
31

>  <SCORE.norm>
-1.74133

>  <RMSD>
1.870

$$$$
1byj cryst
 OpenBabel11021811383D
libRbt.so/2013.1/901 2013/11/27
 31 33  0  0  0  0  0  0  0  0999 V2000
   10.1525    2.5029   -2.8848 C   0  0  1  0  0  0  0  0  0  0  0  0
    8.8796    2.5644   -3.6045 O   0  0  0  0  0  0  0  0  0  0  0  0
    7.7261    3.1575   -2.9366 C   0  0  2  0  0  0  0  0  0  0  0  0
    7.9040    4.5958   -2.7454 O   0  0  0  0  0  0  0  0  0  0  0  0
    7.4927    2.4367   -1.5741 C   0  0  2  0  0  0  0  0  0  0  0  0
    6.3404    2.9715   -0.8223 N   0  3  0  0  0  0  0  0  0  0  0  0
    8.7787    2.5021   -0.7105 C   0  0  0  0  0  0  0  0  0  0  0  0
    9.9785    1.9052   -1.4613 C   0  0  0  0  0  0  0  0  0  0  0  0
   11.1476    1.6391   -3.6796 C   0  0  0  0  0  0  0  0  0  0  0  0
   10.6502    0.2920   -3.9880 N   0  3  0  0  0  0  0  0  0  0  0  0
    7.6796    6.9510   -3.4330 C   0  0  1  0  0  0  0  0  0  0  0  0
    6.7674    8.0001   -4.1141 C   0  0  0  0  0  0  0  0  0  0  0  0
    5.3809    8.0488   -3.4176 C   0  0  1  0  0  0  0  0  0  0  0  0
    4.5501    9.1056   -4.0258 N   0  3  0  0  0  0  0  0  0  0  0  0
    4.6925    6.6551   -3.4896 C   0  0  1  0  0  0  0  0  0  0  0  0
    5.6007    5.5390   -2.9155 C   0  0  1  0  0  0  0  0  0  0  0  0
    4.9499    4.3066   -3.1872 O   0  0  0  0  0  0  0  0  0  0  0  0
    7.0536    5.5192   -3.4951 C   0  0  2  0  0  0  0  0  0  0  0  0
    9.0249    6.9848   -4.0334 N   0  3  0  0  0  0  0  0  0  0  0  0
    2.0009    4.0433   -2.0883 C   0  0  0  0  0  0  0  0  0  0  0  0
    0.6403    4.4687   -1.4838 C   0  0  2  0  0  0  0  0  0  0  0  0
   -0.3763    3.9609   -2.3469 O   0  0  0  0  0  0  0  0  0  0  0  0
    0.5724    6.0403   -1.3994 C   0  0  1  0  0  0  0  0  0  0  0  0
    0.9916    6.7411   -2.7362 C   0  0  2  0  0  0  0  0  0  0  0  0
    2.2729    6.1437   -3.3712 C   0  0  1  0  0  0  0  0  0  0  0  0
    3.4621    6.6505   -2.7106 O   0  0  0  0  0  0  0  0  0  0  0  0
    2.2278    4.6887   -3.3697 O   0  0  0  0  0  0  0  0  0  0  0  0
    1.1789    8.1421   -2.5539 O   0  0  0  0  0  0  0  0  0  0  0  0
   -0.8019    6.4659   -0.9886 N   0  3  0  0  0  0  0  0  0  0  0  0
   -1.9191    6.0644   -1.8676 C   0  0  0  0  0  0  0  0  0  0  0  0
    0.4690    3.7723   -0.1114 C   0  0  0  0  0  0  0  0  0  0  0  0
  1  8  1  0  0  0  0
  1  9  1  6  0  0  0
  1  2  1  0  0  0  0
  2  3  1  0  0  0  0
  3  5  1  0  0  0  0
  3  4  1  1  0  0  0
  5  7  1  0  0  0  0
  5  6  1  1  0  0  0
  7  8  1  0  0  0  0
  9 10  1  0  0  0  0
 11 12  1  0  0  0  0
 11 18  1  0  0  0  0
 11 19  1  6  0  0  0
 12 13  1  0  0  0  0
 13 15  1  0  0  0  0
 13 14  1  6  0  0  0
 15 16  1  0  0  0  0
 15 26  1  1  0  0  0
 16 18  1  0  0  0  0
 16 17  1  6  0  0  0
 18  4  1  1  0  0  0
 20 21  1  0  0  0  0
 20 27  1  0  0  0  0
 21 31  1  1  0  0  0
 21 23  1  0  0  0  0
 21 22  1  0  0  0  0
 23 24  1  0  0  0  0
 23 29  1  6  0  0  0
 24 25  1  0  0  0  0
 24 28  1  1  0  0  0
 25 27  1  0  0  0  0
 25 26  1  1  0  0  0
 29 30  1  0  0  0  0
M  CHG  5   6   1  10   1  14   1  19   1  29   1
M  END
>  <CHROM.1>
-55.11500607,112.04188236,-164.46280010,156.27405049,66.37294087,62.22880579
-172.22951386,130.04602603,66.62723374,55.81611653,61.44395377,70.35827445
-154.98225680,4.99245354,4.92998940,-2.64037415,0.28917289,-0.21005337,2.80497340

>  <Name>
1byj cryst

>  <RI>
0

>  <Rbt.Current_Directory>
/home/itssahil/PROJECTS/Mol_Feturizer/New_Systems/rnas/1byj

>  <Rbt.Executable>
rbdock ($Id: //depot/dev/client3/rdock/2013.1/src/exe/rbdock.cxx#4 $)

>  <Rbt.Library>
libRbt.so (2013.1, Build901 2013/11/27)

>  <Rbt.Parameter_File>
/export/apps/rDock/src/rDock_2013.1_src/data/scripts/dock_solv.prm

>  <Rbt.Receptor>
prm/pocket_docking_3.prm

>  <SCORE>
-41.8734

>  <SCORE.INTER>
-38.603

>  <SCORE.INTER.CONST>
1

>  <SCORE.INTER.POLAR>
-4.58331

>  <SCORE.INTER.ROT>
6

>  <SCORE.INTER.SOLV>
27.0182

>  <SCORE.INTER.VDW>
-27.0637

>  <SCORE.INTER.norm>
-1.24526

>  <SCORE.INTRA>
-3.2749

>  <SCORE.INTRA.DIHEDRAL>
1.63625

>  <SCORE.INTRA.DIHEDRAL.0>
18.4149

>  <SCORE.INTRA.POLAR>
-1.21653

>  <SCORE.INTRA.POLAR.0>
0

>  <SCORE.INTRA.REPUL>
-0.092687

>  <SCORE.INTRA.REPUL.0>
0.092687

>  <SCORE.INTRA.SOLV>
-0.609051

>  <SCORE.INTRA.SOLV.lig_0>
-120.37

>  <SCORE.INTRA.VDW>
0.811139

>  <SCORE.INTRA.VDW.0>
-1.75542

>  <SCORE.INTRA.norm>
-0.105642

>  <SCORE.RESTR>
0.0045226

>  <SCORE.RESTR.CAVITY>
0.0045226

>  <SCORE.RESTR.norm>
0.00014589

>  <SCORE.SYSTEM>
0

>  <SCORE.SYSTEM.CONST>
0

>  <SCORE.SYSTEM.DIHEDRAL>
0

>  <SCORE.SYSTEM.SOLV>
0

>  <SCORE.SYSTEM.norm>
0

>  <SCORE.heavy>
31

>  <SCORE.norm>
-1.35075

>  <RMSD>
1.878

$$$$
1byj cryst
 OpenBabel11021811383D
libRbt.so/2013.1/901 2013/11/27
 31 33  0  0  0  0  0  0  0  0999 V2000
    9.3242    2.1481   -4.0774 C   0  0  1  0  0  0  0  0  0  0  0  0
    7.8859    2.3674   -3.9183 O   0  0  0  0  0  0  0  0  0  0  0  0
    7.4172    3.1240   -2.7622 C   0  0  2  0  0  0  0  0  0  0  0  0
    7.8133    4.5283   -2.8497 O   0  0  0  0  0  0  0  0  0  0  0  0
    7.9673    2.4677   -1.4595 C   0  0  2  0  0  0  0  0  0  0  0  0
    7.5436    3.1679   -0.2310 N   0  3  0  0  0  0  0  0  0  0  0  0
    9.5138    2.3751   -1.5225 C   0  0  0  0  0  0  0  0  0  0  0  0
    9.9700    1.6070   -2.7720 C   0  0  0  0  0  0  0  0  0  0  0  0
    9.5647    1.1424   -5.2171 C   0  0  0  0  0  0  0  0  0  0  0  0
   10.9821    0.8344   -5.4479 N   0  3  0  0  0  0  0  0  0  0  0  0
    7.5378    6.9076   -3.4274 C   0  0  1  0  0  0  0  0  0  0  0  0
    6.5930    7.9714   -4.0375 C   0  0  0  0  0  0  0  0  0  0  0  0
    5.2253    7.9690   -3.3031 C   0  0  1  0  0  0  0  0  0  0  0  0
    4.3638    9.0385   -3.8423 N   0  3  0  0  0  0  0  0  0  0  0  0
    4.5546    6.5695   -3.4179 C   0  0  1  0  0  0  0  0  0  0  0  0
    5.4933    5.4433   -2.9175 C   0  0  1  0  0  0  0  0  0  0  0  0
    4.8526    4.2142   -3.2256 O   0  0  0  0  0  0  0  0  0  0  0  0
    6.9302    5.4705   -3.5356 C   0  0  2  0  0  0  0  0  0  0  0  0
    8.8657    6.9875   -4.0611 N   0  3  0  0  0  0  0  0  0  0  0  0
    0.9997    4.5749   -2.3621 C   0  0  0  0  0  0  0  0  0  0  0  0
   -0.1296    5.3815   -1.6753 C   0  0  2  0  0  0  0  0  0  0  0  0
   -1.2267    5.4217   -2.5868 O   0  0  0  0  0  0  0  0  0  0  0  0
    0.3859    6.8344   -1.3519 C   0  0  1  0  0  0  0  0  0  0  0  0
    1.0876    7.5183   -2.5742 C   0  0  2  0  0  0  0  0  0  0  0  0
    2.0808    6.5880   -3.3158 C   0  0  1  0  0  0  0  0  0  0  0  0
    3.3459    6.5126   -2.6076 O   0  0  0  0  0  0  0  0  0  0  0  0
    1.5003    5.2712   -3.5345 O   0  0  0  0  0  0  0  0  0  0  0  0
    1.7729    8.7056   -2.1845 O   0  0  0  0  0  0  0  0  0  0  0  0
   -0.7483    7.6749   -0.8563 N   0  3  0  0  0  0  0  0  0  0  0  0
   -0.3987    8.8934   -0.0980 C   0  0  0  0  0  0  0  0  0  0  0  0
   -0.6011    4.6042   -0.4217 C   0  0  0  0  0  0  0  0  0  0  0  0
  1  8  1  0  0  0  0
  1  9  1  6  0  0  0
  1  2  1  0  0  0  0
  2  3  1  0  0  0  0
  3  5  1  0  0  0  0
  3  4  1  6  0  0  0
  5  7  1  0  0  0  0
  5  6  1  1  0  0  0
  7  8  1  0  0  0  0
  9 10  1  0  0  0  0
 11 12  1  0  0  0  0
 11 18  1  0  0  0  0
 11 19  1  6  0  0  0
 12 13  1  0  0  0  0
 13 15  1  0  0  0  0
 13 14  1  6  0  0  0
 15 16  1  0  0  0  0
 15 26  1  1  0  0  0
 16 18  1  0  0  0  0
 16 17  1  6  0  0  0
 18  4  1  1  0  0  0
 20 21  1  0  0  0  0
 20 27  1  0  0  0  0
 21 31  1  1  0  0  0
 21 23  1  0  0  0  0
 21 22  1  0  0  0  0
 23 24  1  0  0  0  0
 23 29  1  6  0  0  0
 24 25  1  0  0  0  0
 24 28  1  1  0  0  0
 25 27  1  0  0  0  0
 25 26  1  1  0  0  0
 29 30  1  0  0  0  0
M  CHG  5   6   1  10   1  14   1  19   1  29   1
M  END
>  <CHROM.1>
-179.11562904,88.64287441,177.07880016,-51.98185632,-54.48492068,-60.67217192
71.30923478,104.30868762,76.66572019,-177.06246337,-78.47309261,-74.37464580
-137.41902119,4.84067535,5.25049603,-2.76713871,0.39965338,-0.27801052,2.95037925

>  <Name>
1byj cryst

>  <RI>
0

>  <Rbt.Current_Directory>
/home/itssahil/PROJECTS/Mol_Feturizer/New_Systems/rnas/1byj

>  <Rbt.Executable>
rbdock ($Id: //depot/dev/client3/rdock/2013.1/src/exe/rbdock.cxx#4 $)

>  <Rbt.Library>
libRbt.so (2013.1, Build901 2013/11/27)

>  <Rbt.Parameter_File>
/export/apps/rDock/src/rDock_2013.1_src/data/scripts/dock_solv.prm

>  <Rbt.Receptor>
prm/pocket_docking_4.prm

>  <SCORE>
-66.2536

>  <SCORE.INTER>
-61.1998

>  <SCORE.INTER.CONST>
1

>  <SCORE.INTER.POLAR>
-8.64326

>  <SCORE.INTER.ROT>
6

>  <SCORE.INTER.SOLV>
30.4223

>  <SCORE.INTER.VDW>
-29.7298

>  <SCORE.INTER.norm>
-1.97419

>  <SCORE.INTRA>
-5.05377

>  <SCORE.INTRA.DIHEDRAL>
0.778706

>  <SCORE.INTRA.DIHEDRAL.0>
18.4149

>  <SCORE.INTRA.POLAR>
-1.16667

>  <SCORE.INTRA.POLAR.0>
0

>  <SCORE.INTRA.REPUL>
-0.092687

>  <SCORE.INTRA.REPUL.0>
0.092687

>  <SCORE.INTRA.SOLV>
-1.06246

>  <SCORE.INTRA.SOLV.lig_0>
-120.37

>  <SCORE.INTRA.VDW>
-0.481792

>  <SCORE.INTRA.VDW.0>
-1.75542

>  <SCORE.INTRA.norm>
-0.163025

>  <SCORE.RESTR>
0

>  <SCORE.RESTR.CAVITY>
0

>  <SCORE.RESTR.norm>
0

>  <SCORE.SYSTEM>
0

>  <SCORE.SYSTEM.CONST>
0

>  <SCORE.SYSTEM.DIHEDRAL>
0

>  <SCORE.SYSTEM.SOLV>
0

>  <SCORE.SYSTEM.norm>
0

>  <SCORE.heavy>
31

>  <SCORE.norm>
-2.13721

>  <RMSD>
1.905

$$$$
1byj cryst
 OpenBabel11021811383D
libRbt.so/2013.1/901 2013/11/27
 31 33  0  0  0  0  0  0  0  0999 V2000
    9.5759    1.5399   -3.2950 C   0  0  1  0  0  0  0  0  0  0  0  0
    8.1500    1.7172   -3.5733 O   0  0  0  0  0  0  0  0  0  0  0  0
    7.3302    2.4294   -2.5990 C   0  0  2  0  0  0  0  0  0  0  0  0
    7.6875    3.8455   -2.5374 O   0  0  0  0  0  0  0  0  0  0  0  0
    7.4840    1.7524   -1.2031 C   0  0  2  0  0  0  0  0  0  0  0  0
    6.6871    2.4075   -0.1473 N   0  3  0  0  0  0  0  0  0  0  0  0
    8.9799    1.7019   -0.7982 C   0  0  0  0  0  0  0  0  0  0  0  0
    9.8163    0.9804   -1.8656 C   0  0  0  0  0  0  0  0  0  0  0  0
   10.1815    0.5724   -4.3271 C   0  0  0  0  0  0  0  0  0  0  0  0
   10.1735    1.0895   -5.7018 N   0  3  0  0  0  0  0  0  0  0  0  0
    7.9678    5.9884   -3.7204 C   0  0  1  0  0  0  0  0  0  0  0  0
    7.2702    7.0760   -4.5731 C   0  0  0  0  0  0  0  0  0  0  0  0
    6.0158    7.6208   -3.8386 C   0  0  1  0  0  0  0  0  0  0  0  0
    5.4061    8.7095   -4.6259 N   0  3  0  0  0  0  0  0  0  0  0  0
    5.0080    6.4670   -3.5652 C   0  0  1  0  0  0  0  0  0  0  0  0
    5.6745    5.2953   -2.8017 C   0  0  1  0  0  0  0  0  0  0  0  0
    4.7214    4.2437   -2.7604 O   0  0  0  0  0  0  0  0  0  0  0  0
    7.0122    4.7845   -3.4319 C   0  0  2  0  0  0  0  0  0  0  0  0
    9.2123    5.5517   -4.3777 N   0  3  0  0  0  0  0  0  0  0  0  0
    1.3382    5.9615   -1.4028 C   0  0  0  0  0  0  0  0  0  0  0  0
    0.4517    7.2210   -1.2434 C   0  0  2  0  0  0  0  0  0  0  0  0
   -0.7402    6.9893   -1.9930 O   0  0  0  0  0  0  0  0  0  0  0  0
    1.2248    8.4792   -1.7918 C   0  0  1  0  0  0  0  0  0  0  0  0
    1.8501    8.2408   -3.2082 C   0  0  2  0  0  0  0  0  0  0  0  0
    2.5768    6.8784   -3.3409 C   0  0  1  0  0  0  0  0  0  0  0  0
    3.8999    6.9379   -2.7461 O   0  0  0  0  0  0  0  0  0  0  0  0
    1.7754    5.8011   -2.7786 O   0  0  0  0  0  0  0  0  0  0  0  0
    2.7573    9.2822   -3.5595 O   0  0  0  0  0  0  0  0  0  0  0  0
    0.3126    9.6649   -1.8103 N   0  3  0  0  0  0  0  0  0  0  0  0
    0.9045   10.9605   -2.2014 C   0  0  0  0  0  0  0  0  0  0  0  0
    0.0416    7.3527    0.2440 C   0  0  0  0  0  0  0  0  0  0  0  0
  1  8  1  0  0  0  0
  1  9  1  6  0  0  0
  1  2  1  0  0  0  0
  2  3  1  0  0  0  0
  3  5  1  0  0  0  0
  3  4  1  1  0  0  0
  5  7  1  0  0  0  0
  5  6  1  1  0  0  0
  7  8  1  0  0  0  0
  9 10  1  0  0  0  0
 11 12  1  0  0  0  0
 11 18  1  0  0  0  0
 11 19  1  6  0  0  0
 12 13  1  0  0  0  0
 13 15  1  0  0  0  0
 13 14  1  6  0  0  0
 15 16  1  0  0  0  0
 15 26  1  1  0  0  0
 16 18  1  0  0  0  0
 16 17  1  6  0  0  0
 18  4  1  1  0  0  0
 20 21  1  0  0  0  0
 20 27  1  0  0  0  0
 21 31  1  1  0  0  0
 21 23  1  0  0  0  0
 21 22  1  0  0  0  0
 23 24  1  0  0  0  0
 23 29  1  6  0  0  0
 24 25  1  0  0  0  0
 24 28  1  1  0  0  0
 25 27  1  0  0  0  0
 25 26  1  1  0  0  0
 29 30  1  0  0  0  0
M  CHG  5   6   1  10   1  14   1  19   1  29   1
M  END
>  <CHROM.1>
65.32373813,89.20697450,-151.89040688,64.74901656,64.57078642,120.97944141
-49.55422690,117.83242066,64.87054628,-172.06520470,-63.44734725,45.93784544
-129.34446293,5.16720449,5.42420286,-2.78015427,0.49922445,-0.47674944,2.60899896

>  <Name>
1byj cryst

>  <RI>
0

>  <Rbt.Current_Directory>
/home/itssahil/PROJECTS/Mol_Feturizer/New_Systems/rnas/1byj

>  <Rbt.Executable>
rbdock ($Id: //depot/dev/client3/rdock/2013.1/src/exe/rbdock.cxx#4 $)

>  <Rbt.Library>
libRbt.so (2013.1, Build901 2013/11/27)

>  <Rbt.Parameter_File>
/export/apps/rDock/src/rDock_2013.1_src/data/scripts/dock_solv.prm

>  <Rbt.Receptor>
prm/pocket_docking_8.prm

>  <SCORE>
-59.0738

>  <SCORE.INTER>
-59.6387

>  <SCORE.INTER.CONST>
1

>  <SCORE.INTER.POLAR>
-8.48588

>  <SCORE.INTER.ROT>
6

>  <SCORE.INTER.SOLV>
31.2688

>  <SCORE.INTER.VDW>
-29.4958

>  <SCORE.INTER.norm>
-1.92383

>  <SCORE.INTRA>
0.564866

>  <SCORE.INTRA.DIHEDRAL>
7.94755

>  <SCORE.INTRA.DIHEDRAL.0>
18.4149

>  <SCORE.INTRA.POLAR>
-0.888354

>  <SCORE.INTRA.POLAR.0>
0

>  <SCORE.INTRA.REPUL>
-0.092687

>  <SCORE.INTRA.REPUL.0>
0.092687

>  <SCORE.INTRA.SOLV>
0.218004

>  <SCORE.INTRA.SOLV.lig_0>
-120.37

>  <SCORE.INTRA.VDW>
-0.0340762

>  <SCORE.INTRA.VDW.0>
-1.75542

>  <SCORE.INTRA.norm>
0.0182215

>  <SCORE.RESTR>
0

>  <SCORE.RESTR.CAVITY>
0

>  <SCORE.RESTR.norm>
0

>  <SCORE.SYSTEM>
0

>  <SCORE.SYSTEM.CONST>
0

>  <SCORE.SYSTEM.DIHEDRAL>
0

>  <SCORE.SYSTEM.SOLV>
0

>  <SCORE.SYSTEM.norm>
0

>  <SCORE.heavy>
31

>  <SCORE.norm>
-1.90561

>  <RMSD>
1.955

$$$$
1byj cryst
 OpenBabel11021811383D
libRbt.so/2013.1/901 2013/11/27
 31 33  0  0  0  0  0  0  0  0999 V2000
    9.4647    1.8768   -3.9464 C   0  0  1  0  0  0  0  0  0  0  0  0
    8.0306    2.1193   -3.7834 O   0  0  0  0  0  0  0  0  0  0  0  0
    7.5722    2.8342   -2.5970 C   0  0  2  0  0  0  0  0  0  0  0  0
    7.9979    4.2324   -2.6214 O   0  0  0  0  0  0  0  0  0  0  0  0
    8.1023    2.1101   -1.3222 C   0  0  2  0  0  0  0  0  0  0  0  0
    7.6874    2.7646   -0.0659 N   0  3  0  0  0  0  0  0  0  0  0  0
    9.6468    1.9878   -1.3833 C   0  0  0  0  0  0  0  0  0  0  0  0
   10.0928    1.2657   -2.6636 C   0  0  0  0  0  0  0  0  0  0  0  0
    9.6895    0.9172   -5.1282 C   0  0  0  0  0  0  0  0  0  0  0  0
   11.1005    0.7591   -5.5045 N   0  3  0  0  0  0  0  0  0  0  0  0
    8.1116    6.4985   -3.5818 C   0  0  1  0  0  0  0  0  0  0  0  0
    7.3577    7.5792   -4.3943 C   0  0  0  0  0  0  0  0  0  0  0  0
    5.9935    7.9060   -3.7296 C   0  0  1  0  0  0  0  0  0  0  0  0
    5.3214    8.9913   -4.4693 N   0  3  0  0  0  0  0  0  0  0  0  0
    5.1127    6.6256   -3.6495 C   0  0  1  0  0  0  0  0  0  0  0  0
    5.8529    5.4668   -2.9355 C   0  0  1  0  0  0  0  0  0  0  0  0
    5.0322    4.3162   -3.0719 O   0  0  0  0  0  0  0  0  0  0  0  0
    7.2872    5.1728   -3.4865 C   0  0  2  0  0  0  0  0  0  0  0  0
    9.4470    6.2699   -4.1613 N   0  3  0  0  0  0  0  0  0  0  0  0
    1.7355    4.8026   -2.3389 C   0  0  0  0  0  0  0  0  0  0  0  0
    0.5263    5.5994   -1.7906 C   0  0  2  0  0  0  0  0  0  0  0  0
   -0.5562    5.3898   -2.6962 O   0  0  0  0  0  0  0  0  0  0  0  0
    0.9002    7.1273   -1.7056 C   0  0  1  0  0  0  0  0  0  0  0  0
    1.5535    7.6690   -3.0223 C   0  0  2  0  0  0  0  0  0  0  0  0
    2.6394    6.7292   -3.6048 C   0  0  1  0  0  0  0  0  0  0  0  0
    3.8955    6.8873   -2.8942 O   0  0  0  0  0  0  0  0  0  0  0  0
    2.1866    5.3458   -3.6083 O   0  0  0  0  0  0  0  0  0  0  0  0
    2.1200    8.9625   -2.8292 O   0  0  0  0  0  0  0  0  0  0  0  0
   -0.3141    7.9262   -1.3513 N   0  3  0  0  0  0  0  0  0  0  0  0
   -0.1044    9.1387   -0.5341 C   0  0  0  0  0  0  0  0  0  0  0  0
    0.1105    4.9925   -0.4279 C   0  0  0  0  0  0  0  0  0  0  0  0
  1  8  1  0  0  0  0
  1  9  1  6  0  0  0
  1  2  1  0  0  0  0
  2  3  1  0  0  0  0
  3  5  1  0  0  0  0
  3  4  1  6  0  0  0
  5  7  1  0  0  0  0
  5  6  1  1  0  0  0
  7  8  1  0  0  0  0
  9 10  1  0  0  0  0
 11 12  1  0  0  0  0
 11 18  1  0  0  0  0
 11 19  1  6  0  0  0
 12 13  1  0  0  0  0
 13 15  1  0  0  0  0
 13 14  1  6  0  0  0
 15 16  1  0  0  0  0
 15 26  1  1  0  0  0
 16 18  1  0  0  0  0
 16 17  1  6  0  0  0
 18  4  1  1  0  0  0
 20 21  1  0  0  0  0
 20 27  1  0  0  0  0
 21 31  1  1  0  0  0
 21 23  1  0  0  0  0
 21 22  1  0  0  0  0
 23 24  1  0  0  0  0
 23 29  1  6  0  0  0
 24 25  1  0  0  0  0
 24 28  1  1  0  0  0
 25 27  1  0  0  0  0
 25 26  1  1  0  0  0
 29 30  1  0  0  0  0
M  CHG  5   6   1  10   1  14   1  19   1  29   1
M  END
>  <CHROM.1>
171.56718779,76.59622653,-167.47784737,-171.66236700,-171.47926977,-10.52292175
-36.16304778,118.26161080,-63.64503319,63.55866709,-91.55694801,-65.02441723
-150.93216283,5.26254871,5.18153017,-2.88730847,0.42844124,-0.32438237,2.80615334

>  <Name>
1byj cryst

>  <RI>
0

>  <Rbt.Current_Directory>
/home/itssahil/PROJECTS/Mol_Feturizer/New_Systems/rnas/1byj

>  <Rbt.Executable>
rbdock ($Id: //depot/dev/client3/rdock/2013.1/src/exe/rbdock.cxx#4 $)

>  <Rbt.Library>
libRbt.so (2013.1, Build901 2013/11/27)

>  <Rbt.Parameter_File>
/export/apps/rDock/src/rDock_2013.1_src/data/scripts/dock_solv.prm

>  <Rbt.Receptor>
prm/pocket_docking_8.prm

>  <SCORE>
-60.7921

>  <SCORE.INTER>
-60.3311

>  <SCORE.INTER.CONST>
1

>  <SCORE.INTER.POLAR>
-8.12068

>  <SCORE.INTER.ROT>
6

>  <SCORE.INTER.SOLV>
32.5967

>  <SCORE.INTER.VDW>
-31.6174

>  <SCORE.INTER.norm>
-1.94616

>  <SCORE.INTRA>
-0.460969

>  <SCORE.INTRA.DIHEDRAL>
1.93775

>  <SCORE.INTRA.DIHEDRAL.0>
18.4149

>  <SCORE.INTRA.POLAR>
-0.00562664

>  <SCORE.INTRA.POLAR.0>
0

>  <SCORE.INTRA.REPUL>
-0.092687

>  <SCORE.INTRA.REPUL.0>
0.092687

>  <SCORE.INTRA.SOLV>
-2.80872

>  <SCORE.INTRA.SOLV.lig_0>
-120.37

>  <SCORE.INTRA.VDW>
0.457078

>  <SCORE.INTRA.VDW.0>
-1.75542

>  <SCORE.INTRA.norm>
-0.01487

>  <SCORE.RESTR>
0

>  <SCORE.RESTR.CAVITY>
0

>  <SCORE.RESTR.norm>
0

>  <SCORE.SYSTEM>
0

>  <SCORE.SYSTEM.CONST>
0

>  <SCORE.SYSTEM.DIHEDRAL>
0

>  <SCORE.SYSTEM.SOLV>
0

>  <SCORE.SYSTEM.norm>
0

>  <SCORE.heavy>
31

>  <SCORE.norm>
-1.96103

>  <RMSD>
1.970

$$$$
1byj cryst
 OpenBabel11021811383D
libRbt.so/2013.1/901 2013/11/27
 31 33  0  0  0  0  0  0  0  0999 V2000
   10.2943    1.3833   -3.2365 C   0  0  1  0  0  0  0  0  0  0  0  0
    8.9440    1.5689   -3.7697 O   0  0  0  0  0  0  0  0  0  0  0  0
    7.9765    2.3215   -2.9783 C   0  0  2  0  0  0  0  0  0  0  0  0
    8.3420    3.7344   -2.8952 O   0  0  0  0  0  0  0  0  0  0  0  0
    7.8677    1.6873   -1.5584 C   0  0  2  0  0  0  0  0  0  0  0  0
    6.9073    2.3851   -0.6810 N   0  3  0  0  0  0  0  0  0  0  0  0
    9.2665    1.6316   -0.8919 C   0  0  0  0  0  0  0  0  0  0  0  0
   10.2667    0.8665   -1.7716 C   0  0  0  0  0  0  0  0  0  0  0  0
   11.0568    0.3763   -4.1155 C   0  0  0  0  0  0  0  0  0  0  0  0
   11.1655    0.7803   -5.5234 N   0  3  0  0  0  0  0  0  0  0  0  0
    8.2773    6.0953   -3.5968 C   0  0  1  0  0  0  0  0  0  0  0  0
    7.4262    7.2075   -4.2566 C   0  0  0  0  0  0  0  0  0  0  0  0
    6.0724    7.3685   -3.5142 C   0  0  1  0  0  0  0  0  0  0  0  0
    5.3056    8.4825   -4.1040 N   0  3  0  0  0  0  0  0  0  0  0  0
    5.2760    6.0321   -3.5501 C   0  0  1  0  0  0  0  0  0  0  0  0
    6.1142    4.8526   -2.9965 C   0  0  1  0  0  0  0  0  0  0  0  0
    5.3610    3.6727   -3.2346 O   0  0  0  0  0  0  0  0  0  0  0  0
    7.5405    4.7160   -3.6244 C   0  0  2  0  0  0  0  0  0  0  0  0
    9.5997    6.0204   -4.2424 N   0  3  0  0  0  0  0  0  0  0  0  0
    1.6484    4.3394   -2.2563 C   0  0  0  0  0  0  0  0  0  0  0  0
    0.5650    5.2676   -1.6544 C   0  0  2  0  0  0  0  0  0  0  0  0
   -0.5401    5.2582   -2.5570 O   0  0  0  0  0  0  0  0  0  0  0  0
    1.1493    6.7219   -1.4965 C   0  0  1  0  0  0  0  0  0  0  0  0
    1.8663    7.2346   -2.7914 C   0  0  2  0  0  0  0  0  0  0  0  0
    2.8076    6.1839   -3.4333 C   0  0  1  0  0  0  0  0  0  0  0  0
    4.0764    6.1283   -2.7301 O   0  0  0  0  0  0  0  0  0  0  0  0
    2.1657    4.8792   -3.5017 O   0  0  0  0  0  0  0  0  0  0  0  0
    2.6091    8.4246   -2.5396 O   0  0  0  0  0  0  0  0  0  0  0  0
    0.0602    7.6630   -1.0883 N   0  3  0  0  0  0  0  0  0  0  0  0
    0.4385    8.7827   -0.2022 C   0  0  0  0  0  0  0  0  0  0  0  0
    0.0742    4.6548   -0.3196 C   0  0  0  0  0  0  0  0  0  0  0  0
  1  8  1  0  0  0  0
  1  9  1  6  0  0  0
  1  2  1  0  0  0  0
  2  3  1  0  0  0  0
  3  5  1  0  0  0  0
  3  4  1  1  0  0  0
  5  7  1  0  0  0  0
  5  6  1  1  0  0  0
  7  8  1  0  0  0  0
  9 10  1  0  0  0  0
 11 12  1  0  0  0  0
 11 18  1  0  0  0  0
 11 19  1  6  0  0  0
 12 13  1  0  0  0  0
 13 15  1  0  0  0  0
 13 14  1  6  0  0  0
 15 16  1  0  0  0  0
 15 26  1  1  0  0  0
 16 18  1  0  0  0  0
 16 17  1  6  0  0  0
 18  4  1  1  0  0  0
 20 21  1  0  0  0  0
 20 27  1  0  0  0  0
 21 31  1  1  0  0  0
 21 23  1  0  0  0  0
 21 22  1  0  0  0  0
 23 24  1  0  0  0  0
 23 29  1  6  0  0  0
 24 25  1  0  0  0  0
 24 28  1  1  0  0  0
 25 27  1  0  0  0  0
 25 26  1  1  0  0  0
 29 30  1  0  0  0  0
M  CHG  5   6   1  10   1  14   1  19   1  29   1
M  END
>  <CHROM.1>
58.55928083,108.85157417,-169.54002369,-87.62444027,-96.20158845,-22.11458219
67.22237018,108.64525258,51.17947507,-161.62413216,-92.14762403,-65.87544328
-137.78300470,5.46186699,4.75373716,-2.76354527,0.41488234,-0.32696906,2.80537608

>  <Name>
1byj cryst

>  <RI>
0

>  <Rbt.Current_Directory>
/home/itssahil/PROJECTS/Mol_Feturizer/New_Systems/rnas/1byj

>  <Rbt.Executable>
rbdock ($Id: //depot/dev/client3/rdock/2013.1/src/exe/rbdock.cxx#4 $)

>  <Rbt.Library>
libRbt.so (2013.1, Build901 2013/11/27)

>  <Rbt.Parameter_File>
/export/apps/rDock/src/rDock_2013.1_src/data/scripts/dock_solv.prm

>  <Rbt.Receptor>
prm/pocket_docking_5.prm

>  <SCORE>
-50.881

>  <SCORE.INTER>
-50.0353

>  <SCORE.INTER.CONST>
1

>  <SCORE.INTER.POLAR>
-6.13866

>  <SCORE.INTER.ROT>
6

>  <SCORE.INTER.SOLV>
30.5289

>  <SCORE.INTER.VDW>
-30.671

>  <SCORE.INTER.norm>
-1.61404

>  <SCORE.INTRA>
-0.845652

>  <SCORE.INTRA.DIHEDRAL>
12.1385

>  <SCORE.INTRA.DIHEDRAL.0>
18.4149

>  <SCORE.INTRA.POLAR>
-1.72511

>  <SCORE.INTRA.POLAR.0>
0

>  <SCORE.INTRA.REPUL>
-0.092687

>  <SCORE.INTRA.REPUL.0>
0.092687

>  <SCORE.INTRA.SOLV>
0.693922

>  <SCORE.INTRA.SOLV.lig_0>
-120.37

>  <SCORE.INTRA.VDW>
-0.933086

>  <SCORE.INTRA.VDW.0>
-1.75542

>  <SCORE.INTRA.norm>
-0.0272791

>  <SCORE.RESTR>
0

>  <SCORE.RESTR.CAVITY>
0

>  <SCORE.RESTR.norm>
0

>  <SCORE.SYSTEM>
0

>  <SCORE.SYSTEM.CONST>
0

>  <SCORE.SYSTEM.DIHEDRAL>
0

>  <SCORE.SYSTEM.SOLV>
0

>  <SCORE.SYSTEM.norm>
0

>  <SCORE.heavy>
31

>  <SCORE.norm>
-1.64132

>  <RMSD>
2.036

$$$$
1byj cryst
 OpenBabel11021811383D
libRbt.so/2013.1/901 2013/11/27
 31 33  0  0  0  0  0  0  0  0999 V2000
    9.0416    1.9427   -3.5586 C   0  0  1  0  0  0  0  0  0  0  0  0
    7.6130    2.1334   -3.3041 O   0  0  0  0  0  0  0  0  0  0  0  0
    7.2063    2.8517   -2.1011 C   0  0  2  0  0  0  0  0  0  0  0  0
    7.5745    4.2644   -2.1754 O   0  0  0  0  0  0  0  0  0  0  0  0
    7.8473    2.1714   -0.8534 C   0  0  2  0  0  0  0  0  0  0  0  0
    7.4909    2.8322    0.4176 N   0  3  0  0  0  0  0  0  0  0  0  0
    9.3879    2.1067   -1.0153 C   0  0  0  0  0  0  0  0  0  0  0  0
    9.7764    1.3791   -2.3112 C   0  0  0  0  0  0  0  0  0  0  0  0
    9.2253    0.9712   -4.7378 C   0  0  0  0  0  0  0  0  0  0  0  0
   10.5813    0.9721   -5.3021 N   0  3  0  0  0  0  0  0  0  0  0  0
    7.4180    6.5847   -2.9889 C   0  0  1  0  0  0  0  0  0  0  0  0
    6.5465    7.6146   -3.7482 C   0  0  0  0  0  0  0  0  0  0  0  0
    5.1431    7.7264   -3.0942 C   0  0  1  0  0  0  0  0  0  0  0  0
    4.3513    8.7661   -3.7788 N   0  3  0  0  0  0  0  0  0  0  0  0
    4.4279    6.3444   -3.1139 C   0  0  1  0  0  0  0  0  0  0  0  0
    5.2968    5.2421   -2.4581 C   0  0  1  0  0  0  0  0  0  0  0  0
    4.6280    4.0102   -2.6844 O   0  0  0  0  0  0  0  0  0  0  0  0
    6.7641    5.1640   -2.9950 C   0  0  2  0  0  0  0  0  0  0  0  0
    8.7793    6.5611   -3.5523 N   0  3  0  0  0  0  0  0  0  0  0  0
    1.5712    3.8816   -2.9850 C   0  0  0  0  0  0  0  0  0  0  0  0
    0.2454    4.0369   -2.2003 C   0  0  2  0  0  0  0  0  0  0  0  0
   -0.8095    4.0417   -3.1612 O   0  0  0  0  0  0  0  0  0  0  0  0
    0.2718    5.3863   -1.3880 C   0  0  1  0  0  0  0  0  0  0  0  0
    0.7162    6.6119   -2.2565 C   0  0  2  0  0  0  0  0  0  0  0  0
    1.9523    6.3229   -3.1456 C   0  0  1  0  0  0  0  0  0  0  0  0
    3.1772    6.4041   -2.3705 O   0  0  0  0  0  0  0  0  0  0  0  0
    1.8211    5.0413   -3.8232 O   0  0  0  0  0  0  0  0  0  0  0  0
    0.9884    7.7531   -1.4472 O   0  0  0  0  0  0  0  0  0  0  0  0
   -1.0699    5.6333   -0.7738 N   0  3  0  0  0  0  0  0  0  0  0  0
   -2.1317    6.1436   -1.6648 C   0  0  0  0  0  0  0  0  0  0  0  0
    0.0491    2.7868   -1.3077 C   0  0  0  0  0  0  0  0  0  0  0  0
  1  8  1  0  0  0  0
  1  9  1  6  0  0  0
  1  2  1  0  0  0  0
  2  3  1  0  0  0  0
  3  5  1  0  0  0  0
  3  4  1  6  0  0  0
  5  7  1  0  0  0  0
  5  6  1  1  0  0  0
  7  8  1  0  0  0  0
  9 10  1  0  0  0  0
 11 12  1  0  0  0  0
 11 18  1  0  0  0  0
 11 19  1  6  0  0  0
 12 13  1  0  0  0  0
 13 15  1  0  0  0  0
 13 14  1  6  0  0  0
 15 16  1  0  0  0  0
 15 26  1  1  0  0  0
 16 18  1  0  0  0  0
 16 17  1  6  0  0  0
 18  4  1  1  0  0  0
 20 21  1  0  0  0  0
 20 27  1  0  0  0  0
 21 31  1  1  0  0  0
 21 23  1  0  0  0  0
 21 22  1  0  0  0  0
 23 24  1  0  0  0  0
 23 29  1  6  0  0  0
 24 25  1  0  0  0  0
 24 28  1  1  0  0  0
 25 27  1  0  0  0  0
 25 26  1  1  0  0  0
 29 30  1  0  0  0  0
M  CHG  5   6   1  10   1  14   1  19   1  29   1
M  END
>  <CHROM.1>
165.08317324,77.20069874,-176.06293699,-67.04378880,-54.42797813,62.58679490
-54.05138194,109.99963080,-69.55214624,167.40599289,43.52112385,73.03681529
-171.47336908,4.69198245,4.64416710,-2.57731928,0.31272331,-0.16202838,2.95998982

>  <Name>
1byj cryst

>  <RI>
0

>  <Rbt.Current_Directory>
/home/itssahil/PROJECTS/Mol_Feturizer/New_Systems/rnas/1byj

>  <Rbt.Executable>
rbdock ($Id: //depot/dev/client3/rdock/2013.1/src/exe/rbdock.cxx#4 $)

>  <Rbt.Library>
libRbt.so (2013.1, Build901 2013/11/27)

>  <Rbt.Parameter_File>
/export/apps/rDock/src/rDock_2013.1_src/data/scripts/dock_solv.prm

>  <Rbt.Receptor>
prm/pocket_docking_2.prm

>  <SCORE>
-48.0199

>  <SCORE.INTER>
-47.1678

>  <SCORE.INTER.CONST>
1

>  <SCORE.INTER.POLAR>
-6.45261

>  <SCORE.INTER.ROT>
6

>  <SCORE.INTER.SOLV>
26.4112

>  <SCORE.INTER.VDW>
-26.3402

>  <SCORE.INTER.norm>
-1.52154

>  <SCORE.INTRA>
-4.51216

>  <SCORE.INTRA.DIHEDRAL>
-5.87496

>  <SCORE.INTRA.DIHEDRAL.0>
18.4149

>  <SCORE.INTRA.POLAR>
-0.0751786

>  <SCORE.INTRA.POLAR.0>
0

>  <SCORE.INTRA.REPUL>
-0.092687

>  <SCORE.INTRA.REPUL.0>
0.092687

>  <SCORE.INTRA.SOLV>
-4.89283

>  <SCORE.INTRA.SOLV.lig_0>
-120.37

>  <SCORE.INTRA.VDW>
1.59078

>  <SCORE.INTRA.VDW.0>
-1.75542

>  <SCORE.INTRA.norm>
-0.145554

>  <SCORE.RESTR>
3.66008

>  <SCORE.RESTR.CAVITY>
3.66008

>  <SCORE.RESTR.norm>
0.118067

>  <SCORE.SYSTEM>
0

>  <SCORE.SYSTEM.CONST>
0

>  <SCORE.SYSTEM.DIHEDRAL>
0

>  <SCORE.SYSTEM.SOLV>
0

>  <SCORE.SYSTEM.norm>
0

>  <SCORE.heavy>
31

>  <SCORE.norm>
-1.54903

>  <RMSD>
2.048

$$$$
1byj cryst
 OpenBabel11021811383D
libRbt.so/2013.1/901 2013/11/27
 31 33  0  0  0  0  0  0  0  0999 V2000
    9.0207    1.5709   -3.7746 C   0  0  1  0  0  0  0  0  0  0  0  0
    7.6092    1.3074   -3.4910 O   0  0  0  0  0  0  0  0  0  0  0  0
    7.0924    1.6187   -2.1627 C   0  0  2  0  0  0  0  0  0  0  0  0
    7.0656    3.0612   -1.9274 O   0  0  0  0  0  0  0  0  0  0  0  0
    7.9592    0.8928   -1.0894 C   0  0  2  0  0  0  0  0  0  0  0  0
    7.5098    1.1497    0.2931 N   0  3  0  0  0  0  0  0  0  0  0  0
    9.4499    1.2857   -1.2547 C   0  0  0  0  0  0  0  0  0  0  0  0
    9.9467    0.9801   -2.6758 C   0  0  0  0  0  0  0  0  0  0  0  0
    9.3919    0.9559   -5.1355 C   0  0  0  0  0  0  0  0  0  0  0  0
   10.8387    0.8759   -5.3761 N   0  3  0  0  0  0  0  0  0  0  0  0
    7.2508    5.1725   -3.1837 C   0  0  1  0  0  0  0  0  0  0  0  0
    6.5163    6.1797   -4.1018 C   0  0  0  0  0  0  0  0  0  0  0  0
    5.2036    6.6680   -3.4325 C   0  0  1  0  0  0  0  0  0  0  0  0
    4.5544    7.6844   -4.2823 N   0  3  0  0  0  0  0  0  0  0  0  0
    4.2626    5.4616   -3.1482 C   0  0  1  0  0  0  0  0  0  0  0  0
    4.9747    4.3652   -2.3168 C   0  0  1  0  0  0  0  0  0  0  0  0
    4.0902    3.2556   -2.2665 O   0  0  0  0  0  0  0  0  0  0  0  0
    6.3645    3.9201   -2.8806 C   0  0  2  0  0  0  0  0  0  0  0  0
    8.5439    4.7941   -3.7806 N   0  3  0  0  0  0  0  0  0  0  0  0
    0.5841    4.2092   -1.9602 C   0  0  0  0  0  0  0  0  0  0  0  0
   -0.4689    5.1848   -1.3796 C   0  0  2  0  0  0  0  0  0  0  0  0
   -1.5555    5.2234   -2.3037 O   0  0  0  0  0  0  0  0  0  0  0  0
    0.1758    6.6121   -1.2103 C   0  0  1  0  0  0  0  0  0  0  0  0
    0.9398    7.0916   -2.4911 C   0  0  2  0  0  0  0  0  0  0  0  0
    1.8462    5.9998   -3.1143 C   0  0  1  0  0  0  0  0  0  0  0  0
    3.0974    5.8890   -2.3864 O   0  0  0  0  0  0  0  0  0  0  0  0
    1.1489    4.7246   -3.1952 O   0  0  0  0  0  0  0  0  0  0  0  0
    1.7293    8.2479   -2.2249 O   0  0  0  0  0  0  0  0  0  0  0  0
   -0.8785    7.6007   -0.8236 N   0  3  0  0  0  0  0  0  0  0  0  0
   -0.4391    8.7847   -0.0574 C   0  0  0  0  0  0  0  0  0  0  0  0
   -1.0122    4.5955   -0.0546 C   0  0  0  0  0  0  0  0  0  0  0  0
  1  8  1  0  0  0  0
  1  9  1  6  0  0  0
  1  2  1  0  0  0  0
  2  3  1  0  0  0  0
  3  5  1  0  0  0  0
  3  4  1  1  0  0  0
  5  7  1  0  0  0  0
  5  6  1  1  0  0  0
  7  8  1  0  0  0  0
  9 10  1  0  0  0  0
 11 12  1  0  0  0  0
 11 18  1  0  0  0  0
 11 19  1  6  0  0  0
 12 13  1  0  0  0  0
 13 15  1  0  0  0  0
 13 14  1  6  0  0  0
 15 16  1  0  0  0  0
 15 26  1  1  0  0  0
 16 18  1  0  0  0  0
 16 17  1  6  0  0  0
 18  4  1  1  0  0  0
 20 21  1  0  0  0  0
 20 27  1  0  0  0  0
 21 31  1  1  0  0  0
 21 23  1  0  0  0  0
 21 22  1  0  0  0  0
 23 24  1  0  0  0  0
 23 29  1  6  0  0  0
 24 25  1  0  0  0  0
 24 28  1  1  0  0  0
 25 27  1  0  0  0  0
 25 26  1  1  0  0  0
 29 30  1  0  0  0  0
M  CHG  5   6   1  10   1  14   1  19   1  29   1
M  END
>  <CHROM.1>
-166.13384627,54.44614292,-135.60143045,54.95722212,173.59044541,33.47339457
162.31497643,104.69455414,91.19032887,-90.34152732,-85.45135339,-65.30636479
-150.29014358,4.59685912,4.38065213,-2.49845126,-0.35573354,0.38925289,-0.49473917

>  <Name>
1byj cryst

>  <RI>
0

>  <Rbt.Current_Directory>
/home/itssahil/PROJECTS/Mol_Feturizer/New_Systems/rnas/1byj

>  <Rbt.Executable>
rbdock ($Id: //depot/dev/client3/rdock/2013.1/src/exe/rbdock.cxx#4 $)

>  <Rbt.Library>
libRbt.so (2013.1, Build901 2013/11/27)

>  <Rbt.Parameter_File>
/export/apps/rDock/src/rDock_2013.1_src/data/scripts/dock_solv.prm

>  <Rbt.Receptor>
prm/pocket_docking_8.prm

>  <SCORE>
-50.6444

>  <SCORE.INTER>
-54.8207

>  <SCORE.INTER.CONST>
1

>  <SCORE.INTER.POLAR>
-6.72894

>  <SCORE.INTER.ROT>
6

>  <SCORE.INTER.SOLV>
32.1841

>  <SCORE.INTER.VDW>
-32.4454

>  <SCORE.INTER.norm>
-1.76841

>  <SCORE.INTRA>
4.17631

>  <SCORE.INTRA.DIHEDRAL>
9.54562

>  <SCORE.INTRA.DIHEDRAL.0>
18.4149

>  <SCORE.INTRA.POLAR>
0

>  <SCORE.INTRA.POLAR.0>
0

>  <SCORE.INTRA.REPUL>
-0.092687

>  <SCORE.INTRA.REPUL.0>
0.092687

>  <SCORE.INTRA.SOLV>
0.215087

>  <SCORE.INTRA.SOLV.lig_0>
-120.37

>  <SCORE.INTRA.VDW>
-0.24061

>  <SCORE.INTRA.VDW.0>
-1.75542

>  <SCORE.INTRA.norm>
0.13472

>  <SCORE.RESTR>
0

>  <SCORE.RESTR.CAVITY>
0

>  <SCORE.RESTR.norm>
0

>  <SCORE.SYSTEM>
0

>  <SCORE.SYSTEM.CONST>
0

>  <SCORE.SYSTEM.DIHEDRAL>
0

>  <SCORE.SYSTEM.SOLV>
0

>  <SCORE.SYSTEM.norm>
0

>  <SCORE.heavy>
31

>  <SCORE.norm>
-1.63369

>  <RMSD>
2.065

$$$$
1byj cryst
 OpenBabel11021811383D
libRbt.so/2013.1/901 2013/11/27
 31 33  0  0  0  0  0  0  0  0999 V2000
    9.5681    2.0548   -4.1456 C   0  0  1  0  0  0  0  0  0  0  0  0
    8.1562    2.3716   -3.9259 O   0  0  0  0  0  0  0  0  0  0  0  0
    7.7916    3.1719   -2.7619 C   0  0  2  0  0  0  0  0  0  0  0  0
    8.2752    4.5456   -2.8885 O   0  0  0  0  0  0  0  0  0  0  0  0
    8.3558    2.4966   -1.4750 C   0  0  2  0  0  0  0  0  0  0  0  0
    8.0355    3.2386   -0.2398 N   0  3  0  0  0  0  0  0  0  0  0  0
    9.8882    2.3002   -1.6054 C   0  0  0  0  0  0  0  0  0  0  0  0
   10.2354    1.4880   -2.8621 C   0  0  0  0  0  0  0  0  0  0  0  0
    9.6895    1.0213   -5.2793 C   0  0  0  0  0  0  0  0  0  0  0  0
   11.0745    0.7333   -5.6743 N   0  3  0  0  0  0  0  0  0  0  0  0
    8.1488    6.9198   -3.5344 C   0  0  1  0  0  0  0  0  0  0  0  0
    7.2774    8.0197   -4.1882 C   0  0  0  0  0  0  0  0  0  0  0  0
    5.9014    8.1178   -3.4763 C   0  0  1  0  0  0  0  0  0  0  0  0
    5.1124    9.2204   -4.0579 N   0  3  0  0  0  0  0  0  0  0  0  0
    5.1511    6.7573   -3.5642 C   0  0  1  0  0  0  0  0  0  0  0  0
    6.0145    5.5924   -3.0184 C   0  0  1  0  0  0  0  0  0  0  0  0
    5.3070    4.3949   -3.3037 O   0  0  0  0  0  0  0  0  0  0  0  0
    7.4593    5.5183   -3.6137 C   0  0  2  0  0  0  0  0  0  0  0  0
    9.4883    6.9043   -4.1484 N   0  3  0  0  0  0  0  0  0  0  0  0
    1.3637    5.2142   -2.2806 C   0  0  0  0  0  0  0  0  0  0  0  0
    0.3442    6.2450   -1.7369 C   0  0  2  0  0  0  0  0  0  0  0  0
   -0.7425    6.2837   -2.6610 O   0  0  0  0  0  0  0  0  0  0  0  0
    1.0352    7.6559   -1.6225 C   0  0  1  0  0  0  0  0  0  0  0  0
    1.8120    8.0612   -2.9211 C   0  0  2  0  0  0  0  0  0  0  0  0
    2.6811    6.9176   -3.5030 C   0  0  1  0  0  0  0  0  0  0  0  0
    3.9295    6.7937   -2.7723 O   0  0  0  0  0  0  0  0  0  0  0  0
    1.9426    5.6636   -3.5348 O   0  0  0  0  0  0  0  0  0  0  0  0
    2.6391    9.2005   -2.6997 O   0  0  0  0  0  0  0  0  0  0  0  0
    0.0144    8.6923   -1.2729 N   0  3  0  0  0  0  0  0  0  0  0  0
   -0.3913    8.7828    0.1445 C   0  0  0  0  0  0  0  0  0  0  0  0
   -0.2155    5.7245   -0.3901 C   0  0  0  0  0  0  0  0  0  0  0  0
  1  8  1  0  0  0  0
  1  9  1  6  0  0  0
  1  2  1  0  0  0  0
  2  3  1  0  0  0  0
  3  5  1  0  0  0  0
  3  4  1  6  0  0  0
  5  7  1  0  0  0  0
  5  6  1  1  0  0  0
  7  8  1  0  0  0  0
  9 10  1  0  0  0  0
 11 12  1  0  0  0  0
 11 18  1  0  0  0  0
 11 19  1  6  0  0  0
 12 13  1  0  0  0  0
 13 15  1  0  0  0  0
 13 14  1  6  0  0  0
 15 16  1  0  0  0  0
 15 26  1  1  0  0  0
 16 18  1  0  0  0  0
 16 17  1  6  0  0  0
 18  4  1  1  0  0  0
 20 21  1  0  0  0  0
 20 27  1  0  0  0  0
 21 31  1  1  0  0  0
 21 23  1  0  0  0  0
 21 22  1  0  0  0  0
 23 24  1  0  0  0  0
 23 29  1  6  0  0  0
 24 25  1  0  0  0  0
 24 28  1  1  0  0  0
 25 27  1  0  0  0  0
 25 26  1  1  0  0  0
 29 30  1  0  0  0  0
M  CHG  5   6   1  10   1  14   1  19   1  29   1
M  END
>  <CHROM.1>
174.15378956,85.28147867,176.67053106,47.78752276,-47.43351109,47.30551244
-169.05056630,104.56356936,64.16976434,54.79835750,-159.19251576,-54.39809048
-129.68158839,5.32342177,5.50150684,-2.88144714,0.44981179,-0.31368933,2.90152919

>  <Name>
1byj cryst

>  <RI>
0

>  <Rbt.Current_Directory>
/home/itssahil/PROJECTS/Mol_Feturizer/New_Systems/rnas/1byj

>  <Rbt.Executable>
rbdock ($Id: //depot/dev/client3/rdock/2013.1/src/exe/rbdock.cxx#4 $)

>  <Rbt.Library>
libRbt.so (2013.1, Build901 2013/11/27)

>  <Rbt.Parameter_File>
/export/apps/rDock/src/rDock_2013.1_src/data/scripts/dock_solv.prm

>  <Rbt.Receptor>
prm/pocket_docking_5.prm

>  <SCORE>
-65.9539

>  <SCORE.INTER>
-60.7929

>  <SCORE.INTER.CONST>
1

>  <SCORE.INTER.POLAR>
-8.88243

>  <SCORE.INTER.ROT>
6

>  <SCORE.INTER.SOLV>
34.487

>  <SCORE.INTER.VDW>
-30.0162

>  <SCORE.INTER.norm>
-1.96106

>  <SCORE.INTRA>
-5.1673

>  <SCORE.INTRA.DIHEDRAL>
0.16976

>  <SCORE.INTRA.DIHEDRAL.0>
18.4149

>  <SCORE.INTRA.POLAR>
-1.24842

>  <SCORE.INTRA.POLAR.0>
0

>  <SCORE.INTRA.REPUL>
-0.0834188

>  <SCORE.INTRA.REPUL.0>
0.092687

>  <SCORE.INTRA.SOLV>
-1.47465

>  <SCORE.INTRA.SOLV.lig_0>
-120.37

>  <SCORE.INTRA.VDW>
0.146877

>  <SCORE.INTRA.VDW.0>
-1.75542

>  <SCORE.INTRA.norm>
-0.166687

>  <SCORE.RESTR>
0.00629653

>  <SCORE.RESTR.CAVITY>
0.00629653

>  <SCORE.RESTR.norm>
0.000203114

>  <SCORE.SYSTEM>
0

>  <SCORE.SYSTEM.CONST>
0

>  <SCORE.SYSTEM.DIHEDRAL>
0

>  <SCORE.SYSTEM.SOLV>
0

>  <SCORE.SYSTEM.norm>
0

>  <SCORE.heavy>
31

>  <SCORE.norm>
-2.12755

>  <RMSD>
2.089

$$$$
1byj cryst
 OpenBabel11021811383D
libRbt.so/2013.1/901 2013/11/27
 31 33  0  0  0  0  0  0  0  0999 V2000
    9.1733    1.6340   -3.8596 C   0  0  1  0  0  0  0  0  0  0  0  0
    7.7270    1.7033   -3.6465 O   0  0  0  0  0  0  0  0  0  0  0  0
    7.2312    2.2014   -2.3679 C   0  0  2  0  0  0  0  0  0  0  0  0
    7.5138    3.6265   -2.2069 O   0  0  0  0  0  0  0  0  0  0  0  0
    7.8653    1.3712   -1.2107 C   0  0  2  0  0  0  0  0  0  0  0  0
    7.4207    1.8047    0.1285 N   0  3  0  0  0  0  0  0  0  0  0  0
    9.4120    1.4178   -1.3079 C   0  0  0  0  0  0  0  0  0  0  0  0
    9.8937    0.9240   -2.6804 C   0  0  0  0  0  0  0  0  0  0  0  0
    9.4614    0.8701   -5.1641 C   0  0  0  0  0  0  0  0  0  0  0  0
   10.8881    0.7946   -5.5052 N   0  3  0  0  0  0  0  0  0  0  0  0
    7.9567    5.7193   -3.4294 C   0  0  1  0  0  0  0  0  0  0  0  0
    7.3541    6.8182   -4.3382 C   0  0  0  0  0  0  0  0  0  0  0  0
    6.1006    7.4470   -3.6724 C   0  0  1  0  0  0  0  0  0  0  0  0
    5.5830    8.5442   -4.5122 N   0  3  0  0  0  0  0  0  0  0  0  0
    5.0225    6.3549   -3.4144 C   0  0  1  0  0  0  0  0  0  0  0  0
    5.5934    5.1712   -2.5939 C   0  0  1  0  0  0  0  0  0  0  0  0
    4.5850    4.1720   -2.5678 O   0  0  0  0  0  0  0  0  0  0  0  0
    6.9273    4.5748   -3.1527 C   0  0  2  0  0  0  0  0  0  0  0  0
    9.2027    5.2009   -4.0211 N   0  3  0  0  0  0  0  0  0  0  0  0
    1.3019    5.9472   -1.3856 C   0  0  0  0  0  0  0  0  0  0  0  0
    0.4211    7.2134   -1.2497 C   0  0  2  0  0  0  0  0  0  0  0  0
   -0.7512    6.9917   -2.0324 O   0  0  0  0  0  0  0  0  0  0  0  0
    1.2190    8.4660   -1.7749 C   0  0  1  0  0  0  0  0  0  0  0  0
    1.8816    8.2239   -3.1736 C   0  0  2  0  0  0  0  0  0  0  0  0
    2.6012    6.8560   -3.2875 C   0  0  1  0  0  0  0  0  0  0  0  0
    3.9075    6.9047   -2.6560 O   0  0  0  0  0  0  0  0  0  0  0  0
    1.7760    5.7845   -2.7489 O   0  0  0  0  0  0  0  0  0  0  0  0
    2.8064    9.2585   -3.4984 O   0  0  0  0  0  0  0  0  0  0  0  0
    0.3169    9.6588   -1.8175 N   0  3  0  0  0  0  0  0  0  0  0  0
    0.9145   10.9362   -2.2570 C   0  0  0  0  0  0  0  0  0  0  0  0
   -0.0293    7.3470    0.2259 C   0  0  0  0  0  0  0  0  0  0  0  0
  1  8  1  0  0  0  0
  1  9  1  6  0  0  0
  1  2  1  0  0  0  0
  2  3  1  0  0  0  0
  3  5  1  0  0  0  0
  3  4  1  1  0  0  0
  5  7  1  0  0  0  0
  5  6  1  1  0  0  0
  7  8  1  0  0  0  0
  9 10  1  0  0  0  0
 11 12  1  0  0  0  0
 11 18  1  0  0  0  0
 11 19  1  6  0  0  0
 12 13  1  0  0  0  0
 13 15  1  0  0  0  0
 13 14  1  6  0  0  0
 15 16  1  0  0  0  0
 15 26  1  1  0  0  0
 16 18  1  0  0  0  0
 16 17  1  6  0  0  0
 18  4  1  1  0  0  0
 20 21  1  0  0  0  0
 20 27  1  0  0  0  0
 21 31  1  1  0  0  0
 21 23  1  0  0  0  0
 21 22  1  0  0  0  0
 23 24  1  0  0  0  0
 23 29  1  6  0  0  0
 24 25  1  0  0  0  0
 24 28  1  1  0  0  0
 25 27  1  0  0  0  0
 25 26  1  1  0  0  0
 29 30  1  0  0  0  0
M  CHG  5   6   1  10   1  14   1  19   1  29   1
M  END
>  <CHROM.1>
177.40947530,61.82323989,-143.33548020,175.18016847,-62.72999101,-75.80011322
70.26580511,119.88211319,-179.71550131,-179.23079193,-60.42326640,50.76258214
-132.77538078,5.19531061,5.30248638,-2.75539855,-0.50984612,0.47723887,-0.50776024

>  <Name>
1byj cryst

>  <RI>
0

>  <Rbt.Current_Directory>
/home/itssahil/PROJECTS/Mol_Feturizer/New_Systems/rnas/1byj

>  <Rbt.Executable>
rbdock ($Id: //depot/dev/client3/rdock/2013.1/src/exe/rbdock.cxx#4 $)

>  <Rbt.Library>
libRbt.so (2013.1, Build901 2013/11/27)

>  <Rbt.Parameter_File>
/export/apps/rDock/src/rDock_2013.1_src/data/scripts/dock_solv.prm

>  <Rbt.Receptor>
prm/pocket_docking_5.prm

>  <SCORE>
-59.2069

>  <SCORE.INTER>
-55.8885

>  <SCORE.INTER.CONST>
1

>  <SCORE.INTER.POLAR>
-7.33158

>  <SCORE.INTER.ROT>
6

>  <SCORE.INTER.SOLV>
31.8187

>  <SCORE.INTER.VDW>
-31.0267

>  <SCORE.INTER.norm>
-1.80286

>  <SCORE.INTRA>
-3.31832

>  <SCORE.INTRA.DIHEDRAL>
1.68849

>  <SCORE.INTRA.DIHEDRAL.0>
18.4149

>  <SCORE.INTRA.POLAR>
-0.799412

>  <SCORE.INTRA.POLAR.0>
0

>  <SCORE.INTRA.REPUL>
-0.092687

>  <SCORE.INTRA.REPUL.0>
0.092687

>  <SCORE.INTRA.SOLV>
-0.165332

>  <SCORE.INTRA.SOLV.lig_0>
-120.37

>  <SCORE.INTRA.VDW>
-0.898467

>  <SCORE.INTRA.VDW.0>
-1.75542

>  <SCORE.INTRA.norm>
-0.107043

>  <SCORE.RESTR>
0

>  <SCORE.RESTR.CAVITY>
0

>  <SCORE.RESTR.norm>
0

>  <SCORE.SYSTEM>
0

>  <SCORE.SYSTEM.CONST>
0

>  <SCORE.SYSTEM.DIHEDRAL>
0

>  <SCORE.SYSTEM.SOLV>
0

>  <SCORE.SYSTEM.norm>
0

>  <SCORE.heavy>
31

>  <SCORE.norm>
-1.9099

>  <RMSD>
2.130

$$$$
1byj cryst
 OpenBabel11021811383D
libRbt.so/2013.1/901 2013/11/27
 31 33  0  0  0  0  0  0  0  0999 V2000
   10.0425    2.3065   -2.7175 C   0  0  1  0  0  0  0  0  0  0  0  0
    8.8254    2.1911   -3.5221 O   0  0  0  0  0  0  0  0  0  0  0  0
    7.5337    2.2131   -2.8442 C   0  0  2  0  0  0  0  0  0  0  0  0
    7.2565    3.5290   -2.2712 O   0  0  0  0  0  0  0  0  0  0  0  0
    7.5098    1.1080   -1.7449 C   0  0  2  0  0  0  0  0  0  0  0  0
    6.2357    1.0538   -1.0013 N   0  3  0  0  0  0  0  0  0  0  0  0
    8.6977    1.3036   -0.7679 C   0  0  0  0  0  0  0  0  0  0  0  0
   10.0360    1.3146   -1.5217 C   0  0  0  0  0  0  0  0  0  0  0  0
   11.2692    2.0256   -3.6032 C   0  0  0  0  0  0  0  0  0  0  0  0
   11.1305    0.8323   -4.4482 N   0  3  0  0  0  0  0  0  0  0  0  0
    7.2276    5.5031   -3.7452 C   0  0  1  0  0  0  0  0  0  0  0  0
    6.3400    6.5669   -4.4360 C   0  0  0  0  0  0  0  0  0  0  0  0
    5.4667    7.3091   -3.3889 C   0  0  1  0  0  0  0  0  0  0  0  0
    4.6845    8.3714   -4.0496 N   0  3  0  0  0  0  0  0  0  0  0  0
    4.5539    6.2989   -2.6354 C   0  0  1  0  0  0  0  0  0  0  0  0
    5.3754    5.1462   -2.0057 C   0  0  1  0  0  0  0  0  0  0  0  0
    4.4370    4.2083   -1.5001 O   0  0  0  0  0  0  0  0  0  0  0  0
    6.3656    4.4394   -2.9893 C   0  0  2  0  0  0  0  0  0  0  0  0
    8.1259    4.8766   -4.7311 N   0  3  0  0  0  0  0  0  0  0  0  0
    1.2949    5.2791   -1.5482 C   0  0  0  0  0  0  0  0  0  0  0  0
    0.4666    5.7893   -0.3435 C   0  0  2  0  0  0  0  0  0  0  0  0
   -0.7606    6.2962   -0.8662 O   0  0  0  0  0  0  0  0  0  0  0  0
    1.2693    6.9205    0.4032 C   0  0  1  0  0  0  0  0  0  0  0  0
    1.8315    8.0123   -0.5694 C   0  0  2  0  0  0  0  0  0  0  0  0
    2.4971    7.4241   -1.8394 C   0  0  1  0  0  0  0  0  0  0  0  0
    3.8425    6.9612   -1.5510 O   0  0  0  0  0  0  0  0  0  0  0  0
    1.6741    6.3749   -2.4230 O   0  0  0  0  0  0  0  0  0  0  0  0
    2.7666    8.8639    0.0875 O   0  0  0  0  0  0  0  0  0  0  0  0
    0.4058    7.5439    1.4540 N   0  3  0  0  0  0  0  0  0  0  0  0
    0.6097    7.0910    2.8451 C   0  0  0  0  0  0  0  0  0  0  0  0
    0.1175    4.5836    0.5634 C   0  0  0  0  0  0  0  0  0  0  0  0
  1  8  1  0  0  0  0
  1  9  1  6  0  0  0
  1  2  1  0  0  0  0
  2  3  1  0  0  0  0
  3  5  1  0  0  0  0
  3  4  1  1  0  0  0
  5  7  1  0  0  0  0
  5  6  1  1  0  0  0
  7  8  1  0  0  0  0
  9 10  1  0  0  0  0
 11 12  1  0  0  0  0
 11 18  1  0  0  0  0
 11 19  1  6  0  0  0
 12 13  1  0  0  0  0
 13 15  1  0  0  0  0
 13 14  1  6  0  0  0
 15 16  1  0  0  0  0
 15 26  1  1  0  0  0
 16 18  1  0  0  0  0
 16 17  1  6  0  0  0
 18  4  1  1  0  0  0
 20 21  1  0  0  0  0
 20 27  1  0  0  0  0
 21 31  1  1  0  0  0
 21 23  1  0  0  0  0
 21 22  1  0  0  0  0
 23 24  1  0  0  0  0
 23 29  1  1  0  0  0
 24 25  1  0  0  0  0
 24 28  1  1  0  0  0
 25 27  1  0  0  0  0
 25 26  1  1  0  0  0
 29 30  1  0  0  0  0
M  CHG  5   6   1  10   1  14   1  19   1  29   1
M  END
>  <CHROM.1>
-46.57559833,100.23204462,-101.22312490,-102.90838956,167.65715511,-38.94742507
41.34155656,95.64049735,68.34228826,-58.11162542,-139.10374082,-177.12162182
175.89086015,5.04909185,4.90205135,-1.87090266,0.24703713,-0.55830287,2.55033983

>  <Name>
1byj cryst

>  <RI>
0

>  <Rbt.Current_Directory>
/home/itssahil/PROJECTS/Mol_Feturizer/New_Systems/rnas/1byj

>  <Rbt.Executable>
rbdock ($Id: //depot/dev/client3/rdock/2013.1/src/exe/rbdock.cxx#4 $)

>  <Rbt.Library>
libRbt.so (2013.1, Build901 2013/11/27)

>  <Rbt.Parameter_File>
/export/apps/rDock/src/rDock_2013.1_src/data/scripts/dock_solv.prm

>  <Rbt.Receptor>
prm/pocket_docking_8.prm

>  <SCORE>
-36.872

>  <SCORE.INTER>
-35.6475

>  <SCORE.INTER.CONST>
1

>  <SCORE.INTER.POLAR>
-4.51323

>  <SCORE.INTER.ROT>
6

>  <SCORE.INTER.SOLV>
26.2769

>  <SCORE.INTER.VDW>
-25.0799

>  <SCORE.INTER.norm>
-1.14992

>  <SCORE.INTRA>
-1.22447

>  <SCORE.INTRA.DIHEDRAL>
6.38687

>  <SCORE.INTRA.DIHEDRAL.0>
18.4149

>  <SCORE.INTRA.POLAR>
-0.91367

>  <SCORE.INTRA.POLAR.0>
0

>  <SCORE.INTRA.REPUL>
-0.092687

>  <SCORE.INTRA.REPUL.0>
0.092687

>  <SCORE.INTRA.SOLV>
0.799519

>  <SCORE.INTRA.SOLV.lig_0>
-120.37

>  <SCORE.INTRA.VDW>
-1.24775

>  <SCORE.INTRA.VDW.0>
-1.75542

>  <SCORE.INTRA.norm>
-0.039499

>  <SCORE.RESTR>
0

>  <SCORE.RESTR.CAVITY>
0

>  <SCORE.RESTR.norm>
0

>  <SCORE.SYSTEM>
0

>  <SCORE.SYSTEM.CONST>
0

>  <SCORE.SYSTEM.DIHEDRAL>
0

>  <SCORE.SYSTEM.SOLV>
0

>  <SCORE.SYSTEM.norm>
0

>  <SCORE.heavy>
31

>  <SCORE.norm>
-1.18942

>  <RMSD>
2.130

$$$$
1byj cryst
 OpenBabel11021811383D
libRbt.so/2013.1/901 2013/11/27
 31 33  0  0  0  0  0  0  0  0999 V2000
    9.8919    1.6310   -3.3228 C   0  0  1  0  0  0  0  0  0  0  0  0
    8.4492    1.4634   -3.1419 O   0  0  0  0  0  0  0  0  0  0  0  0
    7.7920    2.1823   -2.0557 C   0  0  2  0  0  0  0  0  0  0  0  0
    7.7848    3.6235   -2.2999 O   0  0  0  0  0  0  0  0  0  0  0  0
    8.5043    1.8464   -0.7103 C   0  0  2  0  0  0  0  0  0  0  0  0
    7.9060    2.5316    0.4523 N   0  3  0  0  0  0  0  0  0  0  0  0
   10.0161    2.1752   -0.8121 C   0  0  0  0  0  0  0  0  0  0  0  0
   10.6643    1.4317   -1.9896 C   0  0  0  0  0  0  0  0  0  0  0  0
   10.3985    0.6132   -4.3598 C   0  0  0  0  0  0  0  0  0  0  0  0
   10.2291    1.0497   -5.7520 N   0  3  0  0  0  0  0  0  0  0  0  0
    7.1874    5.4941   -3.7881 C   0  0  1  0  0  0  0  0  0  0  0  0
    6.0355    6.2232   -4.5216 C   0  0  0  0  0  0  0  0  0  0  0  0
    4.9294    6.6416   -3.5160 C   0  0  1  0  0  0  0  0  0  0  0  0
    3.8766    7.4027   -4.2154 N   0  3  0  0  0  0  0  0  0  0  0  0
    4.3568    5.3883   -2.7927 C   0  0  1  0  0  0  0  0  0  0  0  0
    5.4770    4.5542   -2.1222 C   0  0  1  0  0  0  0  0  0  0  0  0
    4.8672    3.3629   -1.6480 O   0  0  0  0  0  0  0  0  0  0  0  0
    6.6800    4.2063   -3.0598 C   0  0  2  0  0  0  0  0  0  0  0  0
    8.2778    5.1929   -4.7324 N   0  3  0  0  0  0  0  0  0  0  0  0
    1.2858    4.3869   -0.0744 C   0  0  0  0  0  0  0  0  0  0  0  0
    0.3815    5.5217    0.4660 C   0  0  2  0  0  0  0  0  0  0  0  0
   -0.9293    5.2908   -0.0483 O   0  0  0  0  0  0  0  0  0  0  0  0
    0.9388    6.9127   -0.0198 C   0  0  1  0  0  0  0  0  0  0  0  0
    1.2523    6.9413   -1.5544 C   0  0  2  0  0  0  0  0  0  0  0  0
    2.0130    5.6864   -2.0527 C   0  0  1  0  0  0  0  0  0  0  0  0
    3.4281    5.7824   -1.7427 O   0  0  0  0  0  0  0  0  0  0  0  0
    1.4203    4.4690   -1.5183 O   0  0  0  0  0  0  0  0  0  0  0  0
    1.9963    8.1028   -1.9129 O   0  0  0  0  0  0  0  0  0  0  0  0
   -0.0250    7.9982    0.3424 N   0  3  0  0  0  0  0  0  0  0  0  0
    0.2606    8.7662    1.5714 C   0  0  0  0  0  0  0  0  0  0  0  0
    0.2995    5.3978    2.0075 C   0  0  0  0  0  0  0  0  0  0  0  0
  1  8  1  0  0  0  0
  1  9  1  6  0  0  0
  1  2  1  0  0  0  0
  2  3  1  0  0  0  0
  3  5  1  0  0  0  0
  3  4  1  6  0  0  0
  5  7  1  0  0  0  0
  5  6  1  1  0  0  0
  7  8  1  0  0  0  0
  9 10  1  0  0  0  0
 11 12  1  0  0  0  0
 11 18  1  0  0  0  0
 11 19  1  6  0  0  0
 12 13  1  0  0  0  0
 13 15  1  0  0  0  0
 13 14  1  6  0  0  0
 15 16  1  0  0  0  0
 15 26  1  1  0  0  0
 16 18  1  0  0  0  0
 16 17  1  6  0  0  0
 18  4  1  1  0  0  0
 20 21  1  0  0  0  0
 20 27  1  0  0  0  0
 21 31  1  1  0  0  0
 21 23  1  0  0  0  0
 21 22  1  0  0  0  0
 23 24  1  0  0  0  0
 23 29  1  6  0  0  0
 24 25  1  0  0  0  0
 24 28  1  1  0  0  0
 25 27  1  0  0  0  0
 25 26  1  1  0  0  0
 29 30  1  0  0  0  0
M  CHG  5   6   1  10   1  14   1  19   1  29   1
M  END
>  <CHROM.1>
83.56806997,88.17931298,-151.99002862,178.97207748,-171.06378424,-77.24264775
-158.21087865,100.64177689,-65.02039483,54.47138971,-140.88044909,-68.04919758
-136.35073842,4.99530714,4.60426049,-1.91297604,0.05216722,-0.55816696,2.24024297

>  <Name>
1byj cryst

>  <RI>
0

>  <Rbt.Current_Directory>
/home/itssahil/PROJECTS/Mol_Feturizer/New_Systems/rnas/1byj

>  <Rbt.Executable>
rbdock ($Id: //depot/dev/client3/rdock/2013.1/src/exe/rbdock.cxx#4 $)

>  <Rbt.Library>
libRbt.so (2013.1, Build901 2013/11/27)

>  <Rbt.Parameter_File>
/export/apps/rDock/src/rDock_2013.1_src/data/scripts/dock_solv.prm

>  <Rbt.Receptor>
prm/pocket_docking_3.prm

>  <SCORE>
-46.2417

>  <SCORE.INTER>
-43.3552

>  <SCORE.INTER.CONST>
1

>  <SCORE.INTER.POLAR>
-6.62781

>  <SCORE.INTER.ROT>
6

>  <SCORE.INTER.SOLV>
29.78

>  <SCORE.INTER.VDW>
-24.3375

>  <SCORE.INTER.norm>
-1.39856

>  <SCORE.INTRA>
-3.75799

>  <SCORE.INTRA.DIHEDRAL>
6.47599

>  <SCORE.INTRA.DIHEDRAL.0>
18.4149

>  <SCORE.INTRA.POLAR>
-1.27067

>  <SCORE.INTRA.POLAR.0>
0

>  <SCORE.INTRA.REPUL>
-0.092687

>  <SCORE.INTRA.REPUL.0>
0.092687

>  <SCORE.INTRA.SOLV>
-0.97309

>  <SCORE.INTRA.SOLV.lig_0>
-120.37

>  <SCORE.INTRA.VDW>
-1.72572

>  <SCORE.INTRA.VDW.0>
-1.75542

>  <SCORE.INTRA.norm>
-0.121225

>  <SCORE.RESTR>
0.871498

>  <SCORE.RESTR.CAVITY>
0.871498

>  <SCORE.RESTR.norm>
0.0281129

>  <SCORE.SYSTEM>
0

>  <SCORE.SYSTEM.CONST>
0

>  <SCORE.SYSTEM.DIHEDRAL>
0

>  <SCORE.SYSTEM.SOLV>
0

>  <SCORE.SYSTEM.norm>
0

>  <SCORE.heavy>
31

>  <SCORE.norm>
-1.49167

>  <RMSD>
2.178

$$$$
1byj cryst
 OpenBabel11021811383D
libRbt.so/2013.1/901 2013/11/27
 31 33  0  0  0  0  0  0  0  0999 V2000
    9.5442    1.4002   -3.1788 C   0  0  1  0  0  0  0  0  0  0  0  0
    8.1194    1.5032   -3.4970 O   0  0  0  0  0  0  0  0  0  0  0  0
    7.2121    2.0287   -2.4825 C   0  0  2  0  0  0  0  0  0  0  0  0
    7.4536    3.4494   -2.2379 O   0  0  0  0  0  0  0  0  0  0  0  0
    7.3702    1.2004   -1.1712 C   0  0  2  0  0  0  0  0  0  0  0  0
    6.4874    1.6611   -0.0815 N   0  3  0  0  0  0  0  0  0  0  0  0
    8.8503    1.2127   -0.7094 C   0  0  0  0  0  0  0  0  0  0  0  0
    9.7781    0.6906   -1.8166 C   0  0  0  0  0  0  0  0  0  0  0  0
   10.2604    0.6131   -4.2905 C   0  0  0  0  0  0  0  0  0  0  0  0
   10.1657    1.2384   -5.6161 N   0  3  0  0  0  0  0  0  0  0  0  0
    8.0429    5.5190   -3.4379 C   0  0  1  0  0  0  0  0  0  0  0  0
    7.5274    6.6490   -4.3620 C   0  0  0  0  0  0  0  0  0  0  0  0
    6.2866    7.3400   -3.7354 C   0  0  1  0  0  0  0  0  0  0  0  0
    5.8537    8.4638   -4.5877 N   0  3  0  0  0  0  0  0  0  0  0  0
    5.1461    6.3041   -3.5166 C   0  0  1  0  0  0  0  0  0  0  0  0
    5.6285    5.0912   -2.6820 C   0  0  1  0  0  0  0  0  0  0  0  0
    4.5700    4.1449   -2.6925 O   0  0  0  0  0  0  0  0  0  0  0  0
    6.9478    4.4283   -3.1990 C   0  0  2  0  0  0  0  0  0  0  0  0
    9.2795    4.9385   -3.9903 N   0  3  0  0  0  0  0  0  0  0  0  0
    1.3146    6.3439   -1.5312 C   0  0  0  0  0  0  0  0  0  0  0  0
    0.5618    7.6968   -1.5545 C   0  0  2  0  0  0  0  0  0  0  0  0
   -0.6052    7.5107   -2.3542 O   0  0  0  0  0  0  0  0  0  0  0  0
    1.4951    8.8056   -2.1718 C   0  0  1  0  0  0  0  0  0  0  0  0
    2.1677    8.3582   -3.5140 C   0  0  2  0  0  0  0  0  0  0  0  0
    2.7493    6.9226   -3.4646 C   0  0  1  0  0  0  0  0  0  0  0  0
    4.0364    6.9089   -2.7932 O   0  0  0  0  0  0  0  0  0  0  0  0
    1.8067    5.9971   -2.8531 O   0  0  0  0  0  0  0  0  0  0  0  0
    3.1999    9.2595   -3.9056 O   0  0  0  0  0  0  0  0  0  0  0  0
    0.7186   10.0696   -2.3661 N   0  3  0  0  0  0  0  0  0  0  0  0
    1.4945   11.3025   -2.6110 C   0  0  0  0  0  0  0  0  0  0  0  0
    0.0874    8.0242   -0.1172 C   0  0  0  0  0  0  0  0  0  0  0  0
  1  8  1  0  0  0  0
  1  9  1  6  0  0  0
  1  2  1  0  0  0  0
  2  3  1  0  0  0  0
  3  5  1  0  0  0  0
  3  4  1  1  0  0  0
  5  7  1  0  0  0  0
  5  6  1  1  0  0  0
  7  8  1  0  0  0  0
  9 10  1  0  0  0  0
 11 12  1  0  0  0  0
 11 18  1  0  0  0  0
 11 19  1  6  0  0  0
 12 13  1  0  0  0  0
 13 15  1  0  0  0  0
 13 14  1  6  0  0  0
 15 16  1  0  0  0  0
 15 26  1  1  0  0  0
 16 18  1  0  0  0  0
 16 17  1  6  0  0  0
 18  4  1  1  0  0  0
 20 21  1  0  0  0  0
 20 27  1  0  0  0  0
 21 31  1  1  0  0  0
 21 23  1  0  0  0  0
 21 22  1  0  0  0  0
 23 24  1  0  0  0  0
 23 29  1  6  0  0  0
 24 25  1  0  0  0  0
 24 28  1  1  0  0  0
 25 27  1  0  0  0  0
 25 26  1  1  0  0  0
 29 30  1  0  0  0  0
M  CHG  5   6   1  10   1  14   1  19   1  29   1
M  END
>  <CHROM.1>
60.62926716,77.48230651,-137.55070981,-169.61252686,82.16538230,-69.47151196
82.92357644,120.17089117,72.98935382,-178.34612879,-73.87678185,-172.44273937
-126.35392046,5.25855873,5.34455535,-2.81593667,0.58472922,-0.47235583,2.62010401

>  <Name>
1byj cryst

>  <RI>
0

>  <Rbt.Current_Directory>
/home/itssahil/PROJECTS/Mol_Feturizer/New_Systems/rnas/1byj

>  <Rbt.Executable>
rbdock ($Id: //depot/dev/client3/rdock/2013.1/src/exe/rbdock.cxx#4 $)

>  <Rbt.Library>
libRbt.so (2013.1, Build901 2013/11/27)

>  <Rbt.Parameter_File>
/export/apps/rDock/src/rDock_2013.1_src/data/scripts/dock_solv.prm

>  <Rbt.Receptor>
prm/pocket_docking_6.prm

>  <SCORE>
-60.374

>  <SCORE.INTER>
-61.0182

>  <SCORE.INTER.CONST>
1

>  <SCORE.INTER.POLAR>
-8.01337

>  <SCORE.INTER.ROT>
6

>  <SCORE.INTER.SOLV>
31.4549

>  <SCORE.INTER.VDW>
-32.0525

>  <SCORE.INTER.norm>
-1.96833

>  <SCORE.INTRA>
0.644132

>  <SCORE.INTRA.DIHEDRAL>
7.53446

>  <SCORE.INTRA.DIHEDRAL.0>
18.4149

>  <SCORE.INTRA.POLAR>
-0.548671

>  <SCORE.INTRA.POLAR.0>
0

>  <SCORE.INTRA.REPUL>
-0.092687

>  <SCORE.INTRA.REPUL.0>
0.092687

>  <SCORE.INTRA.SOLV>
2.17943

>  <SCORE.INTRA.SOLV.lig_0>
-120.37

>  <SCORE.INTRA.VDW>
-1.88389

>  <SCORE.INTRA.VDW.0>
-1.75542

>  <SCORE.INTRA.norm>
0.0207785

>  <SCORE.RESTR>
0

>  <SCORE.RESTR.CAVITY>
0

>  <SCORE.RESTR.norm>
0

>  <SCORE.SYSTEM>
0

>  <SCORE.SYSTEM.CONST>
0

>  <SCORE.SYSTEM.DIHEDRAL>
0

>  <SCORE.SYSTEM.SOLV>
0

>  <SCORE.SYSTEM.norm>
0

>  <SCORE.heavy>
31

>  <SCORE.norm>
-1.94755

>  <RMSD>
2.181

$$$$
1byj cryst
 OpenBabel11021811383D
libRbt.so/2013.1/901 2013/11/27
 31 33  0  0  0  0  0  0  0  0999 V2000
    9.4146    1.2821   -3.3699 C   0  0  1  0  0  0  0  0  0  0  0  0
    7.9753    1.4190   -3.5977 O   0  0  0  0  0  0  0  0  0  0  0  0
    7.1467    1.9662   -2.5287 C   0  0  2  0  0  0  0  0  0  0  0  0
    7.4370    3.3809   -2.3024 O   0  0  0  0  0  0  0  0  0  0  0  0
    7.3677    1.1348   -1.2286 C   0  0  2  0  0  0  0  0  0  0  0  0
    6.5668    1.6167   -0.0861 N   0  3  0  0  0  0  0  0  0  0  0  0
    8.8738    1.1119   -0.8612 C   0  0  0  0  0  0  0  0  0  0  0  0
    9.7172    0.5675   -2.0240 C   0  0  0  0  0  0  0  0  0  0  0  0
   10.0401    0.4778   -4.5232 C   0  0  0  0  0  0  0  0  0  0  0  0
    9.4666    0.7843   -5.8402 N   0  3  0  0  0  0  0  0  0  0  0  0
    7.9147    5.3052   -3.7649 C   0  0  1  0  0  0  0  0  0  0  0  0
    7.3026    6.4556   -4.6007 C   0  0  0  0  0  0  0  0  0  0  0  0
    6.3676    7.3286   -3.7212 C   0  0  1  0  0  0  0  0  0  0  0  0
    5.8532    8.4648   -4.5094 N   0  3  0  0  0  0  0  0  0  0  0  0
    5.2170    6.4616   -3.1328 C   0  0  1  0  0  0  0  0  0  0  0  0
    5.7635    5.2299   -2.3683 C   0  0  1  0  0  0  0  0  0  0  0  0
    4.6394    4.4317   -2.0286 O   0  0  0  0  0  0  0  0  0  0  0  0
    6.8065    4.3788   -3.1652 C   0  0  2  0  0  0  0  0  0  0  0  0
    8.8786    4.5453   -4.5802 N   0  3  0  0  0  0  0  0  0  0  0  0
    1.6785    6.5554   -3.3381 C   0  0  0  0  0  0  0  0  0  0  0  0
    0.6557    7.1737   -2.3536 C   0  0  2  0  0  0  0  0  0  0  0  0
   -0.1023    8.1336   -3.0885 O   0  0  0  0  0  0  0  0  0  0  0  0
    1.4238    7.8580   -1.1607 C   0  0  1  0  0  0  0  0  0  0  0  0
    2.5845    8.7944   -1.6404 C   0  0  2  0  0  0  0  0  0  0  0  0
    3.4639    8.1679   -2.7521 C   0  0  1  0  0  0  0  0  0  0  0  0
    4.4236    7.2357   -2.1885 O   0  0  0  0  0  0  0  0  0  0  0  0
    2.6425    7.5474   -3.7813 O   0  0  0  0  0  0  0  0  0  0  0  0
    3.4227    9.1834   -0.5554 O   0  0  0  0  0  0  0  0  0  0  0  0
    0.4573    8.6122   -0.3031 N   0  3  0  0  0  0  0  0  0  0  0  0
    0.9341    9.0402    1.0279 C   0  0  0  0  0  0  0  0  0  0  0  0
   -0.3245    6.0651   -1.8972 C   0  0  0  0  0  0  0  0  0  0  0  0
  1  8  1  0  0  0  0
  1  9  1  6  0  0  0
  1  2  1  0  0  0  0
  2  3  1  0  0  0  0
  3  5  1  0  0  0  0
  3  4  1  1  0  0  0
  5  7  1  0  0  0  0
  5  6  1  1  0  0  0
  7  8  1  0  0  0  0
  9 10  1  0  0  0  0
 11 12  1  0  0  0  0
 11 18  1  0  0  0  0
 11 19  1  6  0  0  0
 12 13  1  0  0  0  0
 13 15  1  0  0  0  0
 13 14  1  6  0  0  0
 15 16  1  0  0  0  0
 15 26  1  1  0  0  0
 16 18  1  0  0  0  0
 16 17  1  6  0  0  0
 18  4  1  1  0  0  0
 20 21  1  0  0  0  0
 20 27  1  0  0  0  0
 21 31  1  1  0  0  0
 21 23  1  0  0  0  0
 21 22  1  0  0  0  0
 23 24  1  0  0  0  0
 23 29  1  6  0  0  0
 24 25  1  0  0  0  0
 24 28  1  1  0  0  0
 25 27  1  0  0  0  0
 25 26  1  1  0  0  0
 29 30  1  0  0  0  0
M  CHG  5   6   1  10   1  14   1  19   1  29   1
M  END
>  <CHROM.1>
38.28813997,82.43755245,-126.93456922,-174.87612183,27.13986895,57.51643022
-166.24041544,77.98530279,-55.77585957,174.59060308,-73.34573722,-172.88540408
173.41589418,5.26807764,5.20510382,-2.59529412,0.46614952,-0.60178647,2.52693910

>  <Name>
1byj cryst

>  <RI>
0

>  <Rbt.Current_Directory>
/home/itssahil/PROJECTS/Mol_Feturizer/New_Systems/rnas/1byj

>  <Rbt.Executable>
rbdock ($Id: //depot/dev/client3/rdock/2013.1/src/exe/rbdock.cxx#4 $)

>  <Rbt.Library>
libRbt.so (2013.1, Build901 2013/11/27)

>  <Rbt.Parameter_File>
/export/apps/rDock/src/rDock_2013.1_src/data/scripts/dock_solv.prm

>  <Rbt.Receptor>
prm/pocket_docking_3.prm

>  <SCORE>
-42.9913

>  <SCORE.INTER>
-42.2942

>  <SCORE.INTER.CONST>
1

>  <SCORE.INTER.POLAR>
-5.76352

>  <SCORE.INTER.ROT>
6

>  <SCORE.INTER.SOLV>
29.0302

>  <SCORE.INTER.VDW>
-26.2611

>  <SCORE.INTER.norm>
-1.36433

>  <SCORE.INTRA>
-2.10209

>  <SCORE.INTRA.DIHEDRAL>
-2.1046

>  <SCORE.INTRA.DIHEDRAL.0>
18.4149

>  <SCORE.INTRA.POLAR>
-0.0224499

>  <SCORE.INTRA.POLAR.0>
0

>  <SCORE.INTRA.REPUL>
-0.092687

>  <SCORE.INTRA.REPUL.0>
0.092687

>  <SCORE.INTRA.SOLV>
1.90112

>  <SCORE.INTRA.SOLV.lig_0>
-120.37

>  <SCORE.INTRA.VDW>
-1.46058

>  <SCORE.INTRA.VDW.0>
-1.75542

>  <SCORE.INTRA.norm>
-0.0678093

>  <SCORE.RESTR>
1.405

>  <SCORE.RESTR.CAVITY>
1.405

>  <SCORE.RESTR.norm>
0.0453226

>  <SCORE.SYSTEM>
0

>  <SCORE.SYSTEM.CONST>
0

>  <SCORE.SYSTEM.DIHEDRAL>
0

>  <SCORE.SYSTEM.SOLV>
0

>  <SCORE.SYSTEM.norm>
0

>  <SCORE.heavy>
31

>  <SCORE.norm>
-1.38682

>  <RMSD>
2.246

$$$$
1byj cryst
 OpenBabel11021811383D
libRbt.so/2013.1/901 2013/11/27
 31 33  0  0  0  0  0  0  0  0999 V2000
    9.4906    1.8375   -4.0148 C   0  0  1  0  0  0  0  0  0  0  0  0
    8.0611    1.9967   -3.7444 O   0  0  0  0  0  0  0  0  0  0  0  0
    7.6517    2.6496   -2.5055 C   0  0  2  0  0  0  0  0  0  0  0  0
    8.0012    4.0689   -2.5121 O   0  0  0  0  0  0  0  0  0  0  0  0
    8.3082    1.9173   -1.2959 C   0  0  2  0  0  0  0  0  0  0  0  0
    7.9503    2.5102    0.0077 N   0  3  0  0  0  0  0  0  0  0  0  0
    9.8487    1.8810   -1.4683 C   0  0  0  0  0  0  0  0  0  0  0  0
   10.2394    1.2230   -2.8002 C   0  0  0  0  0  0  0  0  0  0  0  0
    9.6804    0.9275   -5.2412 C   0  0  0  0  0  0  0  0  0  0  0  0
   11.0856    0.7200   -5.6147 N   0  3  0  0  0  0  0  0  0  0  0  0
    7.9968    6.3349   -3.4795 C   0  0  1  0  0  0  0  0  0  0  0  0
    7.1690    7.3913   -4.2510 C   0  0  0  0  0  0  0  0  0  0  0  0
    5.8339    7.6801   -3.5136 C   0  0  1  0  0  0  0  0  0  0  0  0
    5.0915    8.7436   -4.2170 N   0  3  0  0  0  0  0  0  0  0  0  0
    4.9963    6.3749   -3.3847 C   0  0  1  0  0  0  0  0  0  0  0  0
    5.8073    5.2399   -2.7107 C   0  0  1  0  0  0  0  0  0  0  0  0
    5.0143    4.0657   -2.8013 O   0  0  0  0  0  0  0  0  0  0  0  0
    7.2177    4.9862   -3.3383 C   0  0  2  0  0  0  0  0  0  0  0  0
    9.3050    6.1436   -4.1303 N   0  3  0  0  0  0  0  0  0  0  0  0
    2.7013    4.8121   -0.3576 C   0  0  0  0  0  0  0  0  0  0  0  0
    1.2703    5.3370   -0.0848 C   0  0  2  0  0  0  0  0  0  0  0  0
    0.3715    4.2677   -0.3763 O   0  0  0  0  0  0  0  0  0  0  0  0
    0.9829    6.5803   -1.0083 C   0  0  1  0  0  0  0  0  0  0  0  0
    1.3586    6.3257   -2.5076 C   0  0  2  0  0  0  0  0  0  0  0  0
    2.7361    5.6397   -2.6910 C   0  0  1  0  0  0  0  0  0  0  0  0
    3.8147    6.6033   -2.5648 O   0  0  0  0  0  0  0  0  0  0  0  0
    2.8920    4.5245   -1.7685 O   0  0  0  0  0  0  0  0  0  0  0  0
    1.3430    7.5351   -3.2615 O   0  0  0  0  0  0  0  0  0  0  0  0
   -0.4533    6.9810   -0.8847 N   0  3  0  0  0  0  0  0  0  0  0  0
   -1.4398    6.1823   -1.6401 C   0  0  0  0  0  0  0  0  0  0  0  0
    1.1377    5.6506    1.4259 C   0  0  0  0  0  0  0  0  0  0  0  0
  1  8  1  0  0  0  0
  1  9  1  6  0  0  0
  1  2  1  0  0  0  0
  2  3  1  0  0  0  0
  3  5  1  0  0  0  0
  3  4  1  6  0  0  0
  5  7  1  0  0  0  0
  5  6  1  1  0  0  0
  7  8  1  0  0  0  0
  9 10  1  0  0  0  0
 11 12  1  0  0  0  0
 11 18  1  0  0  0  0
 11 19  1  6  0  0  0
 12 13  1  0  0  0  0
 13 15  1  0  0  0  0
 13 14  1  6  0  0  0
 15 16  1  0  0  0  0
 15 26  1  1  0  0  0
 16 18  1  0  0  0  0
 16 17  1  6  0  0  0
 18  4  1  1  0  0  0
 20 21  1  0  0  0  0
 20 27  1  0  0  0  0
 21 31  1  1  0  0  0
 21 23  1  0  0  0  0
 21 22  1  0  0  0  0
 23 24  1  0  0  0  0
 23 29  1  6  0  0  0
 24 25  1  0  0  0  0
 24 28  1  6  0  0  0
 25 27  1  0  0  0  0
 25 26  1  1  0  0  0
 29 30  1  0  0  0  0
M  CHG  5   6   1  10   1  14   1  19   1  29   1
M  END
>  <CHROM.1>
179.00174444,74.01523381,-165.02672917,-60.56252656,64.73004378,-135.08627715
70.97635568,161.12401869,-163.15229951,-57.09946736,41.97948410,-54.63240508
-146.64561659,5.32365786,4.75101928,-2.48420998,0.23087034,-0.43040373,2.60294834

>  <Name>
1byj cryst

>  <RI>
0

>  <Rbt.Current_Directory>
/home/itssahil/PROJECTS/Mol_Feturizer/New_Systems/rnas/1byj

>  <Rbt.Executable>
rbdock ($Id: //depot/dev/client3/rdock/2013.1/src/exe/rbdock.cxx#4 $)

>  <Rbt.Library>
libRbt.so (2013.1, Build901 2013/11/27)

>  <Rbt.Parameter_File>
/export/apps/rDock/src/rDock_2013.1_src/data/scripts/dock_solv.prm

>  <Rbt.Receptor>
prm/pocket_docking_7.prm

>  <SCORE>
-52.8613

>  <SCORE.INTER>
-50.132

>  <SCORE.INTER.CONST>
1

>  <SCORE.INTER.POLAR>
-6.61933

>  <SCORE.INTER.ROT>
6

>  <SCORE.INTER.SOLV>
30.2333

>  <SCORE.INTER.VDW>
-29.0346

>  <SCORE.INTER.norm>
-1.61716

>  <SCORE.INTRA>
-2.72929

>  <SCORE.INTRA.DIHEDRAL>
-4.57886

>  <SCORE.INTRA.DIHEDRAL.0>
18.4149

>  <SCORE.INTRA.POLAR>
-4.01059e-05

>  <SCORE.INTRA.POLAR.0>
0

>  <SCORE.INTRA.REPUL>
-0.092687

>  <SCORE.INTRA.REPUL.0>
0.092687

>  <SCORE.INTRA.SOLV>
-4.4595

>  <SCORE.INTRA.SOLV.lig_0>
-120.37

>  <SCORE.INTRA.VDW>
2.25346

>  <SCORE.INTRA.VDW.0>
-1.75542

>  <SCORE.INTRA.norm>
-0.0880416

>  <SCORE.RESTR>
0

>  <SCORE.RESTR.CAVITY>
0

>  <SCORE.RESTR.norm>
0

>  <SCORE.SYSTEM>
0

>  <SCORE.SYSTEM.CONST>
0

>  <SCORE.SYSTEM.DIHEDRAL>
0

>  <SCORE.SYSTEM.SOLV>
0

>  <SCORE.SYSTEM.norm>
0

>  <SCORE.heavy>
31

>  <SCORE.norm>
-1.7052

>  <RMSD>
2.308

$$$$
1byj cryst
 OpenBabel11021811383D
libRbt.so/2013.1/901 2013/11/27
 31 33  0  0  0  0  0  0  0  0999 V2000
    5.5725    2.7339   -0.5494 C   0  0  1  0  0  0  0  0  0  0  0  0
    6.5232    3.8461   -0.5868 O   0  0  0  0  0  0  0  0  0  0  0  0
    7.6383    3.7822   -1.5255 C   0  0  2  0  0  0  0  0  0  0  0  0
    7.1755    3.8835   -2.9084 O   0  0  0  0  0  0  0  0  0  0  0  0
    8.4298    2.4588   -1.2960 C   0  0  2  0  0  0  0  0  0  0  0  0
    9.5826    2.3046   -2.2050 N   0  3  0  0  0  0  0  0  0  0  0  0
    7.4778    1.2412   -1.4194 C   0  0  0  0  0  0  0  0  0  0  0  0
    6.2967    1.3633   -0.4449 C   0  0  0  0  0  0  0  0  0  0  0  0
    4.6334    2.9049    0.6577 C   0  0  0  0  0  0  0  0  0  0  0  0
    5.3346    3.1378    1.9271 N   0  3  0  0  0  0  0  0  0  0  0  0
    7.3316    6.3422   -2.8834 C   0  0  1  0  0  0  0  0  0  0  0  0
    6.6058    7.6702   -3.2094 C   0  0  0  0  0  0  0  0  0  0  0  0
    5.2308    7.7286   -2.4914 C   0  0  1  0  0  0  0  0  0  0  0  0
    4.5853    9.0304   -2.7475 N   0  3  0  0  0  0  0  0  0  0  0  0
    4.3362    6.5379   -2.9426 C   0  0  1  0  0  0  0  0  0  0  0  0
    5.0496    5.1780   -2.7383 C   0  0  1  0  0  0  0  0  0  0  0  0
    4.2211    4.1915   -3.3353 O   0  0  0  0  0  0  0  0  0  0  0  0
    6.4927    5.1029   -3.3378 C   0  0  2  0  0  0  0  0  0  0  0  0
    8.6769    6.3403   -3.4846 N   0  3  0  0  0  0  0  0  0  0  0  0
    0.8461    4.4802   -1.7875 C   0  0  0  0  0  0  0  0  0  0  0  0
   -0.3420    5.2948   -1.2198 C   0  0  2  0  0  0  0  0  0  0  0  0
   -1.4089    5.1870   -2.1612 O   0  0  0  0  0  0  0  0  0  0  0  0
    0.0935    6.7971   -1.0335 C   0  0  1  0  0  0  0  0  0  0  0  0
    0.8026    7.3875   -2.2995 C   0  0  2  0  0  0  0  0  0  0  0  0
    1.8626    6.4377   -2.9129 C   0  0  1  0  0  0  0  0  0  0  0  0
    3.1056    6.4982   -2.1652 O   0  0  0  0  0  0  0  0  0  0  0  0
    1.3522    5.0780   -3.0109 O   0  0  0  0  0  0  0  0  0  0  0  0
    1.4180    8.6412   -2.0152 O   0  0  0  0  0  0  0  0  0  0  0  0
   -1.0947    7.6256   -0.6595 N   0  3  0  0  0  0  0  0  0  0  0  0
   -0.8331    8.8805    0.0745 C   0  0  0  0  0  0  0  0  0  0  0  0
   -0.8179    4.6263    0.0935 C   0  0  0  0  0  0  0  0  0  0  0  0
  1  8  1  0  0  0  0
  1  9  1  1  0  0  0
  1  2  1  0  0  0  0
  2  3  1  0  0  0  0
  3  5  1  0  0  0  0
  3  4  1  6  0  0  0
  5  7  1  0  0  0  0
  5  6  1  6  0  0  0
  7  8  1  0  0  0  0
  9 10  1  0  0  0  0
 11 12  1  0  0  0  0
 11 18  1  0  0  0  0
 11 19  1  6  0  0  0
 12 13  1  0  0  0  0
 13 15  1  0  0  0  0
 13 14  1  6  0  0  0
 15 16  1  0  0  0  0
 15 26  1  1  0  0  0
 16 18  1  0  0  0  0
 16 17  1  6  0  0  0
 18  4  1  1  0  0  0
 20 21  1  0  0  0  0
 20 27  1  0  0  0  0
 21 31  1  1  0  0  0
 21 23  1  0  0  0  0
 21 22  1  0  0  0  0
 23 24  1  0  0  0  0
 23 29  1  6  0  0  0
 24 25  1  0  0  0  0
 24 28  1  1  0  0  0
 25 27  1  0  0  0  0
 25 26  1  1  0  0  0
 29 30  1  0  0  0  0
M  CHG  5   6   1  10   1  14   1  19   1  29   1
M  END
>  <CHROM.1>
-51.02726897,62.19935078,48.64372901,-61.21333671,-57.05713093,166.27987646
176.78908582,128.03688843,-55.43018008,-56.66728521,-83.19506144,-160.28213081
-137.20086876,4.06251578,5.26919688,-1.76333702,0.34060684,-0.23814544,2.66469156

>  <Name>
1byj cryst

>  <RI>
0

>  <Rbt.Current_Directory>
/home/itssahil/PROJECTS/Mol_Feturizer/New_Systems/rnas/1byj

>  <Rbt.Executable>
rbdock ($Id: //depot/dev/client3/rdock/2013.1/src/exe/rbdock.cxx#4 $)

>  <Rbt.Library>
libRbt.so (2013.1, Build901 2013/11/27)

>  <Rbt.Parameter_File>
/export/apps/rDock/src/rDock_2013.1_src/data/scripts/dock_solv.prm

>  <Rbt.Receptor>
prm/pocket_docking_2.prm

>  <SCORE>
-31.3184

>  <SCORE.INTER>
-25.2906

>  <SCORE.INTER.CONST>
1

>  <SCORE.INTER.POLAR>
-3.85872

>  <SCORE.INTER.ROT>
6

>  <SCORE.INTER.SOLV>
16.0885

>  <SCORE.INTER.VDW>
-16.9609

>  <SCORE.INTER.norm>
-0.815827

>  <SCORE.INTRA>
-6.23401

>  <SCORE.INTRA.DIHEDRAL>
-0.855444

>  <SCORE.INTRA.DIHEDRAL.0>
18.4149

>  <SCORE.INTRA.POLAR>
-0.927803

>  <SCORE.INTRA.POLAR.0>
0

>  <SCORE.INTRA.REPUL>
-0.092687

>  <SCORE.INTRA.REPUL.0>
0.092687

>  <SCORE.INTRA.SOLV>
0.180876

>  <SCORE.INTRA.SOLV.lig_0>
-120.37

>  <SCORE.INTRA.VDW>
-2.27876

>  <SCORE.INTRA.VDW.0>
-1.75542

>  <SCORE.INTRA.norm>
-0.201097

>  <SCORE.RESTR>
0.206301

>  <SCORE.RESTR.CAVITY>
0.206301

>  <SCORE.RESTR.norm>
0.00665488

>  <SCORE.SYSTEM>
0

>  <SCORE.SYSTEM.CONST>
0

>  <SCORE.SYSTEM.DIHEDRAL>
0

>  <SCORE.SYSTEM.SOLV>
0

>  <SCORE.SYSTEM.norm>
0

>  <SCORE.heavy>
31

>  <SCORE.norm>
-1.01027

>  <RMSD>
2.350

$$$$
1byj cryst
 OpenBabel11021811383D
libRbt.so/2013.1/901 2013/11/27
 31 33  0  0  0  0  0  0  0  0999 V2000
    9.4254    2.0504   -3.2827 C   0  0  1  0  0  0  0  0  0  0  0  0
    8.1818    2.5256   -3.8908 O   0  0  0  0  0  0  0  0  0  0  0  0
    7.3566    3.4719   -3.1477 C   0  0  2  0  0  0  0  0  0  0  0  0
    8.0155    4.7711   -3.0267 O   0  0  0  0  0  0  0  0  0  0  0  0
    7.0286    2.8780   -1.7441 C   0  0  2  0  0  0  0  0  0  0  0  0
    6.1932    3.7694   -0.9154 N   0  3  0  0  0  0  0  0  0  0  0  0
    8.3399    2.5191   -0.9986 C   0  0  0  0  0  0  0  0  0  0  0  0
    9.1995    1.5534   -1.8281 C   0  0  0  0  0  0  0  0  0  0  0  0
   10.0007    0.9004   -4.1282 C   0  0  0  0  0  0  0  0  0  0  0  0
   10.1645    1.2329   -5.5495 N   0  3  0  0  0  0  0  0  0  0  0  0
    8.3506    7.1672   -3.4925 C   0  0  1  0  0  0  0  0  0  0  0  0
    7.7018    8.4650   -4.0321 C   0  0  0  0  0  0  0  0  0  0  0  0
    6.3884    8.7757   -3.2652 C   0  0  1  0  0  0  0  0  0  0  0  0
    5.8225   10.0545   -3.7356 N   0  3  0  0  0  0  0  0  0  0  0  0
    5.3806    7.6008   -3.4247 C   0  0  1  0  0  0  0  0  0  0  0  0
    6.0062    6.2495   -2.9973 C   0  0  1  0  0  0  0  0  0  0  0  0
    5.0685    5.2409   -3.3432 O   0  0  0  0  0  0  0  0  0  0  0  0
    7.3943    5.9395   -3.6487 C   0  0  2  0  0  0  0  0  0  0  0  0
    9.6468    6.9367   -4.1545 N   0  3  0  0  0  0  0  0  0  0  0  0
    1.1753    7.4648   -2.6257 C   0  0  0  0  0  0  0  0  0  0  0  0
    0.6320    8.4759   -1.5864 C   0  0  2  0  0  0  0  0  0  0  0  0
   -0.2134    9.3841   -2.2909 O   0  0  0  0  0  0  0  0  0  0  0  0
    1.8371    9.2359   -0.9145 C   0  0  1  0  0  0  0  0  0  0  0  0
    2.8647    9.7921   -1.9579 C   0  0  2  0  0  0  0  0  0  0  0  0
    3.2298    8.7742   -3.0680 C   0  0  1  0  0  0  0  0  0  0  0  0
    4.2078    7.8145   -2.5883 O   0  0  0  0  0  0  0  0  0  0  0  0
    2.0386    8.1217   -3.5916 O   0  0  0  0  0  0  0  0  0  0  0  0
    4.0634   10.2325   -1.3252 O   0  0  0  0  0  0  0  0  0  0  0  0
    1.3188   10.3376   -0.0450 N   0  3  0  0  0  0  0  0  0  0  0  0
    1.1971   10.0516    1.3990 C   0  0  0  0  0  0  0  0  0  0  0  0
   -0.2556    7.7139   -0.5716 C   0  0  0  0  0  0  0  0  0  0  0  0
  1  8  1  0  0  0  0
  1  9  1  6  0  0  0
  1  2  1  0  0  0  0
  2  3  1  0  0  0  0
  3  5  1  0  0  0  0
  3  4  1  1  0  0  0
  5  7  1  0  0  0  0
  5  6  1  1  0  0  0
  7  8  1  0  0  0  0
  9 10  1  0  0  0  0
 11 12  1  0  0  0  0
 11 18  1  0  0  0  0
 11 19  1  6  0  0  0
 12 13  1  0  0  0  0
 13 15  1  0  0  0  0
 13 14  1  6  0  0  0
 15 16  1  0  0  0  0
 15 26  1  1  0  0  0
 16 18  1  0  0  0  0
 16 17  1  6  0  0  0
 18  4  1  1  0  0  0
 20 21  1  0  0  0  0
 20 27  1  0  0  0  0
 21 31  1  1  0  0  0
 21 23  1  0  0  0  0
 21 22  1  0  0  0  0
 23 24  1  0  0  0  0
 23 29  1  6  0  0  0
 24 25  1  0  0  0  0
 24 28  1  1  0  0  0
 25 27  1  0  0  0  0
 25 26  1  1  0  0  0
 29 30  1  0  0  0  0
M  CHG  5   6   1  10   1  14   1  19   1  29   1
M  END
>  <CHROM.1>
53.35563983,116.67823642,-174.79889032,160.89777850,-45.21508317,164.19466822
-39.72756755,77.06348819,72.68648451,-49.25605291,-141.59393621,-53.90027139
-130.08220334,5.40296794,6.46024101,-2.58741562,0.62331616,-0.45040114,2.89829880

>  <Name>
1byj cryst

>  <RI>
0

>  <Rbt.Current_Directory>
/home/itssahil/PROJECTS/Mol_Feturizer/New_Systems/rnas/1byj

>  <Rbt.Executable>
rbdock ($Id: //depot/dev/client3/rdock/2013.1/src/exe/rbdock.cxx#4 $)

>  <Rbt.Library>
libRbt.so (2013.1, Build901 2013/11/27)

>  <Rbt.Parameter_File>
/export/apps/rDock/src/rDock_2013.1_src/data/scripts/dock_solv.prm

>  <Rbt.Receptor>
prm/pocket_docking_6.prm

>  <SCORE>
-49.9313

>  <SCORE.INTER>
-43.4941

>  <SCORE.INTER.CONST>
1

>  <SCORE.INTER.POLAR>
-6.63676

>  <SCORE.INTER.ROT>
6

>  <SCORE.INTER.SOLV>
28.6336

>  <SCORE.INTER.VDW>
-24.0181

>  <SCORE.INTER.norm>
-1.40304

>  <SCORE.INTRA>
-6.43723

>  <SCORE.INTRA.DIHEDRAL>
4.16664

>  <SCORE.INTRA.DIHEDRAL.0>
18.4149

>  <SCORE.INTRA.POLAR>
-2.23351

>  <SCORE.INTRA.POLAR.0>
0

>  <SCORE.INTRA.REPUL>
-0.092687

>  <SCORE.INTRA.REPUL.0>
0.092687

>  <SCORE.INTRA.SOLV>
1.42127

>  <SCORE.INTRA.SOLV.lig_0>
-120.37

>  <SCORE.INTRA.VDW>
-1.1738

>  <SCORE.INTRA.VDW.0>
-1.75542

>  <SCORE.INTRA.norm>
-0.207653

>  <SCORE.RESTR>
0

>  <SCORE.RESTR.CAVITY>
0

>  <SCORE.RESTR.norm>
0

>  <SCORE.SYSTEM>
0

>  <SCORE.SYSTEM.CONST>
0

>  <SCORE.SYSTEM.DIHEDRAL>
0

>  <SCORE.SYSTEM.SOLV>
0

>  <SCORE.SYSTEM.norm>
0

>  <SCORE.heavy>
31

>  <SCORE.norm>
-1.61069

>  <RMSD>
2.399

$$$$
1byj cryst
 OpenBabel11021811383D
libRbt.so/2013.1/901 2013/11/27
 31 33  0  0  0  0  0  0  0  0999 V2000
    9.2596    1.5720   -3.1474 C   0  0  1  0  0  0  0  0  0  0  0  0
    7.8730    1.7932   -3.5603 O   0  0  0  0  0  0  0  0  0  0  0  0
    6.9631    2.4541   -2.6309 C   0  0  2  0  0  0  0  0  0  0  0  0
    7.3276    3.8563   -2.4366 O   0  0  0  0  0  0  0  0  0  0  0  0
    6.9616    1.6836   -1.2756 C   0  0  2  0  0  0  0  0  0  0  0  0
    6.0653    2.2817   -0.2667 N   0  3  0  0  0  0  0  0  0  0  0  0
    8.4059    1.5793   -0.7213 C   0  0  0  0  0  0  0  0  0  0  0  0
    9.3420    0.9149   -1.7420 C   0  0  0  0  0  0  0  0  0  0  0  0
    9.9597    0.6641   -4.1739 C   0  0  0  0  0  0  0  0  0  0  0  0
   10.0647    1.2545   -5.5147 N   0  3  0  0  0  0  0  0  0  0  0  0
    7.2422    6.2808   -2.8669 C   0  0  1  0  0  0  0  0  0  0  0  0
    6.4964    7.4206   -3.6024 C   0  0  0  0  0  0  0  0  0  0  0  0
    4.9888    7.4113   -3.2323 C   0  0  1  0  0  0  0  0  0  0  0  0
    4.3060    8.5485   -3.8782 N   0  3  0  0  0  0  0  0  0  0  0  0
    4.3462    6.0493   -3.6243 C   0  0  1  0  0  0  0  0  0  0  0  0
    5.1126    4.8557   -3.0013 C   0  0  1  0  0  0  0  0  0  0  0  0
    4.5500    3.6771   -3.5584 O   0  0  0  0  0  0  0  0  0  0  0  0
    6.6586    4.8785   -3.2399 C   0  0  2  0  0  0  0  0  0  0  0  0
    8.6873    6.3612   -3.1432 N   0  3  0  0  0  0  0  0  0  0  0  0
    2.1095    7.9516   -0.9863 C   0  0  0  0  0  0  0  0  0  0  0  0
    0.6947    7.4954   -0.5530 C   0  0  2  0  0  0  0  0  0  0  0  0
    0.7698    7.1639    0.8328 O   0  0  0  0  0  0  0  0  0  0  0  0
    0.2624    6.2447   -1.4075 C   0  0  1  0  0  0  0  0  0  0  0  0
    1.3663    5.1347   -1.4648 C   0  0  2  0  0  0  0  0  0  0  0  0
    2.7876    5.6906   -1.7343 C   0  0  1  0  0  0  0  0  0  0  0  0
    2.9728    5.9742   -3.1460 O   0  0  0  0  0  0  0  0  0  0  0  0
    3.0594    6.8557   -0.9051 O   0  0  0  0  0  0  0  0  0  0  0  0
    1.0637    4.1489   -2.4486 O   0  0  0  0  0  0  0  0  0  0  0  0
   -1.0198    5.6871   -0.8751 N   0  3  0  0  0  0  0  0  0  0  0  0
   -2.1907    5.7205   -1.7750 C   0  0  0  0  0  0  0  0  0  0  0  0
   -0.2750    8.6954   -0.6872 C   0  0  0  0  0  0  0  0  0  0  0  0
  1  8  1  0  0  0  0
  1  9  1  6  0  0  0
  1  2  1  0  0  0  0
  2  3  1  0  0  0  0
  3  5  1  0  0  0  0
  3  4  1  1  0  0  0
  5  7  1  0  0  0  0
  5  6  1  1  0  0  0
  7  8  1  0  0  0  0
  9 10  1  0  0  0  0
 11 12  1  0  0  0  0
 11 18  1  0  0  0  0
 11 19  1  6  0  0  0
 12 13  1  0  0  0  0
 13 15  1  0  0  0  0
 13 14  1  6  0  0  0
 15 16  1  0  0  0  0
 15 26  1  1  0  0  0
 16 18  1  0  0  0  0
 16 17  1  6  0  0  0
 18  4  1  1  0  0  0
 20 21  1  0  0  0  0
 20 27  1  0  0  0  0
 21 31  1  6  0  0  0
 21 23  1  0  0  0  0
 21 22  1  0  0  0  0
 23 24  1  0  0  0  0
 23 29  1  1  0  0  0
 24 25  1  0  0  0  0
 24 28  1  6  0  0  0
 25 27  1  0  0  0  0
 25 26  1  6  0  0  0
 29 30  1  0  0  0  0
M  CHG  5   6   1  10   1  14   1  19   1  29   1
M  END
>  <CHROM.1>
63.51706596,95.36675553,-178.84411792,69.53589114,-168.80220206,61.72652710
-179.86158991,-77.59683306,-62.95807763,-60.76103886,-122.24285197,-172.28364907
-159.23446948,4.70140552,4.84516434,-2.28983916,0.42564914,-0.36261412,2.87033245

>  <Name>
1byj cryst

>  <RI>
0

>  <Rbt.Current_Directory>
/home/itssahil/PROJECTS/Mol_Feturizer/New_Systems/rnas/1byj

>  <Rbt.Executable>
rbdock ($Id: //depot/dev/client3/rdock/2013.1/src/exe/rbdock.cxx#4 $)

>  <Rbt.Library>
libRbt.so (2013.1, Build901 2013/11/27)

>  <Rbt.Parameter_File>
/export/apps/rDock/src/rDock_2013.1_src/data/scripts/dock_solv.prm

>  <Rbt.Receptor>
prm/pocket_docking_6.prm

>  <SCORE>
-53.1545

>  <SCORE.INTER>
-47.6754

>  <SCORE.INTER.CONST>
1

>  <SCORE.INTER.POLAR>
-6.83874

>  <SCORE.INTER.ROT>
6

>  <SCORE.INTER.SOLV>
26.2416

>  <SCORE.INTER.VDW>
-25.335

>  <SCORE.INTER.norm>
-1.53792

>  <SCORE.INTRA>
-5.47905

>  <SCORE.INTRA.DIHEDRAL>
-5.70617

>  <SCORE.INTRA.DIHEDRAL.0>
18.4149

>  <SCORE.INTRA.POLAR>
-0.00523048

>  <SCORE.INTRA.POLAR.0>
0

>  <SCORE.INTRA.REPUL>
-0.092687

>  <SCORE.INTRA.REPUL.0>
0.092687

>  <SCORE.INTRA.SOLV>
-2.88386

>  <SCORE.INTRA.SOLV.lig_0>
-120.37

>  <SCORE.INTRA.VDW>
-0.702814

>  <SCORE.INTRA.VDW.0>
-1.75542

>  <SCORE.INTRA.norm>
-0.176744

>  <SCORE.RESTR>
0

>  <SCORE.RESTR.CAVITY>
0

>  <SCORE.RESTR.norm>
0

>  <SCORE.SYSTEM>
0

>  <SCORE.SYSTEM.CONST>
0

>  <SCORE.SYSTEM.DIHEDRAL>
0

>  <SCORE.SYSTEM.SOLV>
0

>  <SCORE.SYSTEM.norm>
0

>  <SCORE.heavy>
31

>  <SCORE.norm>
-1.71466

>  <RMSD>
2.405

$$$$
1byj cryst
 OpenBabel11021811383D
libRbt.so/2013.1/901 2013/11/27
 31 33  0  0  0  0  0  0  0  0999 V2000
    9.2502    1.6693   -3.9493 C   0  0  1  0  0  0  0  0  0  0  0  0
    7.8019    1.8086   -3.7911 O   0  0  0  0  0  0  0  0  0  0  0  0
    7.2857    2.3937   -2.5584 C   0  0  2  0  0  0  0  0  0  0  0  0
    7.6229    3.8128   -2.4616 O   0  0  0  0  0  0  0  0  0  0  0  0
    7.8453    1.6013   -1.3381 C   0  0  2  0  0  0  0  0  0  0  0  0
    7.3755    2.1232   -0.0397 N   0  3  0  0  0  0  0  0  0  0  0  0
    9.3950    1.5799   -1.3830 C   0  0  0  0  0  0  0  0  0  0  0  0
    9.9005    0.9945   -2.7101 C   0  0  0  0  0  0  0  0  0  0  0  0
    9.5487    0.8260   -5.2014 C   0  0  0  0  0  0  0  0  0  0  0  0
   10.9744    0.7635   -5.5492 N   0  3  0  0  0  0  0  0  0  0  0  0
    7.9360    5.6844   -4.0331 C   0  0  1  0  0  0  0  0  0  0  0  0
    7.2330    6.7948   -4.8512 C   0  0  0  0  0  0  0  0  0  0  0  0
    6.3703    7.6908   -3.9222 C   0  0  1  0  0  0  0  0  0  0  0  0
    5.7691    8.7900   -4.7014 N   0  3  0  0  0  0  0  0  0  0  0  0
    5.2915    6.8345   -3.1979 C   0  0  1  0  0  0  0  0  0  0  0  0
    5.9239    5.6394   -2.4416 C   0  0  1  0  0  0  0  0  0  0  0  0
    4.8475    4.8426   -1.9697 O   0  0  0  0  0  0  0  0  0  0  0  0
    6.9013    4.7696   -3.2992 C   0  0  2  0  0  0  0  0  0  0  0  0
    8.8318    4.9042   -4.9050 N   0  3  0  0  0  0  0  0  0  0  0  0
    1.8221    6.8550   -3.2718 C   0  0  0  0  0  0  0  0  0  0  0  0
    0.8122    7.4077   -2.2362 C   0  0  2  0  0  0  0  0  0  0  0  0
   -0.0156    8.3466   -2.9213 O   0  0  0  0  0  0  0  0  0  0  0  0
    1.5954    8.1027   -1.0593 C   0  0  1  0  0  0  0  0  0  0  0  0
    2.6939    9.0994   -1.5632 C   0  0  2  0  0  0  0  0  0  0  0  0
    3.5560    8.5346   -2.7207 C   0  0  1  0  0  0  0  0  0  0  0  0
    4.5772    7.6358   -2.2138 O   0  0  0  0  0  0  0  0  0  0  0  0
    2.7232    7.8978   -3.7305 O   0  0  0  0  0  0  0  0  0  0  0  0
    3.5558    9.5047   -0.5031 O   0  0  0  0  0  0  0  0  0  0  0  0
    0.6307    8.7960   -0.1498 N   0  3  0  0  0  0  0  0  0  0  0  0
    1.0821    9.0587    1.2319 C   0  0  0  0  0  0  0  0  0  0  0  0
   -0.0995    6.2475   -1.7660 C   0  0  0  0  0  0  0  0  0  0  0  0
  1  8  1  0  0  0  0
  1  9  1  6  0  0  0
  1  2  1  0  0  0  0
  2  3  1  0  0  0  0
  3  5  1  0  0  0  0
  3  4  1  1  0  0  0
  5  7  1  0  0  0  0
  5  6  1  1  0  0  0
  7  8  1  0  0  0  0
  9 10  1  0  0  0  0
 11 12  1  0  0  0  0
 11 18  1  0  0  0  0
 11 19  1  6  0  0  0
 12 13  1  0  0  0  0
 13 15  1  0  0  0  0
 13 14  1  6  0  0  0
 15 16  1  0  0  0  0
 15 26  1  1  0  0  0
 16 18  1  0  0  0  0
 16 17  1  6  0  0  0
 18  4  1  1  0  0  0
 20 21  1  0  0  0  0
 20 27  1  0  0  0  0
 21 31  1  1  0  0  0
 21 23  1  0  0  0  0
 21 22  1  0  0  0  0
 23 24  1  0  0  0  0
 23 29  1  1  0  0  0
 24 25  1  0  0  0  0
 24 28  1  1  0  0  0
 25 27  1  0  0  0  0
 25 26  1  1  0  0  0
 29 30  1  0  0  0  0
M  CHG  5   6   1  10   1  14   1  19   1  29   1
M  END
>  <CHROM.1>
172.78716540,74.14828620,-130.00812386,64.15504847,61.99557974,37.54254232
-161.35060843,78.00443647,60.89284659,173.70249960,-81.24275150,176.69389605
168.51308143,5.44359757,5.53213801,-2.68437561,0.39030038,-0.63640087,2.46695057

>  <Name>
1byj cryst

>  <RI>
0

>  <Rbt.Current_Directory>
/home/itssahil/PROJECTS/Mol_Feturizer/New_Systems/rnas/1byj

>  <Rbt.Executable>
rbdock ($Id: //depot/dev/client3/rdock/2013.1/src/exe/rbdock.cxx#4 $)

>  <Rbt.Library>
libRbt.so (2013.1, Build901 2013/11/27)

>  <Rbt.Parameter_File>
/export/apps/rDock/src/rDock_2013.1_src/data/scripts/dock_solv.prm

>  <Rbt.Receptor>
prm/pocket_docking_4.prm

>  <SCORE>
-57.3049

>  <SCORE.INTER>
-53.0843

>  <SCORE.INTER.CONST>
1

>  <SCORE.INTER.POLAR>
-7.25238

>  <SCORE.INTER.ROT>
6

>  <SCORE.INTER.SOLV>
28.8039

>  <SCORE.INTER.VDW>
-28.4162

>  <SCORE.INTER.norm>
-1.7124

>  <SCORE.INTRA>
-4.22058

>  <SCORE.INTRA.DIHEDRAL>
-4.84856

>  <SCORE.INTRA.DIHEDRAL.0>
18.4149

>  <SCORE.INTRA.POLAR>
0

>  <SCORE.INTRA.POLAR.0>
0

>  <SCORE.INTRA.REPUL>
-0.092687

>  <SCORE.INTRA.REPUL.0>
0.092687

>  <SCORE.INTRA.SOLV>
-0.130804

>  <SCORE.INTRA.SOLV.lig_0>
-120.37

>  <SCORE.INTRA.VDW>
-1.26746

>  <SCORE.INTRA.VDW.0>
-1.75542

>  <SCORE.INTRA.norm>
-0.136148

>  <SCORE.RESTR>
0

>  <SCORE.RESTR.CAVITY>
0

>  <SCORE.RESTR.norm>
0

>  <SCORE.SYSTEM>
0

>  <SCORE.SYSTEM.CONST>
0

>  <SCORE.SYSTEM.DIHEDRAL>
0

>  <SCORE.SYSTEM.SOLV>
0

>  <SCORE.SYSTEM.norm>
0

>  <SCORE.heavy>
31

>  <SCORE.norm>
-1.84855

>  <RMSD>
2.413

$$$$
1byj cryst
 OpenBabel11021811383D
libRbt.so/2013.1/901 2013/11/27
 31 33  0  0  0  0  0  0  0  0999 V2000
    5.7750    2.1100   -0.5789 C   0  0  1  0  0  0  0  0  0  0  0  0
    6.3395    3.4279   -0.8734 O   0  0  0  0  0  0  0  0  0  0  0  0
    7.2706    3.5568   -1.9892 C   0  0  2  0  0  0  0  0  0  0  0  0
    6.5973    3.3499   -3.2701 O   0  0  0  0  0  0  0  0  0  0  0  0
    8.4415    2.5446   -1.8028 C   0  0  2  0  0  0  0  0  0  0  0  0
    9.4393    2.6018   -2.8892 N   0  3  0  0  0  0  0  0  0  0  0  0
    7.8828    1.1056   -1.6576 C   0  0  0  0  0  0  0  0  0  0  0  0
    6.8775    1.0183   -0.4994 C   0  0  0  0  0  0  0  0  0  0  0  0
    5.0186    2.1658    0.7600 C   0  0  0  0  0  0  0  0  0  0  0  0
    4.4085    0.8882    1.1510 N   0  3  0  0  0  0  0  0  0  0  0  0
    7.0268    5.6684   -3.9847 C   0  0  1  0  0  0  0  0  0  0  0  0
    6.4079    6.9536   -4.5862 C   0  0  0  0  0  0  0  0  0  0  0  0
    5.1897    7.4164   -3.7426 C   0  0  1  0  0  0  0  0  0  0  0  0
    4.6583    8.6833   -4.2808 N   0  3  0  0  0  0  0  0  0  0  0  0
    4.1052    6.3010   -3.7052 C   0  0  1  0  0  0  0  0  0  0  0  0
    4.6878    4.9543   -3.2081 C   0  0  1  0  0  0  0  0  0  0  0  0
    3.6659    3.9831   -3.3771 O   0  0  0  0  0  0  0  0  0  0  0  0
    5.9909    4.4974   -3.9434 C   0  0  2  0  0  0  0  0  0  0  0  0
    8.2420    5.2956   -4.7302 N   0  3  0  0  0  0  0  0  0  0  0  0
    0.8215    4.6708   -2.1036 C   0  0  0  0  0  0  0  0  0  0  0  0
   -0.2462    5.4890   -1.3367 C   0  0  2  0  0  0  0  0  0  0  0  0
   -1.4513    5.4185   -2.0976 O   0  0  0  0  0  0  0  0  0  0  0  0
    0.2403    6.9802   -1.1915 C   0  0  1  0  0  0  0  0  0  0  0  0
    0.7490    7.5895   -2.5420 C   0  0  2  0  0  0  0  0  0  0  0  0
    1.6805    6.6391   -3.3363 C   0  0  1  0  0  0  0  0  0  0  0  0
    3.0276    6.6643   -2.7957 O   0  0  0  0  0  0  0  0  0  0  0  0
    1.1367    5.2895   -3.3795 O   0  0  0  0  0  0  0  0  0  0  0  0
    1.4241    8.8273   -2.3339 O   0  0  0  0  0  0  0  0  0  0  0  0
   -0.8582    7.8168   -0.6154 N   0  3  0  0  0  0  0  0  0  0  0  0
   -0.4597    8.9284    0.2720 C   0  0  0  0  0  0  0  0  0  0  0  0
   -0.5185    4.7971    0.0217 C   0  0  0  0  0  0  0  0  0  0  0  0
  1  8  1  0  0  0  0
  1  9  1  1  0  0  0
  1  2  1  0  0  0  0
  2  3  1  0  0  0  0
  3  5  1  0  0  0  0
  3  4  1  6  0  0  0
  5  7  1  0  0  0  0
  5  6  1  6  0  0  0
  7  8  1  0  0  0  0
  9 10  1  0  0  0  0
 11 12  1  0  0  0  0
 11 18  1  0  0  0  0
 11 19  1  6  0  0  0
 12 13  1  0  0  0  0
 13 15  1  0  0  0  0
 13 14  1  6  0  0  0
 15 16  1  0  0  0  0
 15 26  1  1  0  0  0
 16 18  1  0  0  0  0
 16 17  1  6  0  0  0
 18  4  1  1  0  0  0
 20 21  1  0  0  0  0
 20 27  1  0  0  0  0
 21 31  1  1  0  0  0
 21 23  1  0  0  0  0
 21 22  1  0  0  0  0
 23 24  1  0  0  0  0
 23 29  1  6  0  0  0
 24 25  1  0  0  0  0
 24 28  1  1  0  0  0
 25 27  1  0  0  0  0
 25 26  1  1  0  0  0
 29 30  1  0  0  0  0
M  CHG  5   6   1  10   1  14   1  19   1  29   1
M  END
>  <CHROM.1>
179.93113498,88.66935216,48.81647714,-45.46461094,-148.87086035,-104.34696759
76.18309430,126.04309092,-177.20735000,62.19978926,-92.63404064,64.57808467
-155.21384729,3.97043106,5.02444165,-2.21646667,0.36657299,-0.37290595,2.51666730

>  <Name>
1byj cryst

>  <RI>
0

>  <Rbt.Current_Directory>
/home/itssahil/PROJECTS/Mol_Feturizer/New_Systems/rnas/1byj

>  <Rbt.Executable>
rbdock ($Id: //depot/dev/client3/rdock/2013.1/src/exe/rbdock.cxx#4 $)

>  <Rbt.Library>
libRbt.so (2013.1, Build901 2013/11/27)

>  <Rbt.Parameter_File>
/export/apps/rDock/src/rDock_2013.1_src/data/scripts/dock_solv.prm

>  <Rbt.Receptor>
prm/pocket_docking_3.prm

>  <SCORE>
-49.9106

>  <SCORE.INTER>
-51.3047

>  <SCORE.INTER.CONST>
1

>  <SCORE.INTER.POLAR>
-8.36554

>  <SCORE.INTER.ROT>
6

>  <SCORE.INTER.SOLV>
23.1577

>  <SCORE.INTER.VDW>
-21.6372

>  <SCORE.INTER.norm>
-1.65499

>  <SCORE.INTRA>
1.37255

>  <SCORE.INTRA.DIHEDRAL>
3.793

>  <SCORE.INTRA.DIHEDRAL.0>
18.4149

>  <SCORE.INTRA.POLAR>
-0.00797017

>  <SCORE.INTRA.POLAR.0>
0

>  <SCORE.INTRA.REPUL>
-0.092687

>  <SCORE.INTRA.REPUL.0>
0.092687

>  <SCORE.INTRA.SOLV>
1.26443

>  <SCORE.INTRA.SOLV.lig_0>
-120.37

>  <SCORE.INTRA.VDW>
-0.665632

>  <SCORE.INTRA.VDW.0>
-1.75542

>  <SCORE.INTRA.norm>
0.0442758

>  <SCORE.RESTR>
0.021641

>  <SCORE.RESTR.CAVITY>
0.021641

>  <SCORE.RESTR.norm>
0.000698097

>  <SCORE.SYSTEM>
0

>  <SCORE.SYSTEM.CONST>
0

>  <SCORE.SYSTEM.DIHEDRAL>
0

>  <SCORE.SYSTEM.SOLV>
0

>  <SCORE.SYSTEM.norm>
0

>  <SCORE.heavy>
31

>  <SCORE.norm>
-1.61002

>  <RMSD>
2.422

$$$$
1byj cryst
 OpenBabel11021811383D
libRbt.so/2013.1/901 2013/11/27
 31 33  0  0  0  0  0  0  0  0999 V2000
    5.1878    2.6831   -0.1354 C   0  0  1  0  0  0  0  0  0  0  0  0
    6.0929    3.8188   -0.3169 O   0  0  0  0  0  0  0  0  0  0  0  0
    7.2936    3.6345   -1.1250 C   0  0  2  0  0  0  0  0  0  0  0  0
    6.9603    3.4323   -2.5339 O   0  0  0  0  0  0  0  0  0  0  0  0
    8.1116    2.4311   -0.5654 C   0  0  2  0  0  0  0  0  0  0  0  0
    9.3506    2.1666   -1.3231 N   0  3  0  0  0  0  0  0  0  0  0  0
    7.2246    1.1602   -0.5195 C   0  0  0  0  0  0  0  0  0  0  0  0
    5.9525    1.4047    0.3060 C   0  0  0  0  0  0  0  0  0  0  0  0
    4.1325    3.0356    0.9277 C   0  0  0  0  0  0  0  0  0  0  0  0
    4.6949    3.6239    2.1503 N   0  3  0  0  0  0  0  0  0  0  0  0
    7.2386    5.7826   -3.2189 C   0  0  1  0  0  0  0  0  0  0  0  0
    6.5640    7.0054   -3.8870 C   0  0  0  0  0  0  0  0  0  0  0  0
    5.2307    7.3495   -3.1704 C   0  0  1  0  0  0  0  0  0  0  0  0
    4.6383    8.5621   -3.7668 N   0  3  0  0  0  0  0  0  0  0  0  0
    4.2573    6.1369   -3.2319 C   0  0  1  0  0  0  0  0  0  0  0  0
    4.9119    4.8498   -2.6707 C   0  0  1  0  0  0  0  0  0  0  0  0
    4.0072    3.7873   -2.9325 O   0  0  0  0  0  0  0  0  0  0  0  0
    6.3181    4.5193   -3.2714 C   0  0  2  0  0  0  0  0  0  0  0  0
    8.5508    5.5276   -3.8389 N   0  3  0  0  0  0  0  0  0  0  0  0
    0.6073    4.5856   -2.4415 C   0  0  0  0  0  0  0  0  0  0  0  0
   -0.4944    5.3862   -1.7047 C   0  0  2  0  0  0  0  0  0  0  0  0
   -1.5597    5.5814   -2.6337 O   0  0  0  0  0  0  0  0  0  0  0  0
    0.0929    6.7670   -1.2250 C   0  0  1  0  0  0  0  0  0  0  0  0
    0.8685    7.5251   -2.3553 C   0  0  2  0  0  0  0  0  0  0  0  0
    1.8290    6.6152   -3.1623 C   0  0  1  0  0  0  0  0  0  0  0  0
    3.0661    6.3952   -2.4350 O   0  0  0  0  0  0  0  0  0  0  0  0
    1.1814    5.3632   -3.5258 O   0  0  0  0  0  0  0  0  0  0  0  0
    1.6082    8.6254   -1.8322 O   0  0  0  0  0  0  0  0  0  0  0  0
   -1.0060    7.6204   -0.6750 N   0  3  0  0  0  0  0  0  0  0  0  0
   -0.6067    8.7779    0.1513 C   0  0  0  0  0  0  0  0  0  0  0  0
   -1.0464    4.5185   -0.5470 C   0  0  0  0  0  0  0  0  0  0  0  0
  1  8  1  0  0  0  0
  1  9  1  1  0  0  0
  1  2  1  0  0  0  0
  2  3  1  0  0  0  0
  3  5  1  0  0  0  0
  3  4  1  6  0  0  0
  5  7  1  0  0  0  0
  5  6  1  6  0  0  0
  7  8  1  0  0  0  0
  9 10  1  0  0  0  0
 11 12  1  0  0  0  0
 11 18  1  0  0  0  0
 11 19  1  6  0  0  0
 12 13  1  0  0  0  0
 13 15  1  0  0  0  0
 13 14  1  6  0  0  0
 15 16  1  0  0  0  0
 15 26  1  1  0  0  0
 16 18  1  0  0  0  0
 16 17  1  6  0  0  0
 18  4  1  1  0  0  0
 20 21  1  0  0  0  0
 20 27  1  0  0  0  0
 21 31  1  1  0  0  0
 21 23  1  0  0  0  0
 21 22  1  0  0  0  0
 23 24  1  0  0  0  0
 23 29  1  6  0  0  0
 24 25  1  0  0  0  0
 24 28  1  1  0  0  0
 25 27  1  0  0  0  0
 25 26  1  1  0  0  0
 29 30  1  0  0  0  0
M  CHG  5   6   1  10   1  14   1  19   1  29   1
M  END
>  <CHROM.1>
-47.88462116,64.44049957,58.26444595,57.63408459,-62.84874126,-85.53385284
-54.03734571,109.30951561,-64.52901262,-179.14887557,-75.31419514,-168.23407998
-151.84511559,3.90213992,5.14175096,-1.78831944,0.36079980,-0.26739203,2.45419809

>  <Name>
1byj cryst

>  <RI>
0

>  <Rbt.Current_Directory>
/home/itssahil/PROJECTS/Mol_Feturizer/New_Systems/rnas/1byj

>  <Rbt.Executable>
rbdock ($Id: //depot/dev/client3/rdock/2013.1/src/exe/rbdock.cxx#4 $)

>  <Rbt.Library>
libRbt.so (2013.1, Build901 2013/11/27)

>  <Rbt.Parameter_File>
/export/apps/rDock/src/rDock_2013.1_src/data/scripts/dock_solv.prm

>  <Rbt.Receptor>
prm/pocket_docking_2.prm

>  <SCORE>
-39.9465

>  <SCORE.INTER>
-35.6218

>  <SCORE.INTER.CONST>
1

>  <SCORE.INTER.POLAR>
-5.05195

>  <SCORE.INTER.ROT>
6

>  <SCORE.INTER.SOLV>
16.9015

>  <SCORE.INTER.VDW>
-20.1419

>  <SCORE.INTER.norm>
-1.14909

>  <SCORE.INTRA>
-4.59869

>  <SCORE.INTRA.DIHEDRAL>
-4.69772

>  <SCORE.INTRA.DIHEDRAL.0>
18.4149

>  <SCORE.INTRA.POLAR>
-0.00153729

>  <SCORE.INTRA.POLAR.0>
0

>  <SCORE.INTRA.REPUL>
-0.092687

>  <SCORE.INTRA.REPUL.0>
0.092687

>  <SCORE.INTRA.SOLV>
0.415302

>  <SCORE.INTRA.SOLV.lig_0>
-120.37

>  <SCORE.INTRA.VDW>
-1.98882

>  <SCORE.INTRA.VDW.0>
-1.75542

>  <SCORE.INTRA.norm>
-0.148345

>  <SCORE.RESTR>
0.274075

>  <SCORE.RESTR.CAVITY>
0.274075

>  <SCORE.RESTR.norm>
0.00884113

>  <SCORE.SYSTEM>
0

>  <SCORE.SYSTEM.CONST>
0

>  <SCORE.SYSTEM.DIHEDRAL>
0

>  <SCORE.SYSTEM.SOLV>
0

>  <SCORE.SYSTEM.norm>
0

>  <SCORE.heavy>
31

>  <SCORE.norm>
-1.2886

>  <RMSD>
2.435

$$$$
1byj cryst
 OpenBabel11021811383D
libRbt.so/2013.1/901 2013/11/27
 31 33  0  0  0  0  0  0  0  0999 V2000
    5.4806    3.2054   -0.4262 C   0  0  1  0  0  0  0  0  0  0  0  0
    6.4114    4.2909   -0.7381 O   0  0  0  0  0  0  0  0  0  0  0  0
    7.4559    4.0540   -1.7289 C   0  0  2  0  0  0  0  0  0  0  0  0
    6.8922    3.8984   -3.0687 O   0  0  0  0  0  0  0  0  0  0  0  0
    8.2792    2.7953   -1.3188 C   0  0  2  0  0  0  0  0  0  0  0  0
    9.3646    2.4752   -2.2667 N   0  3  0  0  0  0  0  0  0  0  0  0
    7.3367    1.5765   -1.1450 C   0  0  0  0  0  0  0  0  0  0  0  0
    6.2282    1.8772   -0.1250 C   0  0  0  0  0  0  0  0  0  0  0  0
    4.6298    3.5969    0.7949 C   0  0  0  0  0  0  0  0  0  0  0  0
    3.9095    2.4704    1.4026 N   0  3  0  0  0  0  0  0  0  0  0  0
    7.1596    6.2899   -3.5975 C   0  0  1  0  0  0  0  0  0  0  0  0
    6.4643    7.5623   -4.1398 C   0  0  0  0  0  0  0  0  0  0  0  0
    5.1741    7.8634   -3.3307 C   0  0  1  0  0  0  0  0  0  0  0  0
    4.5645    9.1198   -3.8066 N   0  3  0  0  0  0  0  0  0  0  0  0
    4.1858    6.6652   -3.4272 C   0  0  1  0  0  0  0  0  0  0  0  0
    4.8549    5.3365   -2.9951 C   0  0  1  0  0  0  0  0  0  0  0  0
    3.9263    4.3019   -3.2839 O   0  0  0  0  0  0  0  0  0  0  0  0
    6.2241    5.0402   -3.6915 C   0  0  2  0  0  0  0  0  0  0  0  0
    8.4348    6.0710   -4.3028 N   0  3  0  0  0  0  0  0  0  0  0  0
    0.6846    4.9381   -2.4039 C   0  0  0  0  0  0  0  0  0  0  0  0
   -0.4055    5.6787   -1.5910 C   0  0  2  0  0  0  0  0  0  0  0  0
   -1.5393    5.8195   -2.4459 O   0  0  0  0  0  0  0  0  0  0  0  0
    0.1398    7.0874   -1.1444 C   0  0  1  0  0  0  0  0  0  0  0  0
    0.7976    7.8871   -2.3199 C   0  0  2  0  0  0  0  0  0  0  0  0
    1.7480    7.0300   -3.1940 C   0  0  1  0  0  0  0  0  0  0  0  0
    3.0407    6.8737   -2.5520 O   0  0  0  0  0  0  0  0  0  0  0  0
    1.1436    5.7465   -3.5200 O   0  0  0  0  0  0  0  0  0  0  0  0
    1.5123    9.0236   -1.8416 O   0  0  0  0  0  0  0  0  0  0  0  0
   -0.9628    7.8813   -0.5179 N   0  3  0  0  0  0  0  0  0  0  0  0
   -0.5675    8.9957    0.3674 C   0  0  0  0  0  0  0  0  0  0  0  0
   -0.8330    4.7813   -0.4036 C   0  0  0  0  0  0  0  0  0  0  0  0
  1  8  1  0  0  0  0
  1  9  1  1  0  0  0
  1  2  1  0  0  0  0
  2  3  1  0  0  0  0
  3  5  1  0  0  0  0
  3  4  1  6  0  0  0
  5  7  1  0  0  0  0
  5  6  1  6  0  0  0
  7  8  1  0  0  0  0
  9 10  1  0  0  0  0
 11 12  1  0  0  0  0
 11 18  1  0  0  0  0
 11 19  1  6  0  0  0
 12 13  1  0  0  0  0
 13 15  1  0  0  0  0
 13 14  1  6  0  0  0
 15 16  1  0  0  0  0
 15 26  1  1  0  0  0
 16 18  1  0  0  0  0
 16 17  1  6  0  0  0
 18  4  1  1  0  0  0
 20 21  1  0  0  0  0
 20 27  1  0  0  0  0
 21 31  1  1  0  0  0
 21 23  1  0  0  0  0
 21 22  1  0  0  0  0
 23 24  1  0  0  0  0
 23 29  1  6  0  0  0
 24 25  1  0  0  0  0
 24 28  1  1  0  0  0
 25 27  1  0  0  0  0
 25 26  1  1  0  0  0
 29 30  1  0  0  0  0
M  CHG  5   6   1  10   1  14   1  19   1  29   1
M  END
>  <CHROM.1>
-165.35688653,65.32183360,50.37693538,64.82470828,-41.13462492,-37.57838061
61.31065696,114.88579777,-67.17205824,-177.94545348,-79.74586711,71.01974167
-152.48285226,3.90923737,5.50079330,-2.02286021,0.31345434,-0.30798134,2.52738536

>  <Name>
1byj cryst

>  <RI>
0

>  <Rbt.Current_Directory>
/home/itssahil/PROJECTS/Mol_Feturizer/New_Systems/rnas/1byj

>  <Rbt.Executable>
rbdock ($Id: //depot/dev/client3/rdock/2013.1/src/exe/rbdock.cxx#4 $)

>  <Rbt.Library>
libRbt.so (2013.1, Build901 2013/11/27)

>  <Rbt.Parameter_File>
/export/apps/rDock/src/rDock_2013.1_src/data/scripts/dock_solv.prm

>  <Rbt.Receptor>
prm/pocket_docking_2.prm

>  <SCORE>
-40.8767

>  <SCORE.INTER>
-38.1837

>  <SCORE.INTER.CONST>
1

>  <SCORE.INTER.POLAR>
-5.79885

>  <SCORE.INTER.ROT>
6

>  <SCORE.INTER.SOLV>
17.4875

>  <SCORE.INTER.VDW>
-19.5554

>  <SCORE.INTER.norm>
-1.23173

>  <SCORE.INTRA>
-3.48677

>  <SCORE.INTRA.DIHEDRAL>
-2.79052

>  <SCORE.INTRA.DIHEDRAL.0>
18.4149

>  <SCORE.INTRA.POLAR>
-0.0567245

>  <SCORE.INTRA.POLAR.0>
0

>  <SCORE.INTRA.REPUL>
-0.092687

>  <SCORE.INTRA.REPUL.0>
0.092687

>  <SCORE.INTRA.SOLV>
-0.423085

>  <SCORE.INTRA.SOLV.lig_0>
-120.37

>  <SCORE.INTRA.VDW>
-1.22367

>  <SCORE.INTRA.VDW.0>
-1.75542

>  <SCORE.INTRA.norm>
-0.112477

>  <SCORE.RESTR>
0.793702

>  <SCORE.RESTR.CAVITY>
0.793702

>  <SCORE.RESTR.norm>
0.0256033

>  <SCORE.SYSTEM>
0

>  <SCORE.SYSTEM.CONST>
0

>  <SCORE.SYSTEM.DIHEDRAL>
0

>  <SCORE.SYSTEM.SOLV>
0

>  <SCORE.SYSTEM.norm>
0

>  <SCORE.heavy>
31

>  <SCORE.norm>
-1.3186

>  <RMSD>
2.438

$$$$
1byj cryst
 OpenBabel11021811383D
libRbt.so/2013.1/901 2013/11/27
 31 33  0  0  0  0  0  0  0  0999 V2000
    8.9243    1.9210   -3.5037 C   0  0  1  0  0  0  0  0  0  0  0  0
    7.4701    2.0230   -3.6339 O   0  0  0  0  0  0  0  0  0  0  0  0
    6.6953    2.4820   -2.4860 C   0  0  2  0  0  0  0  0  0  0  0  0
    6.9577    3.8905   -2.1964 O   0  0  0  0  0  0  0  0  0  0  0  0
    7.0227    1.5868   -1.2523 C   0  0  2  0  0  0  0  0  0  0  0  0
    6.2821    1.9774   -0.0365 N   0  3  0  0  0  0  0  0  0  0  0  0
    8.5491    1.5930   -0.9805 C   0  0  0  0  0  0  0  0  0  0  0  0
    9.3326    1.1426   -2.2226 C   0  0  0  0  0  0  0  0  0  0  0  0
    9.4987    1.2036   -4.7380 C   0  0  0  0  0  0  0  0  0  0  0  0
   10.9666    1.1796   -4.7812 N   0  3  0  0  0  0  0  0  0  0  0  0
    7.0770    6.2857   -2.7616 C   0  0  1  0  0  0  0  0  0  0  0  0
    6.4574    7.4318   -3.5978 C   0  0  0  0  0  0  0  0  0  0  0  0
    4.9366    7.5530   -3.3110 C   0  0  1  0  0  0  0  0  0  0  0  0
    4.3750    8.6972   -4.0542 N   0  3  0  0  0  0  0  0  0  0  0  0
    4.2140    6.2206   -3.6631 C   0  0  1  0  0  0  0  0  0  0  0  0
    4.8558    5.0130   -2.9352 C   0  0  1  0  0  0  0  0  0  0  0  0
    4.2350    3.8477   -3.4576 O   0  0  0  0  0  0  0  0  0  0  0  0
    6.4091    4.9100   -3.0894 C   0  0  2  0  0  0  0  0  0  0  0  0
    8.5363    6.2452   -2.9622 N   0  3  0  0  0  0  0  0  0  0  0  0
    2.3074    8.6761   -1.4449 C   0  0  0  0  0  0  0  0  0  0  0  0
    0.8217    8.5653   -1.0228 C   0  0  2  0  0  0  0  0  0  0  0  0
    0.8007    8.4348    0.3980 O   0  0  0  0  0  0  0  0  0  0  0  0
    0.1731    7.3064   -1.7125 C   0  0  1  0  0  0  0  0  0  0  0  0
    1.0409    6.0115   -1.5570 C   0  0  2  0  0  0  0  0  0  0  0  0
    2.5488    6.2422   -1.8310 C   0  0  1  0  0  0  0  0  0  0  0  0
    2.8163    6.2730   -3.2576 O   0  0  0  0  0  0  0  0  0  0  0  0
    3.0239    7.4446   -1.1622 O   0  0  0  0  0  0  0  0  0  0  0  0
    0.5739    4.9660   -2.4055 O   0  0  0  0  0  0  0  0  0  0  0  0
   -1.2044    7.0867   -1.1714 N   0  3  0  0  0  0  0  0  0  0  0  0
   -1.9480    5.9181   -1.6844 C   0  0  0  0  0  0  0  0  0  0  0  0
    0.1071    9.8937   -1.3735 C   0  0  0  0  0  0  0  0  0  0  0  0
  1  8  1  0  0  0  0
  1  9  1  6  0  0  0
  1  2  1  0  0  0  0
  2  3  1  0  0  0  0
  3  5  1  0  0  0  0
  3  4  1  1  0  0  0
  5  7  1  0  0  0  0
  5  6  1  1  0  0  0
  7  8  1  0  0  0  0
  9 10  1  0  0  0  0
 11 12  1  0  0  0  0
 11 18  1  0  0  0  0
 11 19  1  6  0  0  0
 12 13  1  0  0  0  0
 13 15  1  0  0  0  0
 13 14  1  6  0  0  0
 15 16  1  0  0  0  0
 15 26  1  1  0  0  0
 16 18  1  0  0  0  0
 16 17  1  6  0  0  0
 18  4  1  1  0  0  0
 20 21  1  0  0  0  0
 20 27  1  0  0  0  0
 21 31  1  6  0  0  0
 21 23  1  0  0  0  0
 21 22  1  0  0  0  0
 23 24  1  0  0  0  0
 23 29  1  1  0  0  0
 24 25  1  0  0  0  0
 24 28  1  6  0  0  0
 25 27  1  0  0  0  0
 25 26  1  6  0  0  0
 29 30  1  0  0  0  0
M  CHG  5   6   1  10   1  14   1  19   1  29   1
M  END
>  <CHROM.1>
173.57322993,73.04082802,-167.63693965,64.33400917,-70.38085302,-61.09785472
-176.72467886,-70.65830375,-161.70860834,60.70042124,-57.26591066,-173.08400977
-168.38002635,4.63411250,5.22439210,-2.37873624,0.52416530,-0.33563228,2.90029467

>  <Name>
1byj cryst

>  <RI>
0

>  <Rbt.Current_Directory>
/home/itssahil/PROJECTS/Mol_Feturizer/New_Systems/rnas/1byj

>  <Rbt.Executable>
rbdock ($Id: //depot/dev/client3/rdock/2013.1/src/exe/rbdock.cxx#4 $)

>  <Rbt.Library>
libRbt.so (2013.1, Build901 2013/11/27)

>  <Rbt.Parameter_File>
/export/apps/rDock/src/rDock_2013.1_src/data/scripts/dock_solv.prm

>  <Rbt.Receptor>
prm/pocket_docking_6.prm

>  <SCORE>
-51.8951

>  <SCORE.INTER>
-44.7675

>  <SCORE.INTER.CONST>
1

>  <SCORE.INTER.POLAR>
-6.31136

>  <SCORE.INTER.ROT>
6

>  <SCORE.INTER.SOLV>
28.1528

>  <SCORE.INTER.VDW>
-25.7914

>  <SCORE.INTER.norm>
-1.44411

>  <SCORE.INTRA>
-7.12761

>  <SCORE.INTRA.DIHEDRAL>
-13.0315

>  <SCORE.INTRA.DIHEDRAL.0>
18.4149

>  <SCORE.INTRA.POLAR>
-0.00415055

>  <SCORE.INTRA.POLAR.0>
0

>  <SCORE.INTRA.REPUL>
-0.092687

>  <SCORE.INTRA.REPUL.0>
0.092687

>  <SCORE.INTRA.SOLV>
-3.39222

>  <SCORE.INTRA.SOLV.lig_0>
-120.37

>  <SCORE.INTRA.VDW>
1.56181

>  <SCORE.INTRA.VDW.0>
-1.75542

>  <SCORE.INTRA.norm>
-0.229923

>  <SCORE.RESTR>
0

>  <SCORE.RESTR.CAVITY>
0

>  <SCORE.RESTR.norm>
0

>  <SCORE.SYSTEM>
0

>  <SCORE.SYSTEM.CONST>
0

>  <SCORE.SYSTEM.DIHEDRAL>
0

>  <SCORE.SYSTEM.SOLV>
0

>  <SCORE.SYSTEM.norm>
0

>  <SCORE.heavy>
31

>  <SCORE.norm>
-1.67404

>  <RMSD>
2.443

$$$$
1byj cryst
 OpenBabel11021811383D
libRbt.so/2013.1/901 2013/11/27
 31 33  0  0  0  0  0  0  0  0999 V2000
    5.4115    2.7816   -0.8704 C   0  0  1  0  0  0  0  0  0  0  0  0
    6.2864    3.9535   -0.9285 O   0  0  0  0  0  0  0  0  0  0  0  0
    7.4840    3.8923   -1.7595 C   0  0  2  0  0  0  0  0  0  0  0  0
    7.1431    3.8412   -3.1801 O   0  0  0  0  0  0  0  0  0  0  0  0
    8.3367    2.6551   -1.3440 C   0  0  2  0  0  0  0  0  0  0  0  0
    9.5750    2.5095   -2.1342 N   0  3  0  0  0  0  0  0  0  0  0  0
    7.4821    1.3647   -1.4361 C   0  0  0  0  0  0  0  0  0  0  0  0
    6.2119    1.4819   -0.5804 C   0  0  0  0  0  0  0  0  0  0  0  0
    4.3574    2.9851    0.2321 C   0  0  0  0  0  0  0  0  0  0  0  0
    4.9276    3.1508    1.5754 N   0  3  0  0  0  0  0  0  0  0  0  0
    7.1177    6.2732   -3.5739 C   0  0  1  0  0  0  0  0  0  0  0  0
    6.2773    7.4780   -4.0625 C   0  0  0  0  0  0  0  0  0  0  0  0
    4.9473    7.5710   -3.2674 C   0  0  1  0  0  0  0  0  0  0  0  0
    4.1928    8.7669   -3.6887 N   0  3  0  0  0  0  0  0  0  0  0  0
    4.1180    6.2670   -3.4500 C   0  0  1  0  0  0  0  0  0  0  0  0
    4.9412    5.0093   -3.0750 C   0  0  1  0  0  0  0  0  0  0  0  0
    4.1538    3.8854   -3.4395 O   0  0  0  0  0  0  0  0  0  0  0  0
    6.3473    4.9244   -3.7556 C   0  0  2  0  0  0  0  0  0  0  0  0
    8.4210    6.2538   -4.2613 N   0  3  0  0  0  0  0  0  0  0  0  0
    0.5144    4.4597   -2.2733 C   0  0  0  0  0  0  0  0  0  0  0  0
   -0.5455    5.3117   -1.5329 C   0  0  2  0  0  0  0  0  0  0  0  0
   -1.6743    5.4179   -2.3993 O   0  0  0  0  0  0  0  0  0  0  0  0
    0.0539    6.7331   -1.2140 C   0  0  1  0  0  0  0  0  0  0  0  0
    0.7401    7.3977   -2.4556 C   0  0  2  0  0  0  0  0  0  0  0  0
    1.6558    6.4296   -3.2468 C   0  0  1  0  0  0  0  0  0  0  0  0
    2.9425    6.2826   -2.5906 O   0  0  0  0  0  0  0  0  0  0  0  0
    1.0024    5.1459   -3.4568 O   0  0  0  0  0  0  0  0  0  0  0  0
    1.4983    8.5446   -2.0804 O   0  0  0  0  0  0  0  0  0  0  0  0
   -1.0167    7.6218   -0.6640 N   0  3  0  0  0  0  0  0  0  0  0  0
   -0.5784    8.7861    0.1324 C   0  0  0  0  0  0  0  0  0  0  0  0
   -1.0053    4.5421   -0.2702 C   0  0  0  0  0  0  0  0  0  0  0  0
  1  8  1  0  0  0  0
  1  9  1  1  0  0  0
  1  2  1  0  0  0  0
  2  3  1  0  0  0  0
  3  5  1  0  0  0  0
  3  4  1  6  0  0  0
  5  7  1  0  0  0  0
  5  6  1  6  0  0  0
  7  8  1  0  0  0  0
  9 10  1  0  0  0  0
 11 12  1  0  0  0  0
 11 18  1  0  0  0  0
 11 19  1  6  0  0  0
 12 13  1  0  0  0  0
 13 15  1  0  0  0  0
 13 14  1  6  0  0  0
 15 16  1  0  0  0  0
 15 26  1  1  0  0  0
 16 18  1  0  0  0  0
 16 17  1  6  0  0  0
 18  4  1  1  0  0  0
 20 21  1  0  0  0  0
 20 27  1  0  0  0  0
 21 31  1  1  0  0  0
 21 23  1  0  0  0  0
 21 22  1  0  0  0  0
 23 24  1  0  0  0  0
 23 29  1  6  0  0  0
 24 25  1  0  0  0  0
 24 28  1  1  0  0  0
 25 27  1  0  0  0  0
 25 26  1  1  0  0  0
 29 30  1  0  0  0  0
M  CHG  5   6   1  10   1  14   1  19   1  29   1
M  END
>  <CHROM.1>
-60.84421667,58.21197347,59.90918190,178.12779271,-62.97442834,-43.32679768
-179.53907936,109.73140082,-70.38936571,64.77800399,-80.50269166,47.69994047
-138.47165415,3.90489942,5.23241263,-2.09229324,0.28916157,-0.27380900,2.55661381

>  <Name>
1byj cryst

>  <RI>
0

>  <Rbt.Current_Directory>
/home/itssahil/PROJECTS/Mol_Feturizer/New_Systems/rnas/1byj

>  <Rbt.Executable>
rbdock ($Id: //depot/dev/client3/rdock/2013.1/src/exe/rbdock.cxx#4 $)

>  <Rbt.Library>
libRbt.so (2013.1, Build901 2013/11/27)

>  <Rbt.Parameter_File>
/export/apps/rDock/src/rDock_2013.1_src/data/scripts/dock_solv.prm

>  <Rbt.Receptor>
prm/pocket_docking_2.prm

>  <SCORE>
-47.6837

>  <SCORE.INTER>
-42.172

>  <SCORE.INTER.CONST>
1

>  <SCORE.INTER.POLAR>
-6.503

>  <SCORE.INTER.ROT>
6

>  <SCORE.INTER.SOLV>
19.192

>  <SCORE.INTER.VDW>
-20.4353

>  <SCORE.INTER.norm>
-1.36039

>  <SCORE.INTRA>
-6.47167

>  <SCORE.INTRA.DIHEDRAL>
-2.71192

>  <SCORE.INTRA.DIHEDRAL.0>
18.4149

>  <SCORE.INTRA.POLAR>
-0.950644

>  <SCORE.INTRA.POLAR.0>
0

>  <SCORE.INTRA.REPUL>
-0.092687

>  <SCORE.INTRA.REPUL.0>
0.092687

>  <SCORE.INTRA.SOLV>
0.0901508

>  <SCORE.INTRA.SOLV.lig_0>
-120.37

>  <SCORE.INTRA.VDW>
-1.46516

>  <SCORE.INTRA.VDW.0>
-1.75542

>  <SCORE.INTRA.norm>
-0.208763

>  <SCORE.RESTR>
0.959991

>  <SCORE.RESTR.CAVITY>
0.959991

>  <SCORE.RESTR.norm>
0.0309674

>  <SCORE.SYSTEM>
0

>  <SCORE.SYSTEM.CONST>
0

>  <SCORE.SYSTEM.DIHEDRAL>
0

>  <SCORE.SYSTEM.SOLV>
0

>  <SCORE.SYSTEM.norm>
0

>  <SCORE.heavy>
31

>  <SCORE.norm>
-1.53818

>  <RMSD>
2.446

$$$$
1byj cryst
 OpenBabel11021811383D
libRbt.so/2013.1/901 2013/11/27
 31 33  0  0  0  0  0  0  0  0999 V2000
    8.6561    2.1396   -2.4507 C   0  0  1  0  0  0  0  0  0  0  0  0
    7.3917    2.1863   -3.1863 O   0  0  0  0  0  0  0  0  0  0  0  0
    6.1550    2.3916   -2.4399 C   0  0  2  0  0  0  0  0  0  0  0  0
    6.0932    3.7378   -1.8736 O   0  0  0  0  0  0  0  0  0  0  0  0
    6.0413    1.3094   -1.3235 C   0  0  2  0  0  0  0  0  0  0  0  0
    4.8154    1.4373   -0.5113 N   0  3  0  0  0  0  0  0  0  0  0  0
    7.2975    1.3476   -0.4155 C   0  0  0  0  0  0  0  0  0  0  0  0
    8.5805    1.1678   -1.2408 C   0  0  0  0  0  0  0  0  0  0  0  0
    9.7813    1.6851   -3.3970 C   0  0  0  0  0  0  0  0  0  0  0  0
    9.8929    2.4936   -4.6181 N   0  3  0  0  0  0  0  0  0  0  0  0
    6.5910    5.5714   -3.4423 C   0  0  1  0  0  0  0  0  0  0  0  0
    6.0155    6.7890   -4.2058 C   0  0  0  0  0  0  0  0  0  0  0  0
    5.3511    7.7854   -3.2182 C   0  0  1  0  0  0  0  0  0  0  0  0
    4.8767    8.9760   -3.9490 N   0  3  0  0  0  0  0  0  0  0  0  0
    4.2001    7.0852   -2.4392 C   0  0  1  0  0  0  0  0  0  0  0  0
    4.6896    5.7956   -1.7340 C   0  0  1  0  0  0  0  0  0  0  0  0
    3.5354    5.1585   -1.2066 O   0  0  0  0  0  0  0  0  0  0  0  0
    5.4754    4.8067   -2.6570 C   0  0  2  0  0  0  0  0  0  0  0  0
    7.3086    4.6834   -4.3739 N   0  3  0  0  0  0  0  0  0  0  0  0
    0.9972    7.2168   -0.1376 C   0  0  0  0  0  0  0  0  0  0  0  0
    0.6130    8.4234    0.7536 C   0  0  2  0  0  0  0  0  0  0  0  0
   -0.6194    8.9375    0.2505 O   0  0  0  0  0  0  0  0  0  0  0  0
    1.7485    9.5127    0.6793 C   0  0  1  0  0  0  0  0  0  0  0  0
    2.1833    9.8406   -0.7894 C   0  0  2  0  0  0  0  0  0  0  0  0
    2.3834    8.5811   -1.6700 C   0  0  1  0  0  0  0  0  0  0  0  0
    3.6712    7.9649   -1.4063 O   0  0  0  0  0  0  0  0  0  0  0  0
    1.2850    7.6418   -1.4965 O   0  0  0  0  0  0  0  0  0  0  0  0
    3.3784   10.6166   -0.8183 O   0  0  0  0  0  0  0  0  0  0  0  0
    1.3061   10.7536    1.3885 N   0  3  0  0  0  0  0  0  0  0  0  0
    2.3579   11.7154    1.7764 C   0  0  0  0  0  0  0  0  0  0  0  0
    0.3458    7.9121    2.1907 C   0  0  0  0  0  0  0  0  0  0  0  0
  1  8  1  0  0  0  0
  1  9  1  6  0  0  0
  1  2  1  0  0  0  0
  2  3  1  0  0  0  0
  3  5  1  0  0  0  0
  3  4  1  1  0  0  0
  5  7  1  0  0  0  0
  5  6  1  1  0  0  0
  7  8  1  0  0  0  0
  9 10  1  0  0  0  0
 11 12  1  0  0  0  0
 11 18  1  0  0  0  0
 11 19  1  6  0  0  0
 12 13  1  0  0  0  0
 13 15  1  0  0  0  0
 13 14  1  6  0  0  0
 15 16  1  0  0  0  0
 15 26  1  1  0  0  0
 16 18  1  0  0  0  0
 16 17  1  6  0  0  0
 18  4  1  1  0  0  0
 20 21  1  0  0  0  0
 20 27  1  0  0  0  0
 21 31  1  1  0  0  0
 21 23  1  0  0  0  0
 21 22  1  0  0  0  0
 23 24  1  0  0  0  0
 23 29  1  6  0  0  0
 24 25  1  0  0  0  0
 24 28  1  1  0  0  0
 25 27  1  0  0  0  0
 25 26  1  1  0  0  0
 29 30  1  0  0  0  0
M  CHG  5   6   1  10   1  14   1  19   1  29   1
M  END
>  <CHROM.1>
54.25763438,90.78132973,-94.74578983,53.74770747,159.79985517,-36.22878143
-68.32042338,104.96814230,62.57544464,-179.73051072,-76.88350609,-76.64589300
-159.29722647,4.57716744,6.01571211,-1.55835909,0.56630734,-0.71848461,2.73072549

>  <Name>
1byj cryst

>  <RI>
0

>  <Rbt.Current_Directory>
/home/itssahil/PROJECTS/Mol_Feturizer/New_Systems/rnas/1byj

>  <Rbt.Executable>
rbdock ($Id: //depot/dev/client3/rdock/2013.1/src/exe/rbdock.cxx#4 $)

>  <Rbt.Library>
libRbt.so (2013.1, Build901 2013/11/27)

>  <Rbt.Parameter_File>
/export/apps/rDock/src/rDock_2013.1_src/data/scripts/dock_solv.prm

>  <Rbt.Receptor>
prm/pocket_docking_7.prm

>  <SCORE>
-40.5955

>  <SCORE.INTER>
-39.816

>  <SCORE.INTER.CONST>
1

>  <SCORE.INTER.POLAR>
-5.92223

>  <SCORE.INTER.ROT>
6

>  <SCORE.INTER.SOLV>
19.7425

>  <SCORE.INTER.VDW>
-20.984

>  <SCORE.INTER.norm>
-1.28439

>  <SCORE.INTRA>
-0.779491

>  <SCORE.INTRA.DIHEDRAL>
2.74224

>  <SCORE.INTRA.DIHEDRAL.0>
18.4149

>  <SCORE.INTRA.POLAR>
-0.910051

>  <SCORE.INTRA.POLAR.0>
0

>  <SCORE.INTRA.REPUL>
-0.092687

>  <SCORE.INTRA.REPUL.0>
0.092687

>  <SCORE.INTRA.SOLV>
5.09747

>  <SCORE.INTRA.SOLV.lig_0>
-120.37

>  <SCORE.INTRA.VDW>
-1.14174

>  <SCORE.INTRA.VDW.0>
-1.75542

>  <SCORE.INTRA.norm>
-0.0251449

>  <SCORE.RESTR>
0

>  <SCORE.RESTR.CAVITY>
0

>  <SCORE.RESTR.norm>
0

>  <SCORE.SYSTEM>
0

>  <SCORE.SYSTEM.CONST>
0

>  <SCORE.SYSTEM.DIHEDRAL>
0

>  <SCORE.SYSTEM.SOLV>
0

>  <SCORE.SYSTEM.norm>
0

>  <SCORE.heavy>
31

>  <SCORE.norm>
-1.30953

>  <RMSD>
2.450

$$$$
1byj cryst
 OpenBabel11021811383D
libRbt.so/2013.1/901 2013/11/27
 31 33  0  0  0  0  0  0  0  0999 V2000
    5.5704    2.8761    0.1317 C   0  0  1  0  0  0  0  0  0  0  0  0
    6.4640    3.9834   -0.2109 O   0  0  0  0  0  0  0  0  0  0  0  0
    7.5909    3.7236   -1.1004 C   0  0  2  0  0  0  0  0  0  0  0  0
    7.1385    3.4202   -2.4568 O   0  0  0  0  0  0  0  0  0  0  0  0
    8.4458    2.5556   -0.5213 C   0  0  2  0  0  0  0  0  0  0  0  0
    9.6146    2.2192   -1.3577 N   0  3  0  0  0  0  0  0  0  0  0  0
    7.5579    1.3030   -0.3047 C   0  0  0  0  0  0  0  0  0  0  0  0
    6.3617    1.6250    0.6035 C   0  0  0  0  0  0  0  0  0  0  0  0
    4.6109    3.3209    1.2495 C   0  0  0  0  0  0  0  0  0  0  0  0
    3.5531    2.3462    1.5468 N   0  3  0  0  0  0  0  0  0  0  0  0
    7.1618    5.7865   -3.1427 C   0  0  1  0  0  0  0  0  0  0  0  0
    6.3584    6.9299   -3.8089 C   0  0  0  0  0  0  0  0  0  0  0  0
    4.9980    7.1297   -3.0884 C   0  0  1  0  0  0  0  0  0  0  0  0
    4.2776    8.2717   -3.6832 N   0  3  0  0  0  0  0  0  0  0  0  0
    4.1597    5.8199   -3.1472 C   0  0  1  0  0  0  0  0  0  0  0  0
    4.9499    4.6104   -2.5879 C   0  0  1  0  0  0  0  0  0  0  0  0
    4.1633    3.4570   -2.8471 O   0  0  0  0  0  0  0  0  0  0  0  0
    6.3817    4.4320   -3.1926 C   0  0  2  0  0  0  0  0  0  0  0  0
    8.4921    5.6732   -3.7664 N   0  3  0  0  0  0  0  0  0  0  0  0
    0.4476    4.2365   -1.9946 C   0  0  0  0  0  0  0  0  0  0  0  0
   -0.6127    5.1800   -1.3756 C   0  0  2  0  0  0  0  0  0  0  0  0
   -1.6984    5.2496   -2.2989 O   0  0  0  0  0  0  0  0  0  0  0  0
    0.0221    6.6034   -1.1462 C   0  0  1  0  0  0  0  0  0  0  0  0
    0.7844    7.1408   -2.4048 C   0  0  2  0  0  0  0  0  0  0  0  0
    1.6989    6.0820   -3.0715 C   0  0  1  0  0  0  0  0  0  0  0  0
    2.9500    5.9494   -2.3470 O   0  0  0  0  0  0  0  0  0  0  0  0
    1.0104    4.8066   -3.2063 O   0  0  0  0  0  0  0  0  0  0  0  0
    1.5656    8.2904   -2.0896 O   0  0  0  0  0  0  0  0  0  0  0  0
   -1.0394    7.5679   -0.7202 N   0  3  0  0  0  0  0  0  0  0  0  0
   -0.5937    8.7885   -0.0179 C   0  0  0  0  0  0  0  0  0  0  0  0
   -1.1536    4.5326   -0.0770 C   0  0  0  0  0  0  0  0  0  0  0  0
  1  8  1  0  0  0  0
  1  9  1  1  0  0  0
  1  2  1  0  0  0  0
  2  3  1  0  0  0  0
  3  5  1  0  0  0  0
  3  4  1  6  0  0  0
  5  7  1  0  0  0  0
  5  6  1  6  0  0  0
  7  8  1  0  0  0  0
  9 10  1  0  0  0  0
 11 12  1  0  0  0  0
 11 18  1  0  0  0  0
 11 19  1  6  0  0  0
 12 13  1  0  0  0  0
 13 15  1  0  0  0  0
 13 14  1  6  0  0  0
 15 16  1  0  0  0  0
 15 26  1  1  0  0  0
 16 18  1  0  0  0  0
 16 17  1  6  0  0  0
 18  4  1  1  0  0  0
 20 21  1  0  0  0  0
 20 27  1  0  0  0  0
 21 31  1  1  0  0  0
 21 23  1  0  0  0  0
 21 22  1  0  0  0  0
 23 24  1  0  0  0  0
 23 29  1  6  0  0  0
 24 25  1  0  0  0  0
 24 28  1  1  0  0  0
 25 27  1  0  0  0  0
 25 26  1  1  0  0  0
 29 30  1  0  0  0  0
M  CHG  5   6   1  10   1  14   1  19   1  29   1
M  END
>  <CHROM.1>
172.28463428,61.25825926,51.00187117,172.82428373,-56.95186278,42.26137725
-63.01321548,107.24949661,176.80986935,-74.85830218,-79.70394878,47.71940317
-138.72065644,3.89563203,4.97383461,-1.69706017,0.31687104,-0.24074998,2.45969770

>  <Name>
1byj cryst

>  <RI>
0

>  <Rbt.Current_Directory>
/home/itssahil/PROJECTS/Mol_Feturizer/New_Systems/rnas/1byj

>  <Rbt.Executable>
rbdock ($Id: //depot/dev/client3/rdock/2013.1/src/exe/rbdock.cxx#4 $)

>  <Rbt.Library>
libRbt.so (2013.1, Build901 2013/11/27)

>  <Rbt.Parameter_File>
/export/apps/rDock/src/rDock_2013.1_src/data/scripts/dock_solv.prm

>  <Rbt.Receptor>
prm/pocket_docking_2.prm

>  <SCORE>
-39.1111

>  <SCORE.INTER>
-32.4696

>  <SCORE.INTER.CONST>
1

>  <SCORE.INTER.POLAR>
-4.97098

>  <SCORE.INTER.ROT>
6

>  <SCORE.INTER.SOLV>
18.2551

>  <SCORE.INTER.VDW>
-18.7615

>  <SCORE.INTER.norm>
-1.04741

>  <SCORE.INTRA>
-7.24815

>  <SCORE.INTRA.DIHEDRAL>
-1.98018

>  <SCORE.INTRA.DIHEDRAL.0>
18.4149

>  <SCORE.INTRA.POLAR>
-0.930772

>  <SCORE.INTRA.POLAR.0>
0

>  <SCORE.INTRA.REPUL>
-0.092687

>  <SCORE.INTRA.REPUL.0>
0.092687

>  <SCORE.INTRA.SOLV>
-0.70299

>  <SCORE.INTRA.SOLV.lig_0>
-120.37

>  <SCORE.INTRA.VDW>
-2.2785

>  <SCORE.INTRA.VDW.0>
-1.75542

>  <SCORE.INTRA.norm>
-0.233811

>  <SCORE.RESTR>
0.606699

>  <SCORE.RESTR.CAVITY>
0.606699

>  <SCORE.RESTR.norm>
0.0195709

>  <SCORE.SYSTEM>
0

>  <SCORE.SYSTEM.CONST>
0

>  <SCORE.SYSTEM.DIHEDRAL>
0

>  <SCORE.SYSTEM.SOLV>
0

>  <SCORE.SYSTEM.norm>
0

>  <SCORE.heavy>
31

>  <SCORE.norm>
-1.26165

>  <RMSD>
2.462

$$$$
1byj cryst
 OpenBabel11021811383D
libRbt.so/2013.1/901 2013/11/27
 31 33  0  0  0  0  0  0  0  0999 V2000
    5.2076    2.8331   -0.8643 C   0  0  1  0  0  0  0  0  0  0  0  0
    6.1369    3.9632   -0.9025 O   0  0  0  0  0  0  0  0  0  0  0  0
    7.3530    3.8425   -1.6995 C   0  0  2  0  0  0  0  0  0  0  0  0
    7.0497    3.7997   -3.1289 O   0  0  0  0  0  0  0  0  0  0  0  0
    8.1359    2.5696   -1.2554 C   0  0  2  0  0  0  0  0  0  0  0  0
    9.3876    2.3630   -2.0101 N   0  3  0  0  0  0  0  0  0  0  0  0
    7.2255    1.3194   -1.3662 C   0  0  0  0  0  0  0  0  0  0  0  0
    5.9387    1.4995   -0.5469 C   0  0  0  0  0  0  0  0  0  0  0  0
    4.1338    3.0906    0.2074 C   0  0  0  0  0  0  0  0  0  0  0  0
    4.6674    3.6302    1.4649 N   0  3  0  0  0  0  0  0  0  0  0  0
    7.3471    6.1938   -3.6295 C   0  0  1  0  0  0  0  0  0  0  0  0
    6.6714    7.4783   -4.1678 C   0  0  0  0  0  0  0  0  0  0  0  0
    5.3733    7.7836   -3.3730 C   0  0  1  0  0  0  0  0  0  0  0  0
    4.7822    9.0507   -3.8441 N   0  3  0  0  0  0  0  0  0  0  0  0
    4.3750    6.5962   -3.4951 C   0  0  1  0  0  0  0  0  0  0  0  0
    5.0255    5.2567   -3.0677 C   0  0  1  0  0  0  0  0  0  0  0  0
    4.0910    4.2342   -3.3796 O   0  0  0  0  0  0  0  0  0  0  0  0
    6.4010    4.9542   -3.7488 C   0  0  2  0  0  0  0  0  0  0  0  0
    8.6295    5.9696   -4.3198 N   0  3  0  0  0  0  0  0  0  0  0  0
    1.5079    4.7080   -1.2252 C   0  0  0  0  0  0  0  0  0  0  0  0
    0.2315    5.4569   -0.7696 C   0  0  2  0  0  0  0  0  0  0  0  0
   -0.8729    4.8354   -1.4254 O   0  0  0  0  0  0  0  0  0  0  0  0
    0.3425    6.9756   -1.1730 C   0  0  1  0  0  0  0  0  0  0  0  0
    0.7765    7.1800   -2.6642 C   0  0  2  0  0  0  0  0  0  0  0  0
    1.9536    6.2687   -3.0952 C   0  0  1  0  0  0  0  0  0  0  0  0
    3.2203    6.8069   -2.6331 O   0  0  0  0  0  0  0  0  0  0  0  0
    1.7474    4.8999   -2.6450 O   0  0  0  0  0  0  0  0  0  0  0  0
    1.1262    8.5369   -2.9241 O   0  0  0  0  0  0  0  0  0  0  0  0
   -0.9561    7.6673   -0.9016 N   0  3  0  0  0  0  0  0  0  0  0  0
   -0.8934    8.9480   -0.1683 C   0  0  0  0  0  0  0  0  0  0  0  0
    0.0457    5.2379    0.7521 C   0  0  0  0  0  0  0  0  0  0  0  0
  1  8  1  0  0  0  0
  1  9  1  1  0  0  0
  1  2  1  0  0  0  0
  2  3  1  0  0  0  0
  3  5  1  0  0  0  0
  3  4  1  6  0  0  0
  5  7  1  0  0  0  0
  5  6  1  6  0  0  0
  7  8  1  0  0  0  0
  9 10  1  0  0  0  0
 11 12  1  0  0  0  0
 11 18  1  0  0  0  0
 11 19  1  6  0  0  0
 12 13  1  0  0  0  0
 13 15  1  0  0  0  0
 13 14  1  6  0  0  0
 15 16  1  0  0  0  0
 15 26  1  1  0  0  0
 16 18  1  0  0  0  0
 16 17  1  6  0  0  0
 18  4  1  1  0  0  0
 20 21  1  0  0  0  0
 20 27  1  0  0  0  0
 21 31  1  1  0  0  0
 21 23  1  0  0  0  0
 21 22  1  0  0  0  0
 23 24  1  0  0  0  0
 23 29  1  6  0  0  0
 24 25  1  0  0  0  0
 24 28  1  1  0  0  0
 25 27  1  0  0  0  0
 25 26  1  1  0  0  0
 29 30  1  0  0  0  0
M  CHG  5   6   1  10   1  14   1  19   1  29   1
M  END
>  <CHROM.1>
-43.46502495,62.27690223,62.63879956,52.99947536,-60.73498924,72.87426359
-54.65622092,148.04666038,-65.17283700,-179.86420528,-107.18126315,-171.56240611
-145.98094587,4.05681539,5.30710503,-2.00079664,0.27618172,-0.34175054,2.52709241

>  <Name>
1byj cryst

>  <RI>
0

>  <Rbt.Current_Directory>
/home/itssahil/PROJECTS/Mol_Feturizer/New_Systems/rnas/1byj

>  <Rbt.Executable>
rbdock ($Id: //depot/dev/client3/rdock/2013.1/src/exe/rbdock.cxx#4 $)

>  <Rbt.Library>
libRbt.so (2013.1, Build901 2013/11/27)

>  <Rbt.Parameter_File>
/export/apps/rDock/src/rDock_2013.1_src/data/scripts/dock_solv.prm

>  <Rbt.Receptor>
prm/pocket_docking_2.prm

>  <SCORE>
-46.6826

>  <SCORE.INTER>
-41.8208

>  <SCORE.INTER.CONST>
1

>  <SCORE.INTER.POLAR>
-6.72559

>  <SCORE.INTER.ROT>
6

>  <SCORE.INTER.SOLV>
17.6165

>  <SCORE.INTER.VDW>
-18.9341

>  <SCORE.INTER.norm>
-1.34906

>  <SCORE.INTRA>
-6.1578

>  <SCORE.INTRA.DIHEDRAL>
-4.54633

>  <SCORE.INTRA.DIHEDRAL.0>
18.4149

>  <SCORE.INTRA.POLAR>
-0.766273

>  <SCORE.INTRA.POLAR.0>
0

>  <SCORE.INTRA.REPUL>
-0.092687

>  <SCORE.INTRA.REPUL.0>
0.092687

>  <SCORE.INTRA.SOLV>
-0.307764

>  <SCORE.INTRA.SOLV.lig_0>
-120.37

>  <SCORE.INTRA.VDW>
-0.661986

>  <SCORE.INTRA.VDW.0>
-1.75542

>  <SCORE.INTRA.norm>
-0.198639

>  <SCORE.RESTR>
1.29597

>  <SCORE.RESTR.CAVITY>
1.29597

>  <SCORE.RESTR.norm>
0.0418055

>  <SCORE.SYSTEM>
0

>  <SCORE.SYSTEM.CONST>
0

>  <SCORE.SYSTEM.DIHEDRAL>
0

>  <SCORE.SYSTEM.SOLV>
0

>  <SCORE.SYSTEM.norm>
0

>  <SCORE.heavy>
31

>  <SCORE.norm>
-1.50589

>  <RMSD>
2.463

$$$$
1byj cryst
 OpenBabel11021811383D
libRbt.so/2013.1/901 2013/11/27
 31 33  0  0  0  0  0  0  0  0999 V2000
    5.5199    2.4114   -0.9710 C   0  0  1  0  0  0  0  0  0  0  0  0
    6.3371    3.6215   -1.0714 O   0  0  0  0  0  0  0  0  0  0  0  0
    7.4673    3.6280   -1.9940 C   0  0  2  0  0  0  0  0  0  0  0  0
    7.0187    3.5879   -3.3846 O   0  0  0  0  0  0  0  0  0  0  0  0
    8.4017    2.4221   -1.6726 C   0  0  2  0  0  0  0  0  0  0  0  0
    9.5793    2.3454   -2.5594 N   0  3  0  0  0  0  0  0  0  0  0  0
    7.5979    1.0973   -1.7259 C   0  0  0  0  0  0  0  0  0  0  0  0
    6.3948    1.1431   -0.7720 C   0  0  0  0  0  0  0  0  0  0  0  0
    4.5477    2.5483    0.2140 C   0  0  0  0  0  0  0  0  0  0  0  0
    5.1915    2.9726    1.4641 N   0  3  0  0  0  0  0  0  0  0  0  0
    7.1079    6.0264   -3.7248 C   0  0  1  0  0  0  0  0  0  0  0  0
    6.3190    7.2827   -4.1674 C   0  0  0  0  0  0  0  0  0  0  0  0
    5.0134    7.4242   -3.3397 C   0  0  1  0  0  0  0  0  0  0  0  0
    4.3114    8.6658   -3.7173 N   0  3  0  0  0  0  0  0  0  0  0  0
    4.1152    6.1680   -3.5312 C   0  0  1  0  0  0  0  0  0  0  0  0
    4.8817    4.8623   -3.2028 C   0  0  1  0  0  0  0  0  0  0  0  0
    4.0304    3.7880   -3.5732 O   0  0  0  0  0  0  0  0  0  0  0  0
    6.2662    4.7225   -3.9177 C   0  0  2  0  0  0  0  0  0  0  0  0
    8.3930    5.9574   -4.4426 N   0  3  0  0  0  0  0  0  0  0  0  0
    0.5166    4.4470   -2.2102 C   0  0  0  0  0  0  0  0  0  0  0  0
   -0.5125    5.3374   -1.4715 C   0  0  2  0  0  0  0  0  0  0  0  0
   -1.6609    5.4330   -2.3130 O   0  0  0  0  0  0  0  0  0  0  0  0
    0.1145    6.7592   -1.2127 C   0  0  1  0  0  0  0  0  0  0  0  0
    0.7788    7.3742   -2.4912 C   0  0  2  0  0  0  0  0  0  0  0  0
    1.6609    6.3682   -3.2734 C   0  0  1  0  0  0  0  0  0  0  0  0
    2.9614    6.2230   -2.6445 O   0  0  0  0  0  0  0  0  0  0  0  0
    0.9846    5.0884   -3.4265 O   0  0  0  0  0  0  0  0  0  0  0  0
    1.5622    8.5210   -2.1712 O   0  0  0  0  0  0  0  0  0  0  0  0
   -0.9295    7.6804   -0.6652 N   0  3  0  0  0  0  0  0  0  0  0  0
   -0.4758    8.7242    0.2764 C   0  0  0  0  0  0  0  0  0  0  0  0
   -0.9514    4.6147   -0.1742 C   0  0  0  0  0  0  0  0  0  0  0  0
  1  8  1  0  0  0  0
  1  9  1  1  0  0  0
  1  2  1  0  0  0  0
  2  3  1  0  0  0  0
  3  5  1  0  0  0  0
  3  4  1  6  0  0  0
  5  7  1  0  0  0  0
  5  6  1  6  0  0  0
  7  8  1  0  0  0  0
  9 10  1  0  0  0  0
 11 12  1  0  0  0  0
 11 18  1  0  0  0  0
 11 19  1  6  0  0  0
 12 13  1  0  0  0  0
 13 15  1  0  0  0  0
 13 14  1  6  0  0  0
 15 16  1  0  0  0  0
 15 26  1  1  0  0  0
 16 18  1  0  0  0  0
 16 17  1  6  0  0  0
 18  4  1  1  0  0  0
 20 21  1  0  0  0  0
 20 27  1  0  0  0  0
 21 31  1  1  0  0  0
 21 23  1  0  0  0  0
 21 22  1  0  0  0  0
 23 24  1  0  0  0  0
 23 29  1  6  0  0  0
 24 25  1  0  0  0  0
 24 28  1  1  0  0  0
 25 27  1  0  0  0  0
 25 26  1  1  0  0  0
 29 30  1  0  0  0  0
M  CHG  5   6   1  10   1  14   1  19   1  29   1
M  END
>  <CHROM.1>
-49.58026815,65.31696057,56.02659678,-175.70019354,60.56349458,-36.82698168
179.31255814,113.34279963,-66.58641557,64.31323055,-90.90928553,-67.26984862
-138.24937442,3.94210440,5.09282259,-2.18496544,0.30820877,-0.31603301,2.56334974

>  <Name>
1byj cryst

>  <RI>
0

>  <Rbt.Current_Directory>
/home/itssahil/PROJECTS/Mol_Feturizer/New_Systems/rnas/1byj

>  <Rbt.Executable>
rbdock ($Id: //depot/dev/client3/rdock/2013.1/src/exe/rbdock.cxx#4 $)

>  <Rbt.Library>
libRbt.so (2013.1, Build901 2013/11/27)

>  <Rbt.Parameter_File>
/export/apps/rDock/src/rDock_2013.1_src/data/scripts/dock_solv.prm

>  <Rbt.Receptor>
prm/pocket_docking_3.prm

>  <SCORE>
-50.7562

>  <SCORE.INTER>
-44.5715

>  <SCORE.INTER.CONST>
1

>  <SCORE.INTER.POLAR>
-6.82189

>  <SCORE.INTER.ROT>
6

>  <SCORE.INTER.SOLV>
18.8122

>  <SCORE.INTER.VDW>
-20.8454

>  <SCORE.INTER.norm>
-1.43779

>  <SCORE.INTRA>
-6.18463

>  <SCORE.INTRA.DIHEDRAL>
-1.13056

>  <SCORE.INTRA.DIHEDRAL.0>
18.4149

>  <SCORE.INTRA.POLAR>
-1.13326

>  <SCORE.INTRA.POLAR.0>
0

>  <SCORE.INTRA.REPUL>
-0.092687

>  <SCORE.INTRA.REPUL.0>
0.092687

>  <SCORE.INTRA.SOLV>
0.526643

>  <SCORE.INTRA.SOLV.lig_0>
-120.37

>  <SCORE.INTRA.VDW>
-1.56616

>  <SCORE.INTRA.VDW.0>
-1.75542

>  <SCORE.INTRA.norm>
-0.199504

>  <SCORE.RESTR>
0

>  <SCORE.RESTR.CAVITY>
0

>  <SCORE.RESTR.norm>
0

>  <SCORE.SYSTEM>
0

>  <SCORE.SYSTEM.CONST>
0

>  <SCORE.SYSTEM.DIHEDRAL>
0

>  <SCORE.SYSTEM.SOLV>
0

>  <SCORE.SYSTEM.norm>
0

>  <SCORE.heavy>
31

>  <SCORE.norm>
-1.6373

>  <RMSD>
2.464

$$$$
1byj cryst
 OpenBabel11021811383D
libRbt.so/2013.1/901 2013/11/27
 31 33  0  0  0  0  0  0  0  0999 V2000
    6.4007    1.9256   -1.0249 C   0  0  1  0  0  0  0  0  0  0  0  0
    6.9403    3.2774   -1.1778 O   0  0  0  0  0  0  0  0  0  0  0  0
    7.8883    3.5345   -2.2566 C   0  0  2  0  0  0  0  0  0  0  0  0
    7.2432    3.4402   -3.5649 O   0  0  0  0  0  0  0  0  0  0  0  0
    9.0783    2.5335   -2.1463 C   0  0  2  0  0  0  0  0  0  0  0  0
   10.0940    2.7177   -3.2015 N   0  3  0  0  0  0  0  0  0  0  0  0
    8.5499    1.0758   -2.1535 C   0  0  0  0  0  0  0  0  0  0  0  0
    7.5261    0.8545   -1.0300 C   0  0  0  0  0  0  0  0  0  0  0  0
    5.6191    1.8340    0.2975 C   0  0  0  0  0  0  0  0  0  0  0  0
    4.9899    0.5267    0.5261 N   0  3  0  0  0  0  0  0  0  0  0  0
    7.2653    5.8844   -3.8744 C   0  0  1  0  0  0  0  0  0  0  0  0
    6.4287    7.1300   -4.2555 C   0  0  0  0  0  0  0  0  0  0  0  0
    5.1675    7.2335   -3.3563 C   0  0  1  0  0  0  0  0  0  0  0  0
    4.4215    8.4653   -3.6774 N   0  3  0  0  0  0  0  0  0  0  0  0
    4.2854    5.9616   -3.5169 C   0  0  1  0  0  0  0  0  0  0  0  0
    5.0944    4.6678   -3.2494 C   0  0  1  0  0  0  0  0  0  0  0  0
    4.2457    3.5812   -3.5885 O   0  0  0  0  0  0  0  0  0  0  0  0
    6.4404    4.5661   -4.0401 C   0  0  2  0  0  0  0  0  0  0  0  0
    8.5105    5.8514   -4.6617 N   0  3  0  0  0  0  0  0  0  0  0  0
    0.3339    4.8800   -2.5094 C   0  0  0  0  0  0  0  0  0  0  0  0
   -0.4021    5.7011   -1.4225 C   0  0  2  0  0  0  0  0  0  0  0  0
   -1.4767    6.3809   -2.0700 O   0  0  0  0  0  0  0  0  0  0  0  0
    0.6006    6.7268   -0.7713 C   0  0  1  0  0  0  0  0  0  0  0  0
    1.4117    7.5441   -1.8334 C   0  0  2  0  0  0  0  0  0  0  0  0
    1.9742    6.6728   -2.9850 C   0  0  1  0  0  0  0  0  0  0  0  0
    3.1807    5.9811   -2.5683 O   0  0  0  0  0  0  0  0  0  0  0  0
    0.9642    5.7518   -3.4854 O   0  0  0  0  0  0  0  0  0  0  0  0
    2.4868    8.2596   -1.2306 O   0  0  0  0  0  0  0  0  0  0  0  0
   -0.1411    7.6453    0.1477 N   0  3  0  0  0  0  0  0  0  0  0  0
   -0.7434    8.8527   -0.4533 C   0  0  0  0  0  0  0  0  0  0  0  0
   -1.0275    4.7205   -0.4000 C   0  0  0  0  0  0  0  0  0  0  0  0
  1  8  1  0  0  0  0
  1  9  1  1  0  0  0
  1  2  1  0  0  0  0
  2  3  1  0  0  0  0
  3  5  1  0  0  0  0
  3  4  1  6  0  0  0
  5  7  1  0  0  0  0
  5  6  1  6  0  0  0
  7  8  1  0  0  0  0
  9 10  1  0  0  0  0
 11 12  1  0  0  0  0
 11 18  1  0  0  0  0
 11 19  1  6  0  0  0
 12 13  1  0  0  0  0
 13 15  1  0  0  0  0
 13 14  1  6  0  0  0
 15 16  1  0  0  0  0
 15 26  1  1  0  0  0
 16 18  1  0  0  0  0
 16 17  1  6  0  0  0
 18  4  1  1  0  0  0
 20 21  1  0  0  0  0
 20 27  1  0  0  0  0
 21 31  1  1  0  0  0
 21 23  1  0  0  0  0
 21 22  1  0  0  0  0
 23 24  1  0  0  0  0
 23 29  1  6  0  0  0
 24 25  1  0  0  0  0
 24 28  1  1  0  0  0
 25 27  1  0  0  0  0
 25 26  1  1  0  0  0
 29 30  1  0  0  0  0
M  CHG  5   6   1  10   1  14   1  19   1  29   1
M  END
>  <CHROM.1>
177.81362930,78.92820027,49.35611630,63.09859979,145.66547954,-35.19724081
66.25061780,86.77662390,-178.16395946,172.51635786,34.42624665,-58.82717602
-136.63442094,4.28786744,4.98440018,-2.23791962,0.35223339,-0.35650682,2.61706383

>  <Name>
1byj cryst

>  <RI>
0

>  <Rbt.Current_Directory>
/home/itssahil/PROJECTS/Mol_Feturizer/New_Systems/rnas/1byj

>  <Rbt.Executable>
rbdock ($Id: //depot/dev/client3/rdock/2013.1/src/exe/rbdock.cxx#4 $)

>  <Rbt.Library>
libRbt.so (2013.1, Build901 2013/11/27)

>  <Rbt.Parameter_File>
/export/apps/rDock/src/rDock_2013.1_src/data/scripts/dock_solv.prm

>  <Rbt.Receptor>
prm/pocket_docking_7.prm

>  <SCORE>
-46.2184

>  <SCORE.INTER>
-42.5581

>  <SCORE.INTER.CONST>
1

>  <SCORE.INTER.POLAR>
-6.60099

>  <SCORE.INTER.ROT>
6

>  <SCORE.INTER.SOLV>
22.2779

>  <SCORE.INTER.VDW>
-21.3947

>  <SCORE.INTER.norm>
-1.37284

>  <SCORE.INTRA>
-3.66026

>  <SCORE.INTRA.DIHEDRAL>
-1.70182

>  <SCORE.INTRA.DIHEDRAL.0>
18.4149

>  <SCORE.INTRA.POLAR>
-1.11185

>  <SCORE.INTRA.POLAR.0>
0

>  <SCORE.INTRA.REPUL>
-0.092687

>  <SCORE.INTRA.REPUL.0>
0.092687

>  <SCORE.INTRA.SOLV>
0.682159

>  <SCORE.INTRA.SOLV.lig_0>
-120.37

>  <SCORE.INTRA.VDW>
1.09331

>  <SCORE.INTRA.VDW.0>
-1.75542

>  <SCORE.INTRA.norm>
-0.118073

>  <SCORE.RESTR>
0

>  <SCORE.RESTR.CAVITY>
0

>  <SCORE.RESTR.norm>
0

>  <SCORE.SYSTEM>
0

>  <SCORE.SYSTEM.CONST>
0

>  <SCORE.SYSTEM.DIHEDRAL>
0

>  <SCORE.SYSTEM.SOLV>
0

>  <SCORE.SYSTEM.norm>
0

>  <SCORE.heavy>
31

>  <SCORE.norm>
-1.49092

>  <RMSD>
2.466

$$$$
1byj cryst
 OpenBabel11021811383D
libRbt.so/2013.1/901 2013/11/27
 31 33  0  0  0  0  0  0  0  0999 V2000
    5.0572    3.1420   -0.6319 C   0  0  1  0  0  0  0  0  0  0  0  0
    6.0251    4.2294   -0.7823 O   0  0  0  0  0  0  0  0  0  0  0  0
    7.1879    4.0178   -1.6378 C   0  0  2  0  0  0  0  0  0  0  0  0
    6.8016    3.9137   -3.0438 O   0  0  0  0  0  0  0  0  0  0  0  0
    7.9460    2.7385   -1.1697 C   0  0  2  0  0  0  0  0  0  0  0  0
    9.1435    2.4419   -1.9803 N   0  3  0  0  0  0  0  0  0  0  0  0
    6.9838    1.5227   -1.1624 C   0  0  0  0  0  0  0  0  0  0  0  0
    5.7540    1.7976   -0.2839 C   0  0  0  0  0  0  0  0  0  0  0  0
    4.0573    3.4985    0.4823 C   0  0  0  0  0  0  0  0  0  0  0  0
    4.6928    3.8987    1.7445 N   0  3  0  0  0  0  0  0  0  0  0  0
    7.2224    6.2670   -3.6398 C   0  0  1  0  0  0  0  0  0  0  0  0
    6.6112    7.5649   -4.2216 C   0  0  0  0  0  0  0  0  0  0  0  0
    5.3405    7.9707   -3.4275 C   0  0  1  0  0  0  0  0  0  0  0  0
    4.8136    9.2491   -3.9421 N   0  3  0  0  0  0  0  0  0  0  0  0
    4.2781    6.8356   -3.4942 C   0  0  1  0  0  0  0  0  0  0  0  0
    4.8600    5.4800   -3.0210 C   0  0  1  0  0  0  0  0  0  0  0  0
    3.8681    4.4987   -3.2843 O   0  0  0  0  0  0  0  0  0  0  0  0
    6.2094    5.0771   -3.7022 C   0  0  2  0  0  0  0  0  0  0  0  0
    8.4830    5.9471   -4.3326 N   0  3  0  0  0  0  0  0  0  0  0  0
    0.9525    5.0307   -2.4058 C   0  0  0  0  0  0  0  0  0  0  0  0
   -0.1831    5.7025   -1.5953 C   0  0  2  0  0  0  0  0  0  0  0  0
   -1.3345    5.7329   -2.4375 O   0  0  0  0  0  0  0  0  0  0  0  0
    0.2544    7.1601   -1.1886 C   0  0  1  0  0  0  0  0  0  0  0  0
    0.8329    7.9806   -2.3911 C   0  0  2  0  0  0  0  0  0  0  0  0
    1.8377    7.1804   -3.2582 C   0  0  1  0  0  0  0  0  0  0  0  0
    3.1462    7.1418   -2.6306 O   0  0  0  0  0  0  0  0  0  0  0  0
    1.3329    5.8458   -3.5463 O   0  0  0  0  0  0  0  0  0  0  0  0
    1.4611    9.1810   -1.9489 O   0  0  0  0  0  0  0  0  0  0  0  0
   -0.9000    7.8794   -0.5655 N   0  3  0  0  0  0  0  0  0  0  0  0
   -0.5852    9.0570    0.2688 C   0  0  0  0  0  0  0  0  0  0  0  0
   -0.5241    4.8028   -0.3819 C   0  0  0  0  0  0  0  0  0  0  0  0
  1  8  1  0  0  0  0
  1  9  1  1  0  0  0
  1  2  1  0  0  0  0
  2  3  1  0  0  0  0
  3  5  1  0  0  0  0
  3  4  1  6  0  0  0
  5  7  1  0  0  0  0
  5  6  1  6  0  0  0
  7  8  1  0  0  0  0
  9 10  1  0  0  0  0
 11 12  1  0  0  0  0
 11 18  1  0  0  0  0
 11 19  1  6  0  0  0
 12 13  1  0  0  0  0
 13 15  1  0  0  0  0
 13 14  1  6  0  0  0
 15 16  1  0  0  0  0
 15 26  1  1  0  0  0
 16 18  1  0  0  0  0
 16 17  1  6  0  0  0
 18  4  1  1  0  0  0
 20 21  1  0  0  0  0
 20 27  1  0  0  0  0
 21 31  1  1  0  0  0
 21 23  1  0  0  0  0
 21 22  1  0  0  0  0
 23 24  1  0  0  0  0
 23 29  1  6  0  0  0
 24 25  1  0  0  0  0
 24 28  1  1  0  0  0
 25 27  1  0  0  0  0
 25 26  1  1  0  0  0
 29 30  1  0  0  0  0
M  CHG  5   6   1  10   1  14   1  19   1  29   1
M  END
>  <CHROM.1>
-51.72592035,64.58265986,59.43943366,-61.88497619,-176.70697913,85.01685168
-57.99624493,123.07640146,-178.88312763,-178.74063581,-78.67270691,-171.92672784
-159.96949046,3.91583501,5.59235669,-2.04879431,0.32917805,-0.32403571,2.52003632

>  <Name>
1byj cryst

>  <RI>
0

>  <Rbt.Current_Directory>
/home/itssahil/PROJECTS/Mol_Feturizer/New_Systems/rnas/1byj

>  <Rbt.Executable>
rbdock ($Id: //depot/dev/client3/rdock/2013.1/src/exe/rbdock.cxx#4 $)

>  <Rbt.Library>
libRbt.so (2013.1, Build901 2013/11/27)

>  <Rbt.Parameter_File>
/export/apps/rDock/src/rDock_2013.1_src/data/scripts/dock_solv.prm

>  <Rbt.Receptor>
prm/pocket_docking_2.prm

>  <SCORE>
-44.5642

>  <SCORE.INTER>
-39.7183

>  <SCORE.INTER.CONST>
1

>  <SCORE.INTER.POLAR>
-6.00872

>  <SCORE.INTER.ROT>
6

>  <SCORE.INTER.SOLV>
16.7226

>  <SCORE.INTER.VDW>
-19.624

>  <SCORE.INTER.norm>
-1.28124

>  <SCORE.INTRA>
-5.68728

>  <SCORE.INTRA.DIHEDRAL>
-6.17934

>  <SCORE.INTRA.DIHEDRAL.0>
18.4149

>  <SCORE.INTRA.POLAR>
-0.00579116

>  <SCORE.INTRA.POLAR.0>
0

>  <SCORE.INTRA.REPUL>
-0.092687

>  <SCORE.INTRA.REPUL.0>
0.092687

>  <SCORE.INTRA.SOLV>
-0.0403682

>  <SCORE.INTRA.SOLV.lig_0>
-120.37

>  <SCORE.INTRA.VDW>
-2.0943

>  <SCORE.INTRA.VDW.0>
-1.75542

>  <SCORE.INTRA.norm>
-0.183461

>  <SCORE.RESTR>
0.841375

>  <SCORE.RESTR.CAVITY>
0.841375

>  <SCORE.RESTR.norm>
0.0271411

>  <SCORE.SYSTEM>
0

>  <SCORE.SYSTEM.CONST>
0

>  <SCORE.SYSTEM.DIHEDRAL>
0

>  <SCORE.SYSTEM.SOLV>
0

>  <SCORE.SYSTEM.norm>
0

>  <SCORE.heavy>
31

>  <SCORE.norm>
-1.43756

>  <RMSD>
2.469

$$$$
1byj cryst
 OpenBabel11021811383D
libRbt.so/2013.1/901 2013/11/27
 31 33  0  0  0  0  0  0  0  0999 V2000
    5.1154    2.9087   -0.9978 C   0  0  1  0  0  0  0  0  0  0  0  0
    6.0500    4.0350   -1.0027 O   0  0  0  0  0  0  0  0  0  0  0  0
    7.2791    3.9210   -1.7805 C   0  0  2  0  0  0  0  0  0  0  0  0
    7.0002    3.9016   -3.2153 O   0  0  0  0  0  0  0  0  0  0  0  0
    8.0488    2.6380   -1.3427 C   0  0  2  0  0  0  0  0  0  0  0  0
    9.3124    2.4373   -2.0789 N   0  3  0  0  0  0  0  0  0  0  0  0
    7.1351    1.3937   -1.4884 C   0  0  0  0  0  0  0  0  0  0  0  0
    5.8352    1.5671   -0.6885 C   0  0  0  0  0  0  0  0  0  0  0  0
    4.0244    3.1546    0.0592 C   0  0  0  0  0  0  0  0  0  0  0  0
    4.5488    3.3775    1.4130 N   0  3  0  0  0  0  0  0  0  0  0  0
    7.2823    6.3004   -3.7014 C   0  0  1  0  0  0  0  0  0  0  0  0
    6.5966    7.5851   -4.2267 C   0  0  0  0  0  0  0  0  0  0  0  0
    5.3020    7.8783   -3.4218 C   0  0  1  0  0  0  0  0  0  0  0  0
    4.7016    9.1456   -3.8805 N   0  3  0  0  0  0  0  0  0  0  0  0
    4.3090    6.6866   -3.5457 C   0  0  1  0  0  0  0  0  0  0  0  0
    4.9690    5.3476   -3.1316 C   0  0  1  0  0  0  0  0  0  0  0  0
    4.0378    4.3224   -3.4446 O   0  0  0  0  0  0  0  0  0  0  0  0
    6.3418    5.0568   -3.8233 C   0  0  2  0  0  0  0  0  0  0  0  0
    8.5615    6.0876   -4.4013 N   0  3  0  0  0  0  0  0  0  0  0  0
    1.3249    4.7216   -1.5463 C   0  0  0  0  0  0  0  0  0  0  0  0
    0.0906    5.4758   -0.9937 C   0  0  2  0  0  0  0  0  0  0  0  0
   -1.0441    5.0077   -1.7213 O   0  0  0  0  0  0  0  0  0  0  0  0
    0.2885    7.0253   -1.1971 C   0  0  1  0  0  0  0  0  0  0  0  0
    0.7399    7.3964   -2.6506 C   0  0  2  0  0  0  0  0  0  0  0  0
    1.8659    6.4839   -3.1995 C   0  0  1  0  0  0  0  0  0  0  0  0
    3.1587    6.8855   -2.6752 O   0  0  0  0  0  0  0  0  0  0  0  0
    1.5810    5.0821   -2.9299 O   0  0  0  0  0  0  0  0  0  0  0  0
    1.1665    8.7538   -2.7333 O   0  0  0  0  0  0  0  0  0  0  0  0
   -0.9704    7.7479   -0.8346 N   0  3  0  0  0  0  0  0  0  0  0  0
   -0.8281    8.9884   -0.0454 C   0  0  0  0  0  0  0  0  0  0  0  0
   -0.1139    5.0723    0.4873 C   0  0  0  0  0  0  0  0  0  0  0  0
  1  8  1  0  0  0  0
  1  9  1  1  0  0  0
  1  2  1  0  0  0  0
  2  3  1  0  0  0  0
  3  5  1  0  0  0  0
  3  4  1  6  0  0  0
  5  7  1  0  0  0  0
  5  6  1  6  0  0  0
  7  8  1  0  0  0  0
  9 10  1  0  0  0  0
 11 12  1  0  0  0  0
 11 18  1  0  0  0  0
 11 19  1  6  0  0  0
 12 13  1  0  0  0  0
 13 15  1  0  0  0  0
 13 14  1  6  0  0  0
 15 16  1  0  0  0  0
 15 26  1  1  0  0  0
 16 18  1  0  0  0  0
 16 17  1  6  0  0  0
 18  4  1  1  0  0  0
 20 21  1  0  0  0  0
 20 27  1  0  0  0  0
 21 31  1  1  0  0  0
 21 23  1  0  0  0  0
 21 22  1  0  0  0  0
 23 24  1  0  0  0  0
 23 29  1  6  0  0  0
 24 25  1  0  0  0  0
 24 28  1  1  0  0  0
 25 27  1  0  0  0  0
 25 26  1  1  0  0  0
 29 30  1  0  0  0  0
M  CHG  5   6   1  10   1  14   1  19   1  29   1
M  END
>  <CHROM.1>
-56.52143754,61.00630202,64.30278920,177.56412259,-60.41101185,77.49629380
177.56248472,141.10166186,-59.96366250,-58.72972998,-101.68401242,-61.98478109
-147.75421476,3.97817712,5.38502842,-2.08762289,0.28775279,-0.33581348,2.55626795

>  <Name>
1byj cryst

>  <RI>
0

>  <Rbt.Current_Directory>
/home/itssahil/PROJECTS/Mol_Feturizer/New_Systems/rnas/1byj

>  <Rbt.Executable>
rbdock ($Id: //depot/dev/client3/rdock/2013.1/src/exe/rbdock.cxx#4 $)

>  <Rbt.Library>
libRbt.so (2013.1, Build901 2013/11/27)

>  <Rbt.Parameter_File>
/export/apps/rDock/src/rDock_2013.1_src/data/scripts/dock_solv.prm

>  <Rbt.Receptor>
prm/pocket_docking_2.prm

>  <SCORE>
-43.0198

>  <SCORE.INTER>
-38.0041

>  <SCORE.INTER.CONST>
1

>  <SCORE.INTER.POLAR>
-5.94314

>  <SCORE.INTER.ROT>
6

>  <SCORE.INTER.SOLV>
17.9525

>  <SCORE.INTER.VDW>
-19.1097

>  <SCORE.INTER.norm>
-1.22594

>  <SCORE.INTRA>
-6.09189

>  <SCORE.INTRA.DIHEDRAL>
-5.08637

>  <SCORE.INTRA.DIHEDRAL.0>
18.4149

>  <SCORE.INTRA.POLAR>
-0.572744

>  <SCORE.INTRA.POLAR.0>
0

>  <SCORE.INTRA.REPUL>
-0.092687

>  <SCORE.INTRA.REPUL.0>
0.092687

>  <SCORE.INTRA.SOLV>
-0.635992

>  <SCORE.INTRA.SOLV.lig_0>
-120.37

>  <SCORE.INTRA.VDW>
-0.819945

>  <SCORE.INTRA.VDW.0>
-1.75542

>  <SCORE.INTRA.norm>
-0.196513

>  <SCORE.RESTR>
1.0762

>  <SCORE.RESTR.CAVITY>
1.0762

>  <SCORE.RESTR.norm>
0.0347162

>  <SCORE.SYSTEM>
0

>  <SCORE.SYSTEM.CONST>
0

>  <SCORE.SYSTEM.DIHEDRAL>
0

>  <SCORE.SYSTEM.SOLV>
0

>  <SCORE.SYSTEM.norm>
0

>  <SCORE.heavy>
31

>  <SCORE.norm>
-1.38773

>  <RMSD>
2.471

$$$$
1byj cryst
 OpenBabel11021811383D
libRbt.so/2013.1/901 2013/11/27
 31 33  0  0  0  0  0  0  0  0999 V2000
    5.0560    2.9428   -0.9515 C   0  0  1  0  0  0  0  0  0  0  0  0
    6.0166    4.0471   -0.9493 O   0  0  0  0  0  0  0  0  0  0  0  0
    7.2477    3.9052   -1.7192 C   0  0  2  0  0  0  0  0  0  0  0  0
    6.9779    3.8933   -3.1558 O   0  0  0  0  0  0  0  0  0  0  0  0
    7.9845    2.6042   -1.2776 C   0  0  2  0  0  0  0  0  0  0  0  0
    9.2479    2.3747   -2.0057 N   0  3  0  0  0  0  0  0  0  0  0  0
    7.0431    1.3817   -1.4303 C   0  0  0  0  0  0  0  0  0  0  0  0
    5.7424    1.5846   -0.6388 C   0  0  0  0  0  0  0  0  0  0  0  0
    3.9642    3.2133    0.0986 C   0  0  0  0  0  0  0  0  0  0  0  0
    4.4781    3.3503    1.4677 N   0  3  0  0  0  0  0  0  0  0  0  0
    7.2074    6.3002   -3.6293 C   0  0  1  0  0  0  0  0  0  0  0  0
    6.4932    7.5728   -4.1462 C   0  0  0  0  0  0  0  0  0  0  0  0
    5.1944    7.8338   -3.3370 C   0  0  1  0  0  0  0  0  0  0  0  0
    4.5659    9.0903   -3.7875 N   0  3  0  0  0  0  0  0  0  0  0  0
    4.2269    6.6217   -3.4654 C   0  0  1  0  0  0  0  0  0  0  0  0
    4.9163    5.2949   -3.0600 C   0  0  1  0  0  0  0  0  0  0  0  0
    4.0067    4.2517   -3.3767 O   0  0  0  0  0  0  0  0  0  0  0  0
    6.2935    5.0374   -3.7561 C   0  0  2  0  0  0  0  0  0  0  0  0
    8.4893    6.1187   -4.3329 N   0  3  0  0  0  0  0  0  0  0  0  0
    1.0519    4.6347   -1.8308 C   0  0  0  0  0  0  0  0  0  0  0  0
   -0.1329    5.3923   -1.1829 C   0  0  2  0  0  0  0  0  0  0  0  0
   -1.2829    5.1336   -1.9870 O   0  0  0  0  0  0  0  0  0  0  0  0
    0.1895    6.9337   -1.1427 C   0  0  1  0  0  0  0  0  0  0  0  0
    0.7027    7.4850   -2.5163 C   0  0  2  0  0  0  0  0  0  0  0  0
    1.7671    6.5795   -3.1863 C   0  0  1  0  0  0  0  0  0  0  0  0
    3.0745    6.7912   -2.5915 O   0  0  0  0  0  0  0  0  0  0  0  0
    1.3680    5.1805   -3.1393 O   0  0  0  0  0  0  0  0  0  0  0  0
    1.2352    8.8004   -2.3839 O   0  0  0  0  0  0  0  0  0  0  0  0
   -1.0177    7.6913   -0.6877 N   0  3  0  0  0  0  0  0  0  0  0  0
   -0.7825    8.9736    0.0068 C   0  0  0  0  0  0  0  0  0  0  0  0
   -0.4032    4.7851    0.2158 C   0  0  0  0  0  0  0  0  0  0  0  0
  1  8  1  0  0  0  0
  1  9  1  1  0  0  0
  1  2  1  0  0  0  0
  2  3  1  0  0  0  0
  3  5  1  0  0  0  0
  3  4  1  6  0  0  0
  5  7  1  0  0  0  0
  5  6  1  6  0  0  0
  7  8  1  0  0  0  0
  9 10  1  0  0  0  0
 11 12  1  0  0  0  0
 11 18  1  0  0  0  0
 11 19  1  6  0  0  0
 12 13  1  0  0  0  0
 13 15  1  0  0  0  0
 13 14  1  6  0  0  0
 15 16  1  0  0  0  0
 15 26  1  1  0  0  0
 16 18  1  0  0  0  0
 16 17  1  6  0  0  0
 18  4  1  1  0  0  0
 20 21  1  0  0  0  0
 20 27  1  0  0  0  0
 21 31  1  1  0  0  0
 21 23  1  0  0  0  0
 21 22  1  0  0  0  0
 23 24  1  0  0  0  0
 23 29  1  6  0  0  0
 24 25  1  0  0  0  0
 24 28  1  1  0  0  0
 25 27  1  0  0  0  0
 25 26  1  1  0  0  0
 29 30  1  0  0  0  0
M  CHG  5   6   1  10   1  14   1  19   1  29   1
M  END
>  <CHROM.1>
-59.67085811,58.15035826,64.89161631,-57.04794927,-67.71504278,75.93953588
-179.40715731,131.04497792,-63.38671366,-62.67148958,-86.90653153,-174.35194335
-148.39266051,3.89100846,5.36619138,-2.06075316,0.29610778,-0.31584933,2.57466025

>  <Name>
1byj cryst

>  <RI>
0

>  <Rbt.Current_Directory>
/home/itssahil/PROJECTS/Mol_Feturizer/New_Systems/rnas/1byj

>  <Rbt.Executable>
rbdock ($Id: //depot/dev/client3/rdock/2013.1/src/exe/rbdock.cxx#4 $)

>  <Rbt.Library>
libRbt.so (2013.1, Build901 2013/11/27)

>  <Rbt.Parameter_File>
/export/apps/rDock/src/rDock_2013.1_src/data/scripts/dock_solv.prm

>  <Rbt.Receptor>
prm/pocket_docking_2.prm

>  <SCORE>
-42.6989

>  <SCORE.INTER>
-38.3544

>  <SCORE.INTER.CONST>
1

>  <SCORE.INTER.POLAR>
-5.96665

>  <SCORE.INTER.ROT>
6

>  <SCORE.INTER.SOLV>
17.5069

>  <SCORE.INTER.VDW>
-19.1164

>  <SCORE.INTER.norm>
-1.23724

>  <SCORE.INTRA>
-5.27622

>  <SCORE.INTRA.DIHEDRAL>
-4.87845

>  <SCORE.INTRA.DIHEDRAL.0>
18.4149

>  <SCORE.INTRA.POLAR>
-0.237805

>  <SCORE.INTRA.POLAR.0>
0

>  <SCORE.INTRA.REPUL>
-0.092687

>  <SCORE.INTRA.REPUL.0>
0.092687

>  <SCORE.INTRA.SOLV>
-0.453535

>  <SCORE.INTRA.SOLV.lig_0>
-120.37

>  <SCORE.INTRA.VDW>
-1.33825

>  <SCORE.INTRA.VDW.0>
-1.75542

>  <SCORE.INTRA.norm>
-0.170201

>  <SCORE.RESTR>
0.931653

>  <SCORE.RESTR.CAVITY>
0.931653

>  <SCORE.RESTR.norm>
0.0300533

>  <SCORE.SYSTEM>
0

>  <SCORE.SYSTEM.CONST>
0

>  <SCORE.SYSTEM.DIHEDRAL>
0

>  <SCORE.SYSTEM.SOLV>
0

>  <SCORE.SYSTEM.norm>
0

>  <SCORE.heavy>
31

>  <SCORE.norm>
-1.37739

>  <RMSD>
2.472

$$$$
1byj cryst
 OpenBabel11021811383D
libRbt.so/2013.1/901 2013/11/27
 31 33  0  0  0  0  0  0  0  0999 V2000
    5.2943    2.7501    0.2643 C   0  0  1  0  0  0  0  0  0  0  0  0
    6.1689    3.8677   -0.0937 O   0  0  0  0  0  0  0  0  0  0  0  0
    7.3189    3.6088   -0.9533 C   0  0  2  0  0  0  0  0  0  0  0  0
    6.9006    3.2554   -2.3087 O   0  0  0  0  0  0  0  0  0  0  0  0
    8.1887    2.4786   -0.3237 C   0  0  2  0  0  0  0  0  0  0  0  0
    9.3814    2.1456   -1.1273 N   0  3  0  0  0  0  0  0  0  0  0  0
    7.3258    1.2123   -0.0872 C   0  0  0  0  0  0  0  0  0  0  0  0
    6.1047    1.5323    0.7880 C   0  0  0  0  0  0  0  0  0  0  0  0
    4.3029    3.2046    1.3499 C   0  0  0  0  0  0  0  0  0  0  0  0
    3.3416    2.1677    1.7477 N   0  3  0  0  0  0  0  0  0  0  0  0
    7.2698    5.4950   -3.2668 C   0  0  1  0  0  0  0  0  0  0  0  0
    6.6343    6.6666   -4.0542 C   0  0  0  0  0  0  0  0  0  0  0  0
    5.3418    7.1579   -3.3486 C   0  0  1  0  0  0  0  0  0  0  0  0
    4.7900    8.3233   -4.0657 N   0  3  0  0  0  0  0  0  0  0  0  0
    4.3100    5.9975   -3.2455 C   0  0  1  0  0  0  0  0  0  0  0  0
    4.9193    4.7509   -2.5564 C   0  0  1  0  0  0  0  0  0  0  0  0
    3.9570    3.7131   -2.6710 O   0  0  0  0  0  0  0  0  0  0  0  0
    6.2887    4.2826   -3.1502 C   0  0  2  0  0  0  0  0  0  0  0  0
    8.5486    5.1043   -3.8862 N   0  3  0  0  0  0  0  0  0  0  0  0
    0.6670    4.6407   -2.4089 C   0  0  0  0  0  0  0  0  0  0  0  0
   -0.4139    5.4736   -1.6771 C   0  0  2  0  0  0  0  0  0  0  0  0
   -1.4835    5.6719   -2.6006 O   0  0  0  0  0  0  0  0  0  0  0  0
    0.2020    6.8516   -1.2262 C   0  0  1  0  0  0  0  0  0  0  0  0
    0.9815    7.5760   -2.3758 C   0  0  2  0  0  0  0  0  0  0  0  0
    1.9186    6.6351   -3.1748 C   0  0  1  0  0  0  0  0  0  0  0  0
    3.1577    6.4054   -2.4539 O   0  0  0  0  0  0  0  0  0  0  0  0
    1.2457    5.3890   -3.5111 O   0  0  0  0  0  0  0  0  0  0  0  0
    1.7451    8.6716   -1.8780 O   0  0  0  0  0  0  0  0  0  0  0  0
   -0.8767    7.7340   -0.6822 N   0  3  0  0  0  0  0  0  0  0  0  0
   -0.4642    8.7954    0.2587 C   0  0  0  0  0  0  0  0  0  0  0  0
   -0.9716    4.6360   -0.5000 C   0  0  0  0  0  0  0  0  0  0  0  0
  1  8  1  0  0  0  0
  1  9  1  1  0  0  0
  1  2  1  0  0  0  0
  2  3  1  0  0  0  0
  3  5  1  0  0  0  0
  3  4  1  6  0  0  0
  5  7  1  0  0  0  0
  5  6  1  6  0  0  0
  7  8  1  0  0  0  0
  9 10  1  0  0  0  0
 11 12  1  0  0  0  0
 11 18  1  0  0  0  0
 11 19  1  6  0  0  0
 12 13  1  0  0  0  0
 13 15  1  0  0  0  0
 13 14  1  6  0  0  0
 15 16  1  0  0  0  0
 15 26  1  1  0  0  0
 16 18  1  0  0  0  0
 16 17  1  6  0  0  0
 18  4  1  1  0  0  0
 20 21  1  0  0  0  0
 20 27  1  0  0  0  0
 21 31  1  1  0  0  0
 21 23  1  0  0  0  0
 21 22  1  0  0  0  0
 23 24  1  0  0  0  0
 23 29  1  6  0  0  0
 24 25  1  0  0  0  0
 24 28  1  1  0  0  0
 25 27  1  0  0  0  0
 25 26  1  1  0  0  0
 29 30  1  0  0  0  0
M  CHG  5   6   1  10   1  14   1  19   1  29   1
M  END
>  <CHROM.1>
177.83872340,69.07031353,56.66403258,178.47404603,-53.89048453,-88.74748365
-175.74846239,107.88048707,179.47562661,178.96620988,-82.83998555,-72.21874854
-157.05145007,3.91937503,5.04876675,-1.71896386,0.38019894,-0.28613466,2.41418950

>  <Name>
1byj cryst

>  <RI>
0

>  <Rbt.Current_Directory>
/home/itssahil/PROJECTS/Mol_Feturizer/New_Systems/rnas/1byj

>  <Rbt.Executable>
rbdock ($Id: //depot/dev/client3/rdock/2013.1/src/exe/rbdock.cxx#4 $)

>  <Rbt.Library>
libRbt.so (2013.1, Build901 2013/11/27)

>  <Rbt.Parameter_File>
/export/apps/rDock/src/rDock_2013.1_src/data/scripts/dock_solv.prm

>  <Rbt.Receptor>
prm/pocket_docking_3.prm

>  <SCORE>
-40.808

>  <SCORE.INTER>
-36.1768

>  <SCORE.INTER.CONST>
1

>  <SCORE.INTER.POLAR>
-5.0344

>  <SCORE.INTER.ROT>
6

>  <SCORE.INTER.SOLV>
17.6708

>  <SCORE.INTER.VDW>
-20.8268

>  <SCORE.INTER.norm>
-1.16699

>  <SCORE.INTRA>
-4.63123

>  <SCORE.INTRA.DIHEDRAL>
-5.07781

>  <SCORE.INTRA.DIHEDRAL.0>
18.4149

>  <SCORE.INTRA.POLAR>
0

>  <SCORE.INTRA.POLAR.0>
0

>  <SCORE.INTRA.REPUL>
-0.092687

>  <SCORE.INTRA.REPUL.0>
0.092687

>  <SCORE.INTRA.SOLV>
-0.590299

>  <SCORE.INTRA.SOLV.lig_0>
-120.37

>  <SCORE.INTRA.VDW>
-1.33374

>  <SCORE.INTRA.VDW.0>
-1.75542

>  <SCORE.INTRA.norm>
-0.149394

>  <SCORE.RESTR>
0

>  <SCORE.RESTR.CAVITY>
0

>  <SCORE.RESTR.norm>
0

>  <SCORE.SYSTEM>
0

>  <SCORE.SYSTEM.CONST>
0

>  <SCORE.SYSTEM.DIHEDRAL>
0

>  <SCORE.SYSTEM.SOLV>
0

>  <SCORE.SYSTEM.norm>
0

>  <SCORE.heavy>
31

>  <SCORE.norm>
-1.31639

>  <RMSD>
2.474

$$$$
1byj cryst
 OpenBabel11021811383D
libRbt.so/2013.1/901 2013/11/27
 31 33  0  0  0  0  0  0  0  0999 V2000
    5.5227    2.9494    0.1576 C   0  0  1  0  0  0  0  0  0  0  0  0
    6.4529    4.0348   -0.1569 O   0  0  0  0  0  0  0  0  0  0  0  0
    7.6119    3.7427   -0.9934 C   0  0  2  0  0  0  0  0  0  0  0  0
    7.2130    3.4333   -2.3653 O   0  0  0  0  0  0  0  0  0  0  0  0
    8.4167    2.5643   -0.3656 C   0  0  2  0  0  0  0  0  0  0  0  0
    9.6137    2.1953   -1.1466 N   0  3  0  0  0  0  0  0  0  0  0  0
    7.4948    1.3323   -0.1753 C   0  0  0  0  0  0  0  0  0  0  0  0
    6.2670    1.6882    0.6764 C   0  0  0  0  0  0  0  0  0  0  0  0
    4.5248    3.4258    1.2278 C   0  0  0  0  0  0  0  0  0  0  0  0
    3.4549    2.4608    1.5133 N   0  3  0  0  0  0  0  0  0  0  0  0
    7.2367    5.8013   -3.0453 C   0  0  1  0  0  0  0  0  0  0  0  0
    6.4484    6.9365   -3.7430 C   0  0  0  0  0  0  0  0  0  0  0  0
    5.0563    7.1182   -3.0806 C   0  0  1  0  0  0  0  0  0  0  0  0
    4.3481    8.2529   -3.7033 N   0  3  0  0  0  0  0  0  0  0  0  0
    4.2372    5.7986   -3.1772 C   0  0  1  0  0  0  0  0  0  0  0  0
    5.0176    4.5974   -2.5870 C   0  0  1  0  0  0  0  0  0  0  0  0
    4.2567    3.4353   -2.8813 O   0  0  0  0  0  0  0  0  0  0  0  0
    6.4758    4.4376   -3.1307 C   0  0  2  0  0  0  0  0  0  0  0  0
    8.5934    5.7053   -3.6122 N   0  3  0  0  0  0  0  0  0  0  0  0
    0.3541    4.3774   -2.4121 C   0  0  0  0  0  0  0  0  0  0  0  0
   -0.6670    5.3228   -1.7331 C   0  0  2  0  0  0  0  0  0  0  0  0
   -1.6894    5.5900   -2.6920 O   0  0  0  0  0  0  0  0  0  0  0  0
    0.0577    6.6524   -1.2990 C   0  0  1  0  0  0  0  0  0  0  0  0
    0.9293    7.2729   -2.4432 C   0  0  2  0  0  0  0  0  0  0  0  0
    1.7994    6.2309   -3.1908 C   0  0  1  0  0  0  0  0  0  0  0  0
    2.9932    5.9118   -2.4287 O   0  0  0  0  0  0  0  0  0  0  0  0
    1.0267    5.0408   -3.5155 O   0  0  0  0  0  0  0  0  0  0  0  0
    1.7745    8.3095   -1.9509 O   0  0  0  0  0  0  0  0  0  0  0  0
   -0.9518    7.6419   -0.8088 N   0  3  0  0  0  0  0  0  0  0  0  0
   -0.4372    8.8238   -0.0876 C   0  0  0  0  0  0  0  0  0  0  0  0
   -1.3288    4.5707   -0.5522 C   0  0  0  0  0  0  0  0  0  0  0  0
  1  8  1  0  0  0  0
  1  9  1  1  0  0  0
  1  2  1  0  0  0  0
  2  3  1  0  0  0  0
  3  5  1  0  0  0  0
  3  4  1  6  0  0  0
  5  7  1  0  0  0  0
  5  6  1  6  0  0  0
  7  8  1  0  0  0  0
  9 10  1  0  0  0  0
 11 12  1  0  0  0  0
 11 18  1  0  0  0  0
 11 19  1  6  0  0  0
 12 13  1  0  0  0  0
 13 15  1  0  0  0  0
 13 14  1  6  0  0  0
 15 16  1  0  0  0  0
 15 26  1  1  0  0  0
 16 18  1  0  0  0  0
 16 17  1  6  0  0  0
 18  4  1  1  0  0  0
 20 21  1  0  0  0  0
 20 27  1  0  0  0  0
 21 31  1  1  0  0  0
 21 23  1  0  0  0  0
 21 22  1  0  0  0  0
 23 24  1  0  0  0  0
 23 29  1  6  0  0  0
 24 25  1  0  0  0  0
 24 28  1  1  0  0  0
 25 27  1  0  0  0  0
 25 26  1  1  0  0  0
 29 30  1  0  0  0  0
M  CHG  5   6   1  10   1  14   1  19   1  29   1
M  END
>  <CHROM.1>
173.77422992,59.51113331,50.57539384,167.15402168,66.67349506,164.24006721
60.81235131,98.30236961,-60.13554073,178.60155825,-72.02940337,48.98848744
-137.93914909,3.91975379,5.03235891,-1.73440842,0.34623241,-0.21593308,2.45378096

>  <Name>
1byj cryst

>  <RI>
0

>  <Rbt.Current_Directory>
/home/itssahil/PROJECTS/Mol_Feturizer/New_Systems/rnas/1byj

>  <Rbt.Executable>
rbdock ($Id: //depot/dev/client3/rdock/2013.1/src/exe/rbdock.cxx#4 $)

>  <Rbt.Library>
libRbt.so (2013.1, Build901 2013/11/27)

>  <Rbt.Parameter_File>
/export/apps/rDock/src/rDock_2013.1_src/data/scripts/dock_solv.prm

>  <Rbt.Receptor>
prm/pocket_docking_2.prm

>  <SCORE>
-42.3284

>  <SCORE.INTER>
-35.0673

>  <SCORE.INTER.CONST>
1

>  <SCORE.INTER.POLAR>
-5.00309

>  <SCORE.INTER.ROT>
6

>  <SCORE.INTER.SOLV>
18.8813

>  <SCORE.INTER.VDW>
-20.595

>  <SCORE.INTER.norm>
-1.1312

>  <SCORE.INTRA>
-7.78714

>  <SCORE.INTRA.DIHEDRAL>
-4.65606

>  <SCORE.INTRA.DIHEDRAL.0>
18.4149

>  <SCORE.INTRA.POLAR>
-0.918755

>  <SCORE.INTRA.POLAR.0>
0

>  <SCORE.INTRA.REPUL>
-0.092687

>  <SCORE.INTRA.REPUL.0>
0.092687

>  <SCORE.INTRA.SOLV>
-0.332863

>  <SCORE.INTRA.SOLV.lig_0>
-120.37

>  <SCORE.INTRA.VDW>
-1.70547

>  <SCORE.INTRA.VDW.0>
-1.75542

>  <SCORE.INTRA.norm>
-0.251198

>  <SCORE.RESTR>
0.525971

>  <SCORE.RESTR.CAVITY>
0.525971

>  <SCORE.RESTR.norm>
0.0169668

>  <SCORE.SYSTEM>
0

>  <SCORE.SYSTEM.CONST>
0

>  <SCORE.SYSTEM.DIHEDRAL>
0

>  <SCORE.SYSTEM.SOLV>
0

>  <SCORE.SYSTEM.norm>
0

>  <SCORE.heavy>
31

>  <SCORE.norm>
-1.36543

>  <RMSD>
2.475

$$$$
1byj cryst
 OpenBabel11021811383D
libRbt.so/2013.1/901 2013/11/27
 31 33  0  0  0  0  0  0  0  0999 V2000
    5.3981    2.8954   -0.6484 C   0  0  1  0  0  0  0  0  0  0  0  0
    6.2765    4.0543   -0.8143 O   0  0  0  0  0  0  0  0  0  0  0  0
    7.4122    3.9469   -1.7238 C   0  0  2  0  0  0  0  0  0  0  0  0
    6.9721    3.8438   -3.1139 O   0  0  0  0  0  0  0  0  0  0  0  0
    8.2816    2.7177   -1.3196 C   0  0  2  0  0  0  0  0  0  0  0  0
    9.4602    2.5272   -2.1878 N   0  3  0  0  0  0  0  0  0  0  0  0
    7.4119    1.4342   -1.3000 C   0  0  0  0  0  0  0  0  0  0  0  0
    6.2059    1.5993   -0.3631 C   0  0  0  0  0  0  0  0  0  0  0  0
    4.4257    3.1539    0.5160 C   0  0  0  0  0  0  0  0  0  0  0  0
    3.8659    4.5117    0.5318 N   0  3  0  0  0  0  0  0  0  0  0  0
    7.1987    6.2477   -3.6040 C   0  0  1  0  0  0  0  0  0  0  0  0
    6.4841    7.5150   -4.1329 C   0  0  0  0  0  0  0  0  0  0  0  0
    5.1816    7.7793   -3.3306 C   0  0  1  0  0  0  0  0  0  0  0  0
    4.5524    9.0313   -3.7927 N   0  3  0  0  0  0  0  0  0  0  0  0
    4.2170    6.5645   -3.4540 C   0  0  1  0  0  0  0  0  0  0  0  0
    4.9074    5.2420   -3.0363 C   0  0  1  0  0  0  0  0  0  0  0  0
    4.0010    4.1948   -3.3489 O   0  0  0  0  0  0  0  0  0  0  0  0
    6.2878    4.9822   -3.7251 C   0  0  2  0  0  0  0  0  0  0  0  0
    8.4837    6.0636   -4.3013 N   0  3  0  0  0  0  0  0  0  0  0  0
    0.7110    4.7978   -2.4028 C   0  0  0  0  0  0  0  0  0  0  0  0
   -0.3851    5.5529   -1.6116 C   0  0  2  0  0  0  0  0  0  0  0  0
   -1.5159    5.6699   -2.4741 O   0  0  0  0  0  0  0  0  0  0  0  0
    0.1534    6.9734   -1.1952 C   0  0  1  0  0  0  0  0  0  0  0  0
    0.8132    7.7483   -2.3861 C   0  0  2  0  0  0  0  0  0  0  0  0
    1.7703    6.8748   -3.2364 C   0  0  1  0  0  0  0  0  0  0  0  0
    3.0608    6.7380   -2.5857 O   0  0  0  0  0  0  0  0  0  0  0  0
    1.1718    5.5820   -3.5353 O   0  0  0  0  0  0  0  0  0  0  0  0
    1.5219    8.8980   -1.9311 O   0  0  0  0  0  0  0  0  0  0  0  0
   -0.9546    7.7774   -0.5915 N   0  3  0  0  0  0  0  0  0  0  0  0
   -0.5670    8.9066    0.2783 C   0  0  0  0  0  0  0  0  0  0  0  0
   -0.8143    4.6813   -0.4057 C   0  0  0  0  0  0  0  0  0  0  0  0
  1  8  1  0  0  0  0
  1  9  1  1  0  0  0
  1  2  1  0  0  0  0
  2  3  1  0  0  0  0
  3  5  1  0  0  0  0
  3  4  1  6  0  0  0
  5  7  1  0  0  0  0
  5  6  1  6  0  0  0
  7  8  1  0  0  0  0
  9 10  1  0  0  0  0
 11 12  1  0  0  0  0
 11 18  1  0  0  0  0
 11 19  1  6  0  0  0
 12 13  1  0  0  0  0
 13 15  1  0  0  0  0
 13 14  1  6  0  0  0
 15 16  1  0  0  0  0
 15 26  1  1  0  0  0
 16 18  1  0  0  0  0
 16 17  1  6  0  0  0
 18  4  1  1  0  0  0
 20 21  1  0  0  0  0
 20 27  1  0  0  0  0
 21 31  1  1  0  0  0
 21 23  1  0  0  0  0
 21 22  1  0  0  0  0
 23 24  1  0  0  0  0
 23 29  1  6  0  0  0
 24 25  1  0  0  0  0
 24 28  1  1  0  0  0
 25 27  1  0  0  0  0
 25 26  1  1  0  0  0
 29 30  1  0  0  0  0
M  CHG  5   6   1  10   1  14   1  19   1  29   1
M  END
>  <CHROM.1>
42.48656989,65.60259985,55.96740213,56.58353266,179.61180917,-43.64888261
-58.97833042,115.10752890,179.67415586,176.42462967,-80.22337188,65.45713026
-150.21921490,3.92083930,5.45994269,-2.10661486,0.30668466,-0.29502451,2.58264869

>  <Name>
1byj cryst

>  <RI>
0

>  <Rbt.Current_Directory>
/home/itssahil/PROJECTS/Mol_Feturizer/New_Systems/rnas/1byj

>  <Rbt.Executable>
rbdock ($Id: //depot/dev/client3/rdock/2013.1/src/exe/rbdock.cxx#4 $)

>  <Rbt.Library>
libRbt.so (2013.1, Build901 2013/11/27)

>  <Rbt.Parameter_File>
/export/apps/rDock/src/rDock_2013.1_src/data/scripts/dock_solv.prm

>  <Rbt.Receptor>
prm/pocket_docking_2.prm

>  <SCORE>
-43.7229

>  <SCORE.INTER>
-39.882

>  <SCORE.INTER.CONST>
1

>  <SCORE.INTER.POLAR>
-5.89622

>  <SCORE.INTER.ROT>
6

>  <SCORE.INTER.SOLV>
17.7174

>  <SCORE.INTER.VDW>
-20.4398

>  <SCORE.INTER.norm>
-1.28652

>  <SCORE.INTRA>
-4.79416

>  <SCORE.INTRA.DIHEDRAL>
-4.34882

>  <SCORE.INTRA.DIHEDRAL.0>
18.4149

>  <SCORE.INTRA.POLAR>
-0.0146921

>  <SCORE.INTRA.POLAR.0>
0

>  <SCORE.INTRA.REPUL>
-0.092687

>  <SCORE.INTRA.REPUL.0>
0.092687

>  <SCORE.INTRA.SOLV>
1.69318

>  <SCORE.INTRA.SOLV.lig_0>
-120.37

>  <SCORE.INTRA.VDW>
-2.95295

>  <SCORE.INTRA.VDW.0>
-1.75542

>  <SCORE.INTRA.norm>
-0.15465

>  <SCORE.RESTR>
0.953308

>  <SCORE.RESTR.CAVITY>
0.953308

>  <SCORE.RESTR.norm>
0.0307519

>  <SCORE.SYSTEM>
0

>  <SCORE.SYSTEM.CONST>
0

>  <SCORE.SYSTEM.DIHEDRAL>
0

>  <SCORE.SYSTEM.SOLV>
0

>  <SCORE.SYSTEM.norm>
0

>  <SCORE.heavy>
31

>  <SCORE.norm>
-1.41041

>  <RMSD>
2.481

$$$$
1byj cryst
 OpenBabel11021811383D
libRbt.so/2013.1/901 2013/11/27
 31 33  0  0  0  0  0  0  0  0999 V2000
    5.0724    3.0633   -0.8353 C   0  0  1  0  0  0  0  0  0  0  0  0
    6.0630    4.1399   -0.8740 O   0  0  0  0  0  0  0  0  0  0  0  0
    7.2825    3.9412   -1.6499 C   0  0  2  0  0  0  0  0  0  0  0  0
    6.9990    3.8946   -3.0832 O   0  0  0  0  0  0  0  0  0  0  0  0
    7.9872    2.6338   -1.1762 C   0  0  2  0  0  0  0  0  0  0  0  0
    9.2369    2.3479   -1.9080 N   0  3  0  0  0  0  0  0  0  0  0  0
    7.0111    1.4340   -1.2845 C   0  0  0  0  0  0  0  0  0  0  0  0
    5.7240    1.6962   -0.4882 C   0  0  0  0  0  0  0  0  0  0  0  0
    3.9983    3.3948    0.2157 C   0  0  0  0  0  0  0  0  0  0  0  0
    4.5450    3.7485    1.5322 N   0  3  0  0  0  0  0  0  0  0  0  0
    7.2238    6.2952   -3.5898 C   0  0  1  0  0  0  0  0  0  0  0  0
    6.5095    7.5574   -4.1312 C   0  0  0  0  0  0  0  0  0  0  0  0
    5.2028    7.8253   -3.3370 C   0  0  1  0  0  0  0  0  0  0  0  0
    4.5736    9.0727   -3.8112 N   0  3  0  0  0  0  0  0  0  0  0  0
    4.2408    6.6079   -3.4560 C   0  0  1  0  0  0  0  0  0  0  0  0
    4.9316    5.2897   -3.0254 C   0  0  1  0  0  0  0  0  0  0  0  0
    4.0285    4.2386   -3.3346 O   0  0  0  0  0  0  0  0  0  0  0  0
    6.3156    5.0273   -3.7059 C   0  0  2  0  0  0  0  0  0  0  0  0
    8.5124    6.1083   -4.2797 N   0  3  0  0  0  0  0  0  0  0  0  0
    0.7760    4.7885   -2.4506 C   0  0  0  0  0  0  0  0  0  0  0  0
   -0.3423    5.5074   -1.6569 C   0  0  2  0  0  0  0  0  0  0  0  0
   -1.4704    5.6087   -2.5249 O   0  0  0  0  0  0  0  0  0  0  0  0
    0.1599    6.9349   -1.2193 C   0  0  1  0  0  0  0  0  0  0  0  0
    0.8083    7.7401   -2.3962 C   0  0  2  0  0  0  0  0  0  0  0  0
    1.7908    6.9004   -3.2514 C   0  0  1  0  0  0  0  0  0  0  0  0
    3.0804    6.7857   -2.5944 O   0  0  0  0  0  0  0  0  0  0  0  0
    1.2248    5.5977   -3.5703 O   0  0  0  0  0  0  0  0  0  0  0  0
    1.4869    8.9004   -1.9224 O   0  0  0  0  0  0  0  0  0  0  0  0
   -0.9703    7.7048   -0.6125 N   0  3  0  0  0  0  0  0  0  0  0  0
   -0.6154    8.8630    0.2327 C   0  0  0  0  0  0  0  0  0  0  0  0
   -0.7580    4.6108   -0.4647 C   0  0  0  0  0  0  0  0  0  0  0  0
  1  8  1  0  0  0  0
  1  9  1  1  0  0  0
  1  2  1  0  0  0  0
  2  3  1  0  0  0  0
  3  5  1  0  0  0  0
  3  4  1  6  0  0  0
  5  7  1  0  0  0  0
  5  6  1  6  0  0  0
  7  8  1  0  0  0  0
  9 10  1  0  0  0  0
 11 12  1  0  0  0  0
 11 18  1  0  0  0  0
 11 19  1  6  0  0  0
 12 13  1  0  0  0  0
 13 15  1  0  0  0  0
 13 14  1  6  0  0  0
 15 16  1  0  0  0  0
 15 26  1  1  0  0  0
 16 18  1  0  0  0  0
 16 17  1  6  0  0  0
 18  4  1  1  0  0  0
 20 21  1  0  0  0  0
 20 27  1  0  0  0  0
 21 31  1  1  0  0  0
 21 23  1  0  0  0  0
 21 22  1  0  0  0  0
 23 24  1  0  0  0  0
 23 29  1  6  0  0  0
 24 25  1  0  0  0  0
 24 28  1  1  0  0  0
 25 27  1  0  0  0  0
 25 26  1  1  0  0  0
 29 30  1  0  0  0  0
M  CHG  5   6   1  10   1  14   1  19   1  29   1
M  END
>  <CHROM.1>
-51.28623722,56.88044842,63.56981778,54.79387890,59.48664772,-45.24028928
70.59845151,115.78481088,-67.74049417,176.40857488,-77.97162708,-174.53249687
-152.11084306,3.88127318,5.44839307,-2.08101863,0.31134913,-0.29204524,2.56229147

>  <Name>
1byj cryst

>  <RI>
0

>  <Rbt.Current_Directory>
/home/itssahil/PROJECTS/Mol_Feturizer/New_Systems/rnas/1byj

>  <Rbt.Executable>
rbdock ($Id: //depot/dev/client3/rdock/2013.1/src/exe/rbdock.cxx#4 $)

>  <Rbt.Library>
libRbt.so (2013.1, Build901 2013/11/27)

>  <Rbt.Parameter_File>
/export/apps/rDock/src/rDock_2013.1_src/data/scripts/dock_solv.prm

>  <Rbt.Receptor>
prm/pocket_docking_2.prm

>  <SCORE>
-43.8588

>  <SCORE.INTER>
-40.0943

>  <SCORE.INTER.CONST>
1

>  <SCORE.INTER.POLAR>
-5.99928

>  <SCORE.INTER.ROT>
6

>  <SCORE.INTER.SOLV>
17.1583

>  <SCORE.INTER.VDW>
-20.0514

>  <SCORE.INTER.norm>
-1.29336

>  <SCORE.INTRA>
-4.58336

>  <SCORE.INTRA.DIHEDRAL>
-5.26679

>  <SCORE.INTRA.DIHEDRAL.0>
18.4149

>  <SCORE.INTRA.POLAR>
-0.00324574

>  <SCORE.INTRA.POLAR.0>
0

>  <SCORE.INTRA.REPUL>
-0.092687

>  <SCORE.INTRA.REPUL.0>
0.092687

>  <SCORE.INTRA.SOLV>
0.0482965

>  <SCORE.INTRA.SOLV.lig_0>
-120.37

>  <SCORE.INTRA.VDW>
-1.49964

>  <SCORE.INTRA.VDW.0>
-1.75542

>  <SCORE.INTRA.norm>
-0.14785

>  <SCORE.RESTR>
0.818814

>  <SCORE.RESTR.CAVITY>
0.818814

>  <SCORE.RESTR.norm>
0.0264134

>  <SCORE.SYSTEM>
0

>  <SCORE.SYSTEM.CONST>
0

>  <SCORE.SYSTEM.DIHEDRAL>
0

>  <SCORE.SYSTEM.SOLV>
0

>  <SCORE.SYSTEM.norm>
0

>  <SCORE.heavy>
31

>  <SCORE.norm>
-1.4148

>  <RMSD>
2.482

$$$$
1byj cryst
 OpenBabel11021811383D
libRbt.so/2013.1/901 2013/11/27
 31 33  0  0  0  0  0  0  0  0999 V2000
    6.1735    1.7834   -0.7038 C   0  0  1  0  0  0  0  0  0  0  0  0
    6.6171    3.1645   -0.8989 O   0  0  0  0  0  0  0  0  0  0  0  0
    7.5259    3.4583   -2.0018 C   0  0  2  0  0  0  0  0  0  0  0  0
    6.8652    3.2884   -3.2946 O   0  0  0  0  0  0  0  0  0  0  0  0
    8.7830    2.5429   -1.8914 C   0  0  2  0  0  0  0  0  0  0  0  0
    9.7647    2.7693   -2.9704 N   0  3  0  0  0  0  0  0  0  0  0  0
    8.3548    1.0532   -1.8542 C   0  0  0  0  0  0  0  0  0  0  0  0
    7.3688    0.7910   -0.7059 C   0  0  0  0  0  0  0  0  0  0  0  0
    5.4238    1.6720    0.6355 C   0  0  0  0  0  0  0  0  0  0  0  0
    6.2696    1.9155    1.8114 N   0  3  0  0  0  0  0  0  0  0  0  0
    7.1365    5.5797   -4.1588 C   0  0  1  0  0  0  0  0  0  0  0  0
    6.4061    6.8479   -4.6635 C   0  0  0  0  0  0  0  0  0  0  0  0
    5.3853    7.3449   -3.6048 C   0  0  1  0  0  0  0  0  0  0  0  0
    4.7535    8.5963   -4.0650 N   0  3  0  0  0  0  0  0  0  0  0  0
    4.3329    6.2373   -3.3096 C   0  0  1  0  0  0  0  0  0  0  0  0
    5.0066    4.9044   -2.8974 C   0  0  1  0  0  0  0  0  0  0  0  0
    3.9729    3.9339   -2.8216 O   0  0  0  0  0  0  0  0  0  0  0  0
    6.1325    4.4164   -3.8678 C   0  0  2  0  0  0  0  0  0  0  0  0
    8.1742    5.1759   -5.1239 N   0  3  0  0  0  0  0  0  0  0  0  0
    0.6772    5.4374   -2.5576 C   0  0  0  0  0  0  0  0  0  0  0  0
   -0.1612    6.0002   -1.3838 C   0  0  2  0  0  0  0  0  0  0  0  0
   -1.2293    6.7525   -1.9576 O   0  0  0  0  0  0  0  0  0  0  0  0
    0.7490    6.9152   -0.4807 C   0  0  1  0  0  0  0  0  0  0  0  0
    1.5782    7.9557   -1.3076 C   0  0  2  0  0  0  0  0  0  0  0  0
    2.2498    7.3499   -2.5661 C   0  0  1  0  0  0  0  0  0  0  0  0
    3.4634    6.6362   -2.2117 O   0  0  0  0  0  0  0  0  0  0  0  0
    1.3183    6.5075   -3.3018 O   0  0  0  0  0  0  0  0  0  0  0  0
    2.5790    8.5792   -0.5071 O   0  0  0  0  0  0  0  0  0  0  0  0
   -0.0902    7.6062    0.5473 N   0  3  0  0  0  0  0  0  0  0  0  0
    0.5498    7.9061    1.8443 C   0  0  0  0  0  0  0  0  0  0  0  0
   -0.7947    4.8146   -0.6148 C   0  0  0  0  0  0  0  0  0  0  0  0
  1  8  1  0  0  0  0
  1  9  1  1  0  0  0
  1  2  1  0  0  0  0
  2  3  1  0  0  0  0
  3  5  1  0  0  0  0
  3  4  1  6  0  0  0
  5  7  1  0  0  0  0
  5  6  1  6  0  0  0
  7  8  1  0  0  0  0
  9 10  1  0  0  0  0
 11 12  1  0  0  0  0
 11 18  1  0  0  0  0
 11 19  1  6  0  0  0
 12 13  1  0  0  0  0
 13 15  1  0  0  0  0
 13 14  1  6  0  0  0
 15 16  1  0  0  0  0
 15 26  1  1  0  0  0
 16 18  1  0  0  0  0
 16 17  1  6  0  0  0
 18  4  1  1  0  0  0
 20 21  1  0  0  0  0
 20 27  1  0  0  0  0
 21 31  1  1  0  0  0
 21 23  1  0  0  0  0
 21 22  1  0  0  0  0
 23 24  1  0  0  0  0
 23 29  1  1  0  0  0
 24 25  1  0  0  0  0
 24 28  1  1  0  0  0
 25 27  1  0  0  0  0
 25 26  1  1  0  0  0
 29 30  1  0  0  0  0
M  CHG  5   6   1  10   1  14   1  19   1  29   1
M  END
>  <CHROM.1>
-65.44815060,87.45068092,63.51109836,-52.07526847,-21.85367961,-85.89446848
65.61979095,90.74366531,-57.25722121,61.03127135,-89.99947924,-66.92174337
-168.52112589,4.35649919,5.11513764,-1.95393091,0.27985488,-0.48219716,2.37592350

>  <Name>
1byj cryst

>  <RI>
0

>  <Rbt.Current_Directory>
/home/itssahil/PROJECTS/Mol_Feturizer/New_Systems/rnas/1byj

>  <Rbt.Executable>
rbdock ($Id: //depot/dev/client3/rdock/2013.1/src/exe/rbdock.cxx#4 $)

>  <Rbt.Library>
libRbt.so (2013.1, Build901 2013/11/27)

>  <Rbt.Parameter_File>
/export/apps/rDock/src/rDock_2013.1_src/data/scripts/dock_solv.prm

>  <Rbt.Receptor>
prm/pocket_docking_6.prm

>  <SCORE>
-42.5862

>  <SCORE.INTER>
-40.7591

>  <SCORE.INTER.CONST>
1

>  <SCORE.INTER.POLAR>
-6.79103

>  <SCORE.INTER.ROT>
6

>  <SCORE.INTER.SOLV>
21.8328

>  <SCORE.INTER.VDW>
-19.4135

>  <SCORE.INTER.norm>
-1.31481

>  <SCORE.INTRA>
-1.82716

>  <SCORE.INTRA.DIHEDRAL>
-4.04714

>  <SCORE.INTRA.DIHEDRAL.0>
18.4149

>  <SCORE.INTRA.POLAR>
-0.0123171

>  <SCORE.INTRA.POLAR.0>
0

>  <SCORE.INTRA.REPUL>
-0.092687

>  <SCORE.INTRA.REPUL.0>
0.092687

>  <SCORE.INTRA.SOLV>
2.04119

>  <SCORE.INTRA.SOLV.lig_0>
-120.37

>  <SCORE.INTRA.VDW>
-0.318869

>  <SCORE.INTRA.VDW.0>
-1.75542

>  <SCORE.INTRA.norm>
-0.0589406

>  <SCORE.RESTR>
0

>  <SCORE.RESTR.CAVITY>
0

>  <SCORE.RESTR.norm>
0

>  <SCORE.SYSTEM>
0

>  <SCORE.SYSTEM.CONST>
0

>  <SCORE.SYSTEM.DIHEDRAL>
0

>  <SCORE.SYSTEM.SOLV>
0

>  <SCORE.SYSTEM.norm>
0

>  <SCORE.heavy>
31

>  <SCORE.norm>
-1.37375

>  <RMSD>
2.483

$$$$
1byj cryst
 OpenBabel11021811383D
libRbt.so/2013.1/901 2013/11/27
 31 33  0  0  0  0  0  0  0  0999 V2000
    7.4648    2.4084   -0.7613 C   0  0  1  0  0  0  0  0  0  0  0  0
    7.9475    3.6270   -1.4126 O   0  0  0  0  0  0  0  0  0  0  0  0
    8.2447    3.5865   -2.8405 C   0  0  2  0  0  0  0  0  0  0  0  0
    7.0275    3.4192   -3.6323 O   0  0  0  0  0  0  0  0  0  0  0  0
    9.2585    2.4364   -3.1232 C   0  0  2  0  0  0  0  0  0  0  0  0
    9.6210    2.3172   -4.5492 N   0  3  0  0  0  0  0  0  0  0  0  0
    8.6981    1.0911   -2.5939 C   0  0  0  0  0  0  0  0  0  0  0  0
    8.3602    1.1844   -1.0984 C   0  0  0  0  0  0  0  0  0  0  0  0
    7.4443    2.6177    0.7631 C   0  0  0  0  0  0  0  0  0  0  0  0
    6.5107    3.6613    1.2067 N   0  3  0  0  0  0  0  0  0  0  0  0
    7.2564    5.8550   -3.9238 C   0  0  1  0  0  0  0  0  0  0  0  0
    6.5334    7.1669   -4.3147 C   0  0  0  0  0  0  0  0  0  0  0  0
    5.2646    7.3686   -3.4435 C   0  0  1  0  0  0  0  0  0  0  0  0
    4.6293    8.6590   -3.7725 N   0  3  0  0  0  0  0  0  0  0  0  0
    4.2853    6.1741   -3.6330 C   0  0  1  0  0  0  0  0  0  0  0  0
    4.9795    4.8170   -3.3565 C   0  0  1  0  0  0  0  0  0  0  0  0
    4.0528    3.8053   -3.7224 O   0  0  0  0  0  0  0  0  0  0  0  0
    6.3306    4.6095   -4.1174 C   0  0  2  0  0  0  0  0  0  0  0  0
    8.5125    5.7243   -4.6831 N   0  3  0  0  0  0  0  0  0  0  0  0
    0.8582    4.4649   -1.8664 C   0  0  0  0  0  0  0  0  0  0  0  0
   -0.1975    5.4072   -1.2379 C   0  0  2  0  0  0  0  0  0  0  0  0
   -1.3810    5.2924   -2.0268 O   0  0  0  0  0  0  0  0  0  0  0  0
    0.3454    6.8858   -1.2509 C   0  0  1  0  0  0  0  0  0  0  0  0
    0.9192    7.3121   -2.6448 C   0  0  2  0  0  0  0  0  0  0  0  0
    1.8343    6.2404   -3.2898 C   0  0  1  0  0  0  0  0  0  0  0  0
    3.1644    6.2790   -2.7094 O   0  0  0  0  0  0  0  0  0  0  0  0
    1.2369    4.9164   -3.1941 O   0  0  0  0  0  0  0  0  0  0  0  0
    1.6382    8.5397   -2.5593 O   0  0  0  0  0  0  0  0  0  0  0  0
   -0.7345    7.8251   -0.8150 N   0  3  0  0  0  0  0  0  0  0  0  0
   -0.3131    9.1623   -0.3501 C   0  0  0  0  0  0  0  0  0  0  0  0
   -0.5389    4.8911    0.1817 C   0  0  0  0  0  0  0  0  0  0  0  0
  1  8  1  0  0  0  0
  1  9  1  1  0  0  0
  1  2  1  0  0  0  0
  2  3  1  0  0  0  0
  3  5  1  0  0  0  0
  3  4  1  6  0  0  0
  5  7  1  0  0  0  0
  5  6  1  6  0  0  0
  7  8  1  0  0  0  0
  9 10  1  0  0  0  0
 11 12  1  0  0  0  0
 11 18  1  0  0  0  0
 11 19  1  6  0  0  0
 12 13  1  0  0  0  0
 13 15  1  0  0  0  0
 13 14  1  6  0  0  0
 15 16  1  0  0  0  0
 15 26  1  1  0  0  0
 16 18  1  0  0  0  0
 16 17  1  6  0  0  0
 18  4  1  1  0  0  0
 20 21  1  0  0  0  0
 20 27  1  0  0  0  0
 21 31  1  1  0  0  0
 21 23  1  0  0  0  0
 21 22  1  0  0  0  0
 23 24  1  0  0  0  0
 23 29  1  6  0  0  0
 24 25  1  0  0  0  0
 24 28  1  1  0  0  0
 25 27  1  0  0  0  0
 25 26  1  1  0  0  0
 29 30  1  0  0  0  0
M  CHG  5   6   1  10   1  14   1  19   1  29   1
M  END
>  <CHROM.1>
63.73913117,92.04899822,12.44936585,-38.87317743,-54.13143824,95.41618037
-65.78114352,125.65620978,-58.31259713,-57.40288950,-78.09974609,52.29401089
-136.76682263,4.47149576,5.11345808,-2.41630255,0.25396450,-0.37637355,2.44798783

>  <Name>
1byj cryst

>  <RI>
0

>  <Rbt.Current_Directory>
/home/itssahil/PROJECTS/Mol_Feturizer/New_Systems/rnas/1byj

>  <Rbt.Executable>
rbdock ($Id: //depot/dev/client3/rdock/2013.1/src/exe/rbdock.cxx#4 $)

>  <Rbt.Library>
libRbt.so (2013.1, Build901 2013/11/27)

>  <Rbt.Parameter_File>
/export/apps/rDock/src/rDock_2013.1_src/data/scripts/dock_solv.prm

>  <Rbt.Receptor>
prm/pocket_docking_6.prm

>  <SCORE>
-48.6927

>  <SCORE.INTER>
-52.2026

>  <SCORE.INTER.CONST>
1

>  <SCORE.INTER.POLAR>
-8.00066

>  <SCORE.INTER.ROT>
6

>  <SCORE.INTER.SOLV>
22.0332

>  <SCORE.INTER.VDW>
-23.0773

>  <SCORE.INTER.norm>
-1.68396

>  <SCORE.INTRA>
3.50994

>  <SCORE.INTRA.DIHEDRAL>
9.87394

>  <SCORE.INTRA.DIHEDRAL.0>
18.4149

>  <SCORE.INTRA.POLAR>
-0.817831

>  <SCORE.INTRA.POLAR.0>
0

>  <SCORE.INTRA.REPUL>
-0.092687

>  <SCORE.INTRA.REPUL.0>
0.092687

>  <SCORE.INTRA.SOLV>
1.5783

>  <SCORE.INTRA.SOLV.lig_0>
-120.37

>  <SCORE.INTRA.VDW>
1.02788

>  <SCORE.INTRA.VDW.0>
-1.75542

>  <SCORE.INTRA.norm>
0.113224

>  <SCORE.RESTR>
0

>  <SCORE.RESTR.CAVITY>
0

>  <SCORE.RESTR.norm>
0

>  <SCORE.SYSTEM>
0

>  <SCORE.SYSTEM.CONST>
0

>  <SCORE.SYSTEM.DIHEDRAL>
0

>  <SCORE.SYSTEM.SOLV>
0

>  <SCORE.SYSTEM.norm>
0

>  <SCORE.heavy>
31

>  <SCORE.norm>
-1.57073

>  <RMSD>
2.483

$$$$
1byj cryst
 OpenBabel11021811383D
libRbt.so/2013.1/901 2013/11/27
 31 33  0  0  0  0  0  0  0  0999 V2000
    5.3675    2.0877   -0.4510 C   0  0  1  0  0  0  0  0  0  0  0  0
    6.0299    3.3702   -0.6931 O   0  0  0  0  0  0  0  0  0  0  0  0
    7.1250    3.4214   -1.6558 C   0  0  2  0  0  0  0  0  0  0  0  0
    6.6458    3.1968   -3.0184 O   0  0  0  0  0  0  0  0  0  0  0  0
    8.2063    2.3696   -1.2625 C   0  0  2  0  0  0  0  0  0  0  0  0
    9.3595    2.3475   -2.1838 N   0  3  0  0  0  0  0  0  0  0  0  0
    7.5668    0.9606   -1.1635 C   0  0  0  0  0  0  0  0  0  0  0  0
    6.3940    0.9554   -0.1715 C   0  0  0  0  0  0  0  0  0  0  0  0
    4.4193    2.2217    0.7536 C   0  0  0  0  0  0  0  0  0  0  0  0
    5.0965    2.1386    2.0543 N   0  3  0  0  0  0  0  0  0  0  0  0
    7.4401    5.3302   -3.9607 C   0  0  1  0  0  0  0  0  0  0  0  0
    7.0354    6.6252   -4.7063 C   0  0  0  0  0  0  0  0  0  0  0  0
    5.9009    7.3599   -3.9428 C   0  0  1  0  0  0  0  0  0  0  0  0
    5.5793    8.6299   -4.6216 N   0  3  0  0  0  0  0  0  0  0  0  0
    4.6536    6.4383   -3.8137 C   0  0  1  0  0  0  0  0  0  0  0  0
    5.0134    5.0776   -3.1663 C   0  0  1  0  0  0  0  0  0  0  0  0
    3.8519    4.2659   -3.2560 O   0  0  0  0  0  0  0  0  0  0  0  0
    6.2320    4.3469   -3.8209 C   0  0  2  0  0  0  0  0  0  0  0  0
    8.5853    4.6948   -4.6361 N   0  3  0  0  0  0  0  0  0  0  0  0
    1.0516    5.5606   -2.3703 C   0  0  0  0  0  0  0  0  0  0  0  0
    0.1358    6.5889   -1.6622 C   0  0  2  0  0  0  0  0  0  0  0  0
   -1.0229    6.7475   -2.4798 O   0  0  0  0  0  0  0  0  0  0  0  0
    0.9043    7.9550   -1.5056 C   0  0  1  0  0  0  0  0  0  0  0  0
    1.5859    8.4267   -2.8349 C   0  0  2  0  0  0  0  0  0  0  0  0
    2.3431    7.2955   -3.5758 C   0  0  1  0  0  0  0  0  0  0  0  0
    3.6419    7.0604   -2.9711 O   0  0  0  0  0  0  0  0  0  0  0  0
    1.5423    6.0814   -3.6344 O   0  0  0  0  0  0  0  0  0  0  0  0
    2.4854    9.5080   -2.6043 O   0  0  0  0  0  0  0  0  0  0  0  0
   -0.0292    9.0043   -0.9898 N   0  3  0  0  0  0  0  0  0  0  0  0
   -0.4104    8.9211    0.4348 C   0  0  0  0  0  0  0  0  0  0  0  0
   -0.3314    5.9892   -0.3131 C   0  0  0  0  0  0  0  0  0  0  0  0
  1  8  1  0  0  0  0
  1  9  1  1  0  0  0
  1  2  1  0  0  0  0
  2  3  1  0  0  0  0
  3  5  1  0  0  0  0
  3  4  1  6  0  0  0
  5  7  1  0  0  0  0
  5  6  1  6  0  0  0
  7  8  1  0  0  0  0
  9 10  1  0  0  0  0
 11 12  1  0  0  0  0
 11 18  1  0  0  0  0
 11 19  1  6  0  0  0
 12 13  1  0  0  0  0
 13 15  1  0  0  0  0
 13 14  1  6  0  0  0
 15 16  1  0  0  0  0
 15 26  1  1  0  0  0
 16 18  1  0  0  0  0
 16 17  1  6  0  0  0
 18  4  1  1  0  0  0
 20 21  1  0  0  0  0
 20 27  1  0  0  0  0
 21 31  1  1  0  0  0
 21 23  1  0  0  0  0
 21 22  1  0  0  0  0
 23 24  1  0  0  0  0
 23 29  1  6  0  0  0
 24 25  1  0  0  0  0
 24 28  1  1  0  0  0
 25 27  1  0  0  0  0
 25 26  1  1  0  0  0
 29 30  1  0  0  0  0
M  CHG  5   6   1  10   1  14   1  19   1  29   1
M  END
>  <CHROM.1>
-80.20361195,90.10671060,59.22214024,-59.68873923,-75.01937667,-69.74541157
-155.28261079,120.81279444,-178.33052005,-175.23906087,-165.01746359,71.06398098
-156.90017568,4.26695646,5.33998690,-2.19697351,0.48511469,-0.45069379,2.43049987

>  <Name>
1byj cryst

>  <RI>
0

>  <Rbt.Current_Directory>
/home/itssahil/PROJECTS/Mol_Feturizer/New_Systems/rnas/1byj

>  <Rbt.Executable>
rbdock ($Id: //depot/dev/client3/rdock/2013.1/src/exe/rbdock.cxx#4 $)

>  <Rbt.Library>
libRbt.so (2013.1, Build901 2013/11/27)

>  <Rbt.Parameter_File>
/export/apps/rDock/src/rDock_2013.1_src/data/scripts/dock_solv.prm

>  <Rbt.Receptor>
prm/pocket_docking_4.prm

>  <SCORE>
-40.5856

>  <SCORE.INTER>
-41.6973

>  <SCORE.INTER.CONST>
1

>  <SCORE.INTER.POLAR>
-7.02467

>  <SCORE.INTER.ROT>
6

>  <SCORE.INTER.SOLV>
20.2288

>  <SCORE.INTER.VDW>
-18.7256

>  <SCORE.INTER.norm>
-1.34508

>  <SCORE.INTRA>
1.11176

>  <SCORE.INTRA.DIHEDRAL>
-0.31284

>  <SCORE.INTRA.DIHEDRAL.0>
18.4149

>  <SCORE.INTRA.POLAR>
-0.0562371

>  <SCORE.INTRA.POLAR.0>
0

>  <SCORE.INTRA.REPUL>
-0.0926101

>  <SCORE.INTRA.REPUL.0>
0.092687

>  <SCORE.INTRA.SOLV>
2.23104

>  <SCORE.INTRA.SOLV.lig_0>
-120.37

>  <SCORE.INTRA.VDW>
0.806914

>  <SCORE.INTRA.VDW.0>
-1.75542

>  <SCORE.INTRA.norm>
0.0358632

>  <SCORE.RESTR>
0

>  <SCORE.RESTR.CAVITY>
0

>  <SCORE.RESTR.norm>
0

>  <SCORE.SYSTEM>
0

>  <SCORE.SYSTEM.CONST>
0

>  <SCORE.SYSTEM.DIHEDRAL>
0

>  <SCORE.SYSTEM.SOLV>
0

>  <SCORE.SYSTEM.norm>
0

>  <SCORE.heavy>
31

>  <SCORE.norm>
-1.30921

>  <RMSD>
2.487

$$$$
1byj cryst
 OpenBabel11021811383D
libRbt.so/2013.1/901 2013/11/27
 31 33  0  0  0  0  0  0  0  0999 V2000
    7.4205    2.4136   -0.8042 C   0  0  1  0  0  0  0  0  0  0  0  0
    7.9443    3.6141   -1.4572 O   0  0  0  0  0  0  0  0  0  0  0  0
    8.2993    3.5434   -2.8706 C   0  0  2  0  0  0  0  0  0  0  0  0
    7.1136    3.3753   -3.7088 O   0  0  0  0  0  0  0  0  0  0  0  0
    9.3097    2.3766   -3.0903 C   0  0  2  0  0  0  0  0  0  0  0  0
    9.7288    2.2265   -4.4977 N   0  3  0  0  0  0  0  0  0  0  0  0
    8.7116    1.0480   -2.5600 C   0  0  0  0  0  0  0  0  0  0  0  0
    8.3139    1.1732   -1.0816 C   0  0  0  0  0  0  0  0  0  0  0  0
    7.3401    2.6517    0.7141 C   0  0  0  0  0  0  0  0  0  0  0  0
    6.6806    1.5659    1.4512 N   0  3  0  0  0  0  0  0  0  0  0  0
    7.2856    5.8257   -3.8999 C   0  0  1  0  0  0  0  0  0  0  0  0
    6.5405    7.1324   -4.2656 C   0  0  0  0  0  0  0  0  0  0  0  0
    5.2382    7.2673   -3.4314 C   0  0  1  0  0  0  0  0  0  0  0  0
    4.5793    8.5525   -3.7330 N   0  3  0  0  0  0  0  0  0  0  0  0
    4.2989    6.0559   -3.6994 C   0  0  1  0  0  0  0  0  0  0  0  0
    5.0202    4.7076   -3.4508 C   0  0  1  0  0  0  0  0  0  0  0  0
    4.1342    3.6871   -3.8862 O   0  0  0  0  0  0  0  0  0  0  0  0
    6.4010    4.5650   -4.1722 C   0  0  2  0  0  0  0  0  0  0  0  0
    8.5694    5.7571   -4.6200 N   0  3  0  0  0  0  0  0  0  0  0  0
    0.7022    4.3427   -2.2848 C   0  0  0  0  0  0  0  0  0  0  0  0
   -0.3227    5.2663   -1.5818 C   0  0  2  0  0  0  0  0  0  0  0  0
   -1.4755    5.3245   -2.4207 O   0  0  0  0  0  0  0  0  0  0  0  0
    0.3061    6.6979   -1.3907 C   0  0  1  0  0  0  0  0  0  0  0  0
    0.9640    7.2541   -2.6991 C   0  0  2  0  0  0  0  0  0  0  0  0
    1.8417    6.2133   -3.4396 C   0  0  1  0  0  0  0  0  0  0  0  0
    3.1453    6.0958   -2.8115 O   0  0  0  0  0  0  0  0  0  0  0  0
    1.1640    4.9283   -3.5312 O   0  0  0  0  0  0  0  0  0  0  0  0
    1.7494    8.4137   -2.4353 O   0  0  0  0  0  0  0  0  0  0  0  0
   -0.7347    7.6435   -0.8800 N   0  3  0  0  0  0  0  0  0  0  0  0
   -0.2562    8.8562   -0.1856 C   0  0  0  0  0  0  0  0  0  0  0  0
   -0.7552    4.6032   -0.2508 C   0  0  0  0  0  0  0  0  0  0  0  0
  1  8  1  0  0  0  0
  1  9  1  1  0  0  0
  1  2  1  0  0  0  0
  2  3  1  0  0  0  0
  3  5  1  0  0  0  0
  3  4  1  6  0  0  0
  5  7  1  0  0  0  0
  5  6  1  6  0  0  0
  7  8  1  0  0  0  0
  9 10  1  0  0  0  0
 11 12  1  0  0  0  0
 11 18  1  0  0  0  0
 11 19  1  6  0  0  0
 12 13  1  0  0  0  0
 13 15  1  0  0  0  0
 13 14  1  6  0  0  0
 15 16  1  0  0  0  0
 15 26  1  1  0  0  0
 16 18  1  0  0  0  0
 16 17  1  6  0  0  0
 18  4  1  1  0  0  0
 20 21  1  0  0  0  0
 20 27  1  0  0  0  0
 21 31  1  1  0  0  0
 21 23  1  0  0  0  0
 21 22  1  0  0  0  0
 23 24  1  0  0  0  0
 23 29  1  6  0  0  0
 24 25  1  0  0  0  0
 24 28  1  1  0  0  0
 25 27  1  0  0  0  0
 25 26  1  1  0  0  0
 29 30  1  0  0  0  0
M  CHG  5   6   1  10   1  14   1  19   1  29   1
M  END
>  <CHROM.1>
173.25956459,88.11603526,12.40630485,-164.06218727,-176.36386957,-27.43481782
-177.61570016,118.21863749,-176.08604085,-172.94845368,-80.65120811,-73.43550366
-135.77949466,4.47243017,4.95305740,-2.48378446,0.28657342,-0.34694023,2.46854167

>  <Name>
1byj cryst

>  <RI>
0

>  <Rbt.Current_Directory>
/home/itssahil/PROJECTS/Mol_Feturizer/New_Systems/rnas/1byj

>  <Rbt.Executable>
rbdock ($Id: //depot/dev/client3/rdock/2013.1/src/exe/rbdock.cxx#4 $)

>  <Rbt.Library>
libRbt.so (2013.1, Build901 2013/11/27)

>  <Rbt.Parameter_File>
/export/apps/rDock/src/rDock_2013.1_src/data/scripts/dock_solv.prm

>  <Rbt.Receptor>
prm/pocket_docking_3.prm

>  <SCORE>
-51.8758

>  <SCORE.INTER>
-54.9021

>  <SCORE.INTER.CONST>
1

>  <SCORE.INTER.POLAR>
-8.08918

>  <SCORE.INTER.ROT>
6

>  <SCORE.INTER.SOLV>
24.907

>  <SCORE.INTER.VDW>
-25.5398

>  <SCORE.INTER.norm>
-1.77104

>  <SCORE.INTRA>
3.00262

>  <SCORE.INTRA.DIHEDRAL>
9.82836

>  <SCORE.INTRA.DIHEDRAL.0>
18.4149

>  <SCORE.INTRA.POLAR>
-1.16667

>  <SCORE.INTRA.POLAR.0>
0

>  <SCORE.INTRA.REPUL>
-0.092687

>  <SCORE.INTRA.REPUL.0>
0.092687

>  <SCORE.INTRA.SOLV>
2.15331

>  <SCORE.INTRA.SOLV.lig_0>
-120.37

>  <SCORE.INTRA.VDW>
1.44189

>  <SCORE.INTRA.VDW.0>
-1.75542

>  <SCORE.INTRA.norm>
0.0968588

>  <SCORE.RESTR>
0.0236684

>  <SCORE.RESTR.CAVITY>
0.0236684

>  <SCORE.RESTR.norm>
0.000763496

>  <SCORE.SYSTEM>
0

>  <SCORE.SYSTEM.CONST>
0

>  <SCORE.SYSTEM.DIHEDRAL>
0

>  <SCORE.SYSTEM.SOLV>
0

>  <SCORE.SYSTEM.norm>
0

>  <SCORE.heavy>
31

>  <SCORE.norm>
-1.67341

>  <RMSD>
2.490

$$$$
1byj cryst
 OpenBabel11021811383D
libRbt.so/2013.1/901 2013/11/27
 31 33  0  0  0  0  0  0  0  0999 V2000
    5.2798    3.0044   -0.7879 C   0  0  1  0  0  0  0  0  0  0  0  0
    6.3318    3.9743   -1.0958 O   0  0  0  0  0  0  0  0  0  0  0  0
    7.3479    3.6160   -2.0795 C   0  0  2  0  0  0  0  0  0  0  0  0
    6.7783    3.5234   -3.4225 O   0  0  0  0  0  0  0  0  0  0  0  0
    8.0177    2.2715   -1.6620 C   0  0  2  0  0  0  0  0  0  0  0  0
    9.0646    1.8259   -2.6024 N   0  3  0  0  0  0  0  0  0  0  0  0
    6.9396    1.1702   -1.4922 C   0  0  0  0  0  0  0  0  0  0  0  0
    5.8671    1.5995   -0.4797 C   0  0  0  0  0  0  0  0  0  0  0  0
    4.4725    3.4946    0.4270 C   0  0  0  0  0  0  0  0  0  0  0  0
    5.3046    3.9717    1.5394 N   0  3  0  0  0  0  0  0  0  0  0  0
    7.2568    5.8825   -3.9480 C   0  0  1  0  0  0  0  0  0  0  0  0
    6.6742    7.2153   -4.4778 C   0  0  0  0  0  0  0  0  0  0  0  0
    5.4270    7.6298   -3.6516 C   0  0  1  0  0  0  0  0  0  0  0  0
    4.9291    8.9387   -4.1162 N   0  3  0  0  0  0  0  0  0  0  0  0
    4.3321    6.5275   -3.7390 C   0  0  1  0  0  0  0  0  0  0  0  0
    4.8822    5.1414   -3.3191 C   0  0  1  0  0  0  0  0  0  0  0  0
    3.8593    4.1972   -3.5992 O   0  0  0  0  0  0  0  0  0  0  0  0
    6.2098    4.7239   -4.0336 C   0  0  2  0  0  0  0  0  0  0  0  0
    8.4979    5.5507   -4.6699 N   0  3  0  0  0  0  0  0  0  0  0  0
    1.2398    4.7223   -1.8885 C   0  0  0  0  0  0  0  0  0  0  0  0
    0.0902    5.5119   -1.2159 C   0  0  2  0  0  0  0  0  0  0  0  0
   -1.0997    5.2202   -1.9475 O   0  0  0  0  0  0  0  0  0  0  0  0
    0.4149    7.0526   -1.2624 C   0  0  1  0  0  0  0  0  0  0  0  0
    0.8574    7.5396   -2.6841 C   0  0  2  0  0  0  0  0  0  0  0  0
    1.8856    6.6016   -3.3657 C   0  0  1  0  0  0  0  0  0  0  0  0
    3.2218    6.8363   -2.8488 O   0  0  0  0  0  0  0  0  0  0  0  0
    1.4888    5.2072   -3.2349 O   0  0  0  0  0  0  0  0  0  0  0  0
    1.3966    8.8581   -2.6390 O   0  0  0  0  0  0  0  0  0  0  0  0
   -0.7670    7.8335   -0.7811 N   0  3  0  0  0  0  0  0  0  0  0  0
   -0.4987    9.1601   -0.1895 C   0  0  0  0  0  0  0  0  0  0  0  0
   -0.1085    4.9696    0.2209 C   0  0  0  0  0  0  0  0  0  0  0  0
  1  8  1  0  0  0  0
  1  9  1  1  0  0  0
  1  2  1  0  0  0  0
  2  3  1  0  0  0  0
  3  5  1  0  0  0  0
  3  4  1  6  0  0  0
  5  7  1  0  0  0  0
  5  6  1  6  0  0  0
  7  8  1  0  0  0  0
  9 10  1  0  0  0  0
 11 12  1  0  0  0  0
 11 18  1  0  0  0  0
 11 19  1  6  0  0  0
 12 13  1  0  0  0  0
 13 15  1  0  0  0  0
 13 14  1  6  0  0  0
 15 16  1  0  0  0  0
 15 26  1  1  0  0  0
 16 18  1  0  0  0  0
 16 17  1  6  0  0  0
 18  4  1  1  0  0  0
 20 21  1  0  0  0  0
 20 27  1  0  0  0  0
 21 31  1  1  0  0  0
 21 23  1  0  0  0  0
 21 22  1  0  0  0  0
 23 24  1  0  0  0  0
 23 29  1  6  0  0  0
 24 25  1  0  0  0  0
 24 28  1  1  0  0  0
 25 27  1  0  0  0  0
 25 26  1  1  0  0  0
 29 30  1  0  0  0  0
M  CHG  5   6   1  10   1  14   1  19   1  29   1
M  END
>  <CHROM.1>
-46.18310737,63.29160581,51.50243794,-172.58999577,67.05586733,-155.75366804
67.09801641,138.26326629,-171.85408959,-58.56178412,-85.41138385,69.37918181
-152.89696191,4.04766948,5.29953090,-2.22748570,0.31113065,-0.38792230,2.49562043

>  <Name>
1byj cryst

>  <RI>
0

>  <Rbt.Current_Directory>
/home/itssahil/PROJECTS/Mol_Feturizer/New_Systems/rnas/1byj

>  <Rbt.Executable>
rbdock ($Id: //depot/dev/client3/rdock/2013.1/src/exe/rbdock.cxx#4 $)

>  <Rbt.Library>
libRbt.so (2013.1, Build901 2013/11/27)

>  <Rbt.Parameter_File>
/export/apps/rDock/src/rDock_2013.1_src/data/scripts/dock_solv.prm

>  <Rbt.Receptor>
prm/pocket_docking_5.prm

>  <SCORE>
-44.3237

>  <SCORE.INTER>
-38.967

>  <SCORE.INTER.CONST>
1

>  <SCORE.INTER.POLAR>
-5.89619

>  <SCORE.INTER.ROT>
6

>  <SCORE.INTER.SOLV>
18.5902

>  <SCORE.INTER.VDW>
-20.1208

>  <SCORE.INTER.norm>
-1.257

>  <SCORE.INTRA>
-5.35666

>  <SCORE.INTRA.DIHEDRAL>
-4.45977

>  <SCORE.INTRA.DIHEDRAL.0>
18.4149

>  <SCORE.INTRA.POLAR>
-0.0431525

>  <SCORE.INTRA.POLAR.0>
0

>  <SCORE.INTRA.REPUL>
-0.092687

>  <SCORE.INTRA.REPUL.0>
0.092687

>  <SCORE.INTRA.SOLV>
-0.636056

>  <SCORE.INTRA.SOLV.lig_0>
-120.37

>  <SCORE.INTRA.VDW>
-2.19859

>  <SCORE.INTRA.VDW.0>
-1.75542

>  <SCORE.INTRA.norm>
-0.172795

>  <SCORE.RESTR>
0

>  <SCORE.RESTR.CAVITY>
0

>  <SCORE.RESTR.norm>
0

>  <SCORE.SYSTEM>
0

>  <SCORE.SYSTEM.CONST>
0

>  <SCORE.SYSTEM.DIHEDRAL>
0

>  <SCORE.SYSTEM.SOLV>
0

>  <SCORE.SYSTEM.norm>
0

>  <SCORE.heavy>
31

>  <SCORE.norm>
-1.4298

>  <RMSD>
2.506

$$$$
1byj cryst
 OpenBabel11021811383D
libRbt.so/2013.1/901 2013/11/27
 31 33  0  0  0  0  0  0  0  0999 V2000
    5.8204    2.0881   -0.5309 C   0  0  1  0  0  0  0  0  0  0  0  0
    6.4544    3.3755   -0.8187 O   0  0  0  0  0  0  0  0  0  0  0  0
    7.4910    3.4313   -1.8440 C   0  0  2  0  0  0  0  0  0  0  0  0
    6.9355    3.1932   -3.1750 O   0  0  0  0  0  0  0  0  0  0  0  0
    8.6040    2.3926   -1.5084 C   0  0  2  0  0  0  0  0  0  0  0  0
    9.7016    2.3759   -2.4953 N   0  3  0  0  0  0  0  0  0  0  0  0
    7.9858    0.9781   -1.3639 C   0  0  0  0  0  0  0  0  0  0  0  0
    6.8729    0.9678   -0.3052 C   0  0  0  0  0  0  0  0  0  0  0  0
    4.9427    2.2206    0.7262 C   0  0  0  0  0  0  0  0  0  0  0  0
    5.6889    2.1055    1.9861 N   0  3  0  0  0  0  0  0  0  0  0  0
    7.0332    5.4832   -4.0787 C   0  0  1  0  0  0  0  0  0  0  0  0
    6.2122    6.6697   -4.6397 C   0  0  0  0  0  0  0  0  0  0  0  0
    5.1082    7.0909   -3.6329 C   0  0  1  0  0  0  0  0  0  0  0  0
    4.3850    8.2706   -4.1451 N   0  3  0  0  0  0  0  0  0  0  0  0
    4.1492    5.8975   -3.3544 C   0  0  1  0  0  0  0  0  0  0  0  0
    4.9234    4.6397   -2.8867 C   0  0  1  0  0  0  0  0  0  0  0  0
    3.9797    3.5803   -2.8296 O   0  0  0  0  0  0  0  0  0  0  0  0
    6.1276    4.2387   -3.8012 C   0  0  2  0  0  0  0  0  0  0  0  0
    8.1418    5.1581   -4.9934 N   0  3  0  0  0  0  0  0  0  0  0  0
    1.4493    4.8526   -0.2191 C   0  0  0  0  0  0  0  0  0  0  0  0
    0.3341    5.8713    0.1213 C   0  0  2  0  0  0  0  0  0  0  0  0
   -0.9074    5.2651   -0.2357 O   0  0  0  0  0  0  0  0  0  0  0  0
    0.5677    7.1973   -0.6964 C   0  0  1  0  0  0  0  0  0  0  0  0
    0.8334    6.9362   -2.2180 C   0  0  2  0  0  0  0  0  0  0  0  0
    1.8353    5.7834   -2.4809 C   0  0  1  0  0  0  0  0  0  0  0  0
    3.2030    6.2357   -2.3004 O   0  0  0  0  0  0  0  0  0  0  0  0
    1.5308    4.6265   -1.6517 O   0  0  0  0  0  0  0  0  0  0  0  0
    1.3017    8.1113   -2.8745 O   0  0  0  0  0  0  0  0  0  0  0  0
   -0.5990    8.1161   -0.5143 N   0  3  0  0  0  0  0  0  0  0  0  0
   -0.3201    9.4489    0.0582 C   0  0  0  0  0  0  0  0  0  0  0  0
    0.3151    6.0906    1.6542 C   0  0  0  0  0  0  0  0  0  0  0  0
  1  8  1  0  0  0  0
  1  9  1  1  0  0  0
  1  2  1  0  0  0  0
  2  3  1  0  0  0  0
  3  5  1  0  0  0  0
  3  4  1  6  0  0  0
  5  7  1  0  0  0  0
  5  6  1  6  0  0  0
  7  8  1  0  0  0  0
  9 10  1  0  0  0  0
 11 12  1  0  0  0  0
 11 18  1  0  0  0  0
 11 19  1  6  0  0  0
 12 13  1  0  0  0  0
 13 15  1  0  0  0  0
 13 14  1  6  0  0  0
 15 16  1  0  0  0  0
 15 26  1  1  0  0  0
 16 18  1  0  0  0  0
 16 17  1  6  0  0  0
 18  4  1  1  0  0  0
 20 21  1  0  0  0  0
 20 27  1  0  0  0  0
 21 31  1  1  0  0  0
 21 23  1  0  0  0  0
 21 22  1  0  0  0  0
 23 24  1  0  0  0  0
 23 29  1  6  0  0  0
 24 25  1  0  0  0  0
 24 28  1  1  0  0  0
 25 27  1  0  0  0  0
 25 26  1  1  0  0  0
 29 30  1  0  0  0  0
M  CHG  5   6   1  10   1  14   1  19   1  29   1
M  END
>  <CHROM.1>
-82.22529074,72.87979203,65.35028717,-170.41279057,39.80815398,156.33822588
-74.41984043,139.84000836,68.50443245,-56.69484704,-117.85110448,178.57784723
-131.72257100,4.18652668,4.93725751,-1.78332170,0.24593374,-0.49518556,2.34288538

>  <Name>
1byj cryst

>  <RI>
0

>  <Rbt.Current_Directory>
/home/itssahil/PROJECTS/Mol_Feturizer/New_Systems/rnas/1byj

>  <Rbt.Executable>
rbdock ($Id: //depot/dev/client3/rdock/2013.1/src/exe/rbdock.cxx#4 $)

>  <Rbt.Library>
libRbt.so (2013.1, Build901 2013/11/27)

>  <Rbt.Parameter_File>
/export/apps/rDock/src/rDock_2013.1_src/data/scripts/dock_solv.prm

>  <Rbt.Receptor>
prm/pocket_docking_5.prm

>  <SCORE>
-44.3912

>  <SCORE.INTER>
-43.6758

>  <SCORE.INTER.CONST>
1

>  <SCORE.INTER.POLAR>
-8.12559

>  <SCORE.INTER.ROT>
6

>  <SCORE.INTER.SOLV>
22.6098

>  <SCORE.INTER.VDW>
-17.1685

>  <SCORE.INTER.norm>
-1.4089

>  <SCORE.INTRA>
-0.715387

>  <SCORE.INTRA.DIHEDRAL>
3.1357

>  <SCORE.INTRA.DIHEDRAL.0>
18.4149

>  <SCORE.INTRA.POLAR>
-0.270039

>  <SCORE.INTRA.POLAR.0>
0

>  <SCORE.INTRA.REPUL>
-0.092687

>  <SCORE.INTRA.REPUL.0>
0.092687

>  <SCORE.INTRA.SOLV>
0.912634

>  <SCORE.INTRA.SOLV.lig_0>
-120.37

>  <SCORE.INTRA.VDW>
-1.35799

>  <SCORE.INTRA.VDW.0>
-1.75542

>  <SCORE.INTRA.norm>
-0.023077

>  <SCORE.RESTR>
0

>  <SCORE.RESTR.CAVITY>
0

>  <SCORE.RESTR.norm>
0

>  <SCORE.SYSTEM>
0

>  <SCORE.SYSTEM.CONST>
0

>  <SCORE.SYSTEM.DIHEDRAL>
0

>  <SCORE.SYSTEM.SOLV>
0

>  <SCORE.SYSTEM.norm>
0

>  <SCORE.heavy>
31

>  <SCORE.norm>
-1.43197

>  <RMSD>
2.507

$$$$
1byj cryst
 OpenBabel11021811383D
libRbt.so/2013.1/901 2013/11/27
 31 33  0  0  0  0  0  0  0  0999 V2000
    9.1608    1.7908   -3.0332 C   0  0  1  0  0  0  0  0  0  0  0  0
    7.7813    2.0160   -3.4672 O   0  0  0  0  0  0  0  0  0  0  0  0
    6.8588    2.6784   -2.5512 C   0  0  2  0  0  0  0  0  0  0  0  0
    7.2240    4.0794   -2.3499 O   0  0  0  0  0  0  0  0  0  0  0  0
    6.8344    1.9064   -1.1970 C   0  0  2  0  0  0  0  0  0  0  0  0
    5.9241    2.5059   -0.2014 N   0  3  0  0  0  0  0  0  0  0  0  0
    8.2696    1.7978   -0.6205 C   0  0  0  0  0  0  0  0  0  0  0  0
    9.2196    1.1320   -1.6273 C   0  0  0  0  0  0  0  0  0  0  0  0
    9.8743    0.8820   -4.0496 C   0  0  0  0  0  0  0  0  0  0  0  0
   11.2639    1.2722   -4.3218 N   0  3  0  0  0  0  0  0  0  0  0  0
    7.7446    6.3269   -3.2147 C   0  0  1  0  0  0  0  0  0  0  0  0
    7.3089    7.4544   -4.1819 C   0  0  0  0  0  0  0  0  0  0  0  0
    5.8440    7.8805   -3.8953 C   0  0  1  0  0  0  0  0  0  0  0  0
    5.4681    9.0071   -4.7707 N   0  3  0  0  0  0  0  0  0  0  0  0
    4.8861    6.6662   -4.0678 C   0  0  1  0  0  0  0  0  0  0  0  0
    5.3292    5.4614   -3.2004 C   0  0  1  0  0  0  0  0  0  0  0  0
    4.4952    4.3713   -3.5641 O   0  0  0  0  0  0  0  0  0  0  0  0
    6.8339    5.0636   -3.3583 C   0  0  2  0  0  0  0  0  0  0  0  0
    9.1662    6.0013   -3.4254 N   0  3  0  0  0  0  0  0  0  0  0  0
    2.5924    9.5982   -2.3246 C   0  0  0  0  0  0  0  0  0  0  0  0
    1.1740    9.2890   -1.7860 C   0  0  2  0  0  0  0  0  0  0  0  0
    1.2204    9.4558   -0.3696 O   0  0  0  0  0  0  0  0  0  0  0  0
    0.7794    7.8119   -2.1653 C   0  0  1  0  0  0  0  0  0  0  0  0
    1.8995    6.7735   -1.8174 C   0  0  2  0  0  0  0  0  0  0  0  0
    3.3191    7.2327   -2.2365 C   0  0  1  0  0  0  0  0  0  0  0  0
    3.5342    7.0175   -3.6561 O   0  0  0  0  0  0  0  0  0  0  0  0
    3.5550    8.6173   -1.8542 O   0  0  0  0  0  0  0  0  0  0  0  0
    1.6342    5.5034   -2.4071 O   0  0  0  0  0  0  0  0  0  0  0  0
   -0.5074    7.4444   -1.4964 N   0  3  0  0  0  0  0  0  0  0  0  0
   -1.1734    6.2088   -1.9565 C   0  0  0  0  0  0  0  0  0  0  0  0
    0.1914   10.3490   -2.3421 C   0  0  0  0  0  0  0  0  0  0  0  0
  1  8  1  0  0  0  0
  1  9  1  6  0  0  0
  1  2  1  0  0  0  0
  2  3  1  0  0  0  0
  3  5  1  0  0  0  0
  3  4  1  1  0  0  0
  5  7  1  0  0  0  0
  5  6  1  1  0  0  0
  7  8  1  0  0  0  0
  9 10  1  0  0  0  0
 11 12  1  0  0  0  0
 11 18  1  0  0  0  0
 11 19  1  6  0  0  0
 12 13  1  0  0  0  0
 13 15  1  0  0  0  0
 13 14  1  6  0  0  0
 15 16  1  0  0  0  0
 15 26  1  1  0  0  0
 16 18  1  0  0  0  0
 16 17  1  6  0  0  0
 18  4  1  1  0  0  0
 20 21  1  0  0  0  0
 20 27  1  0  0  0  0
 21 31  1  6  0  0  0
 21 23  1  0  0  0  0
 21 22  1  0  0  0  0
 23 24  1  0  0  0  0
 23 29  1  1  0  0  0
 24 25  1  0  0  0  0
 24 28  1  6  0  0  0
 25 27  1  0  0  0  0
 25 26  1  6  0  0  0
 29 30  1  0  0  0  0
M  CHG  5   6   1  10   1  14   1  19   1  29   1
M  END
>  <CHROM.1>
140.08127980,80.50252010,-159.45257595,-51.71767395,179.46108094,-52.92100716
4.75677914,-69.62032984,-173.76729675,-63.88984251,-71.37828845,-78.52928471
-146.40413519,5.08058561,5.59774347,-2.62526306,0.58446484,-0.36406824,2.78109871

>  <Name>
1byj cryst

>  <RI>
0

>  <Rbt.Current_Directory>
/home/itssahil/PROJECTS/Mol_Feturizer/New_Systems/rnas/1byj

>  <Rbt.Executable>
rbdock ($Id: //depot/dev/client3/rdock/2013.1/src/exe/rbdock.cxx#4 $)

>  <Rbt.Library>
libRbt.so (2013.1, Build901 2013/11/27)

>  <Rbt.Parameter_File>
/export/apps/rDock/src/rDock_2013.1_src/data/scripts/dock_solv.prm

>  <Rbt.Receptor>
prm/pocket_docking_2.prm

>  <SCORE>
-40.4445

>  <SCORE.INTER>
-41.8139

>  <SCORE.INTER.CONST>
1

>  <SCORE.INTER.POLAR>
-5.60971

>  <SCORE.INTER.ROT>
6

>  <SCORE.INTER.SOLV>
28.3083

>  <SCORE.INTER.VDW>
-26.213

>  <SCORE.INTER.norm>
-1.34884

>  <SCORE.INTRA>
-0.589953

>  <SCORE.INTRA.DIHEDRAL>
0.275737

>  <SCORE.INTRA.DIHEDRAL.0>
18.4149

>  <SCORE.INTRA.POLAR>
0

>  <SCORE.INTRA.POLAR.0>
0

>  <SCORE.INTRA.REPUL>
-0.092687

>  <SCORE.INTRA.REPUL.0>
0.092687

>  <SCORE.INTRA.SOLV>
-2.81986

>  <SCORE.INTRA.SOLV.lig_0>
-120.37

>  <SCORE.INTRA.VDW>
1.14554

>  <SCORE.INTRA.VDW.0>
-1.75542

>  <SCORE.INTRA.norm>
-0.0190308

>  <SCORE.RESTR>
1.9593

>  <SCORE.RESTR.CAVITY>
1.9593

>  <SCORE.RESTR.norm>
0.0632032

>  <SCORE.SYSTEM>
0

>  <SCORE.SYSTEM.CONST>
0

>  <SCORE.SYSTEM.DIHEDRAL>
0

>  <SCORE.SYSTEM.SOLV>
0

>  <SCORE.SYSTEM.norm>
0

>  <SCORE.heavy>
31

>  <SCORE.norm>
-1.30466

>  <RMSD>
2.511

$$$$
1byj cryst
 OpenBabel11021811383D
libRbt.so/2013.1/901 2013/11/27
 31 33  0  0  0  0  0  0  0  0999 V2000
    5.6714    2.2660   -0.5823 C   0  0  1  0  0  0  0  0  0  0  0  0
    6.3715    3.5224   -0.8533 O   0  0  0  0  0  0  0  0  0  0  0  0
    7.3948    3.5431   -1.8930 C   0  0  2  0  0  0  0  0  0  0  0  0
    6.8081    3.3645   -3.2199 O   0  0  0  0  0  0  0  0  0  0  0  0
    8.4534    2.4379   -1.5960 C   0  0  2  0  0  0  0  0  0  0  0  0
    9.5342    2.3820   -2.5999 N   0  3  0  0  0  0  0  0  0  0  0  0
    7.7600    1.0567   -1.4712 C   0  0  0  0  0  0  0  0  0  0  0  0
    6.6635    1.0850   -0.3959 C   0  0  0  0  0  0  0  0  0  0  0  0
    4.8204    2.4196    0.6907 C   0  0  0  0  0  0  0  0  0  0  0  0
    5.5888    2.8328    1.8723 N   0  3  0  0  0  0  0  0  0  0  0  0
    7.1328    5.6230   -4.1494 C   0  0  1  0  0  0  0  0  0  0  0  0
    6.4325    6.8874   -4.7039 C   0  0  0  0  0  0  0  0  0  0  0  0
    5.4050    7.4343   -3.6768 C   0  0  1  0  0  0  0  0  0  0  0  0
    4.8024    8.6816   -4.1847 N   0  3  0  0  0  0  0  0  0  0  0  0
    4.3289    6.3546   -3.3642 C   0  0  1  0  0  0  0  0  0  0  0  0
    4.9726    5.0237   -2.9011 C   0  0  1  0  0  0  0  0  0  0  0  0
    3.9209    4.0739   -2.8117 O   0  0  0  0  0  0  0  0  0  0  0  0
    6.1041    4.4867   -3.8385 C   0  0  2  0  0  0  0  0  0  0  0  0
    8.1775    5.1719   -5.0855 N   0  3  0  0  0  0  0  0  0  0  0  0
    0.7101    5.5066   -2.6573 C   0  0  0  0  0  0  0  0  0  0  0  0
   -0.1685    6.0745   -1.5158 C   0  0  2  0  0  0  0  0  0  0  0  0
   -1.2479    6.7766   -2.1306 O   0  0  0  0  0  0  0  0  0  0  0  0
    0.6947    7.0424   -0.6217 C   0  0  1  0  0  0  0  0  0  0  0  0
    1.5073    8.0856   -1.4617 C   0  0  2  0  0  0  0  0  0  0  0  0
    2.2223    7.4671   -2.6898 C   0  0  1  0  0  0  0  0  0  0  0  0
    3.4502    6.8022   -2.2926 O   0  0  0  0  0  0  0  0  0  0  0  0
    1.3321    6.5756   -3.4191 O   0  0  0  0  0  0  0  0  0  0  0  0
    2.4722    8.7622   -0.6603 O   0  0  0  0  0  0  0  0  0  0  0  0
   -0.1857    7.7345    0.3704 N   0  3  0  0  0  0  0  0  0  0  0  0
    0.4818    8.4248    1.4927 C   0  0  0  0  0  0  0  0  0  0  0  0
   -0.7797    4.8910   -0.7260 C   0  0  0  0  0  0  0  0  0  0  0  0
  1  8  1  0  0  0  0
  1  9  1  1  0  0  0
  1  2  1  0  0  0  0
  2  3  1  0  0  0  0
  3  5  1  0  0  0  0
  3  4  1  6  0  0  0
  5  7  1  0  0  0  0
  5  6  1  6  0  0  0
  7  8  1  0  0  0  0
  9 10  1  0  0  0  0
 11 12  1  0  0  0  0
 11 18  1  0  0  0  0
 11 19  1  6  0  0  0
 12 13  1  0  0  0  0
 13 15  1  0  0  0  0
 13 14  1  6  0  0  0
 15 16  1  0  0  0  0
 15 26  1  1  0  0  0
 16 18  1  0  0  0  0
 16 17  1  6  0  0  0
 18  4  1  1  0  0  0
 20 21  1  0  0  0  0
 20 27  1  0  0  0  0
 21 31  1  1  0  0  0
 21 23  1  0  0  0  0
 21 22  1  0  0  0  0
 23 24  1  0  0  0  0
 23 29  1  1  0  0  0
 24 25  1  0  0  0  0
 24 28  1  1  0  0  0
 25 27  1  0  0  0  0
 25 26  1  1  0  0  0
 29 30  1  0  0  0  0
M  CHG  5   6   1  10   1  14   1  19   1  29   1
M  END
>  <CHROM.1>
-56.43646989,75.71811505,66.54243496,57.41451768,173.78266295,34.73209569
-58.85818583,93.70154584,-66.12666563,-67.12618193,-73.21350013,-171.66152797
-170.83132431,4.21533867,5.27528728,-1.96314212,0.29192529,-0.48095113,2.37227609

>  <Name>
1byj cryst

>  <RI>
0

>  <Rbt.Current_Directory>
/home/itssahil/PROJECTS/Mol_Feturizer/New_Systems/rnas/1byj

>  <Rbt.Executable>
rbdock ($Id: //depot/dev/client3/rdock/2013.1/src/exe/rbdock.cxx#4 $)

>  <Rbt.Library>
libRbt.so (2013.1, Build901 2013/11/27)

>  <Rbt.Parameter_File>
/export/apps/rDock/src/rDock_2013.1_src/data/scripts/dock_solv.prm

>  <Rbt.Receptor>
prm/pocket_docking_4.prm

>  <SCORE>
-43.8544

>  <SCORE.INTER>
-36.9753

>  <SCORE.INTER.CONST>
1

>  <SCORE.INTER.POLAR>
-5.86252

>  <SCORE.INTER.ROT>
6

>  <SCORE.INTER.SOLV>
19.3924

>  <SCORE.INTER.VDW>
-19.1726

>  <SCORE.INTER.norm>
-1.19275

>  <SCORE.INTRA>
-6.87907

>  <SCORE.INTRA.DIHEDRAL>
-9.28317

>  <SCORE.INTRA.DIHEDRAL.0>
18.4149

>  <SCORE.INTRA.POLAR>
-2.16533e-05

>  <SCORE.INTRA.POLAR.0>
0

>  <SCORE.INTRA.REPUL>
-0.092687

>  <SCORE.INTRA.REPUL.0>
0.092687

>  <SCORE.INTRA.SOLV>
0.357045

>  <SCORE.INTRA.SOLV.lig_0>
-120.37

>  <SCORE.INTRA.VDW>
-1.9525

>  <SCORE.INTRA.VDW.0>
-1.75542

>  <SCORE.INTRA.norm>
-0.221905

>  <SCORE.RESTR>
0

>  <SCORE.RESTR.CAVITY>
0

>  <SCORE.RESTR.norm>
0

>  <SCORE.SYSTEM>
0

>  <SCORE.SYSTEM.CONST>
0

>  <SCORE.SYSTEM.DIHEDRAL>
0

>  <SCORE.SYSTEM.SOLV>
0

>  <SCORE.SYSTEM.norm>
0

>  <SCORE.heavy>
31

>  <SCORE.norm>
-1.41466

>  <RMSD>
2.512

$$$$
1byj cryst
 OpenBabel11021811383D
libRbt.so/2013.1/901 2013/11/27
 31 33  0  0  0  0  0  0  0  0999 V2000
    7.4977    2.1839   -0.8506 C   0  0  1  0  0  0  0  0  0  0  0  0
    7.9863    3.4041   -1.4942 O   0  0  0  0  0  0  0  0  0  0  0  0
    8.3241    3.3599   -2.9128 C   0  0  2  0  0  0  0  0  0  0  0  0
    7.1314    3.1766   -3.7378 O   0  0  0  0  0  0  0  0  0  0  0  0
    9.3569    2.2189   -3.1612 C   0  0  2  0  0  0  0  0  0  0  0  0
    9.7606    2.0967   -4.5758 N   0  3  0  0  0  0  0  0  0  0  0  0
    8.7953    0.8705   -2.6412 C   0  0  0  0  0  0  0  0  0  0  0  0
    8.4145    0.9674   -1.1562 C   0  0  0  0  0  0  0  0  0  0  0  0
    7.4322    2.4001    0.6716 C   0  0  0  0  0  0  0  0  0  0  0  0
    8.7259    2.7380    1.2795 N   0  3  0  0  0  0  0  0  0  0  0  0
    7.3692    5.5892   -4.1776 C   0  0  1  0  0  0  0  0  0  0  0  0
    6.6303    6.8966   -4.5536 C   0  0  0  0  0  0  0  0  0  0  0  0
    5.4698    7.1702   -3.5595 C   0  0  1  0  0  0  0  0  0  0  0  0
    4.8246    8.4572   -3.8826 N   0  3  0  0  0  0  0  0  0  0  0  0
    4.4548    5.9907   -3.5784 C   0  0  1  0  0  0  0  0  0  0  0  0
    5.1516    4.6332   -3.3105 C   0  0  1  0  0  0  0  0  0  0  0  0
    4.1724    3.6264   -3.5196 O   0  0  0  0  0  0  0  0  0  0  0  0
    6.4058    4.3574   -4.2038 C   0  0  2  0  0  0  0  0  0  0  0  0
    8.5307    5.3923   -5.0628 N   0  3  0  0  0  0  0  0  0  0  0  0
    0.8281    4.6804   -2.0339 C   0  0  0  0  0  0  0  0  0  0  0  0
    0.0224    5.5852   -1.0697 C   0  0  2  0  0  0  0  0  0  0  0  0
   -1.1819    5.9456   -1.7448 O   0  0  0  0  0  0  0  0  0  0  0  0
    0.8727    6.8633   -0.7165 C   0  0  1  0  0  0  0  0  0  0  0  0
    1.4813    7.5590   -1.9812 C   0  0  2  0  0  0  0  0  0  0  0  0
    2.1211    6.5660   -2.9845 C   0  0  1  0  0  0  0  0  0  0  0  0
    3.4454    6.1668   -2.5436 O   0  0  0  0  0  0  0  0  0  0  0  0
    1.2538    5.4189   -3.2100 O   0  0  0  0  0  0  0  0  0  0  0  0
    2.4520    8.5384   -1.6210 O   0  0  0  0  0  0  0  0  0  0  0  0
    0.0368    7.8269    0.0652 N   0  3  0  0  0  0  0  0  0  0  0  0
    0.7166    8.5970    1.1266 C   0  0  0  0  0  0  0  0  0  0  0  0
   -0.3781    4.7518    0.1726 C   0  0  0  0  0  0  0  0  0  0  0  0
  1  8  1  0  0  0  0
  1  9  1  1  0  0  0
  1  2  1  0  0  0  0
  2  3  1  0  0  0  0
  3  5  1  0  0  0  0
  3  4  1  6  0  0  0
  5  7  1  0  0  0  0
  5  6  1  6  0  0  0
  7  8  1  0  0  0  0
  9 10  1  0  0  0  0
 11 12  1  0  0  0  0
 11 18  1  0  0  0  0
 11 19  1  6  0  0  0
 12 13  1  0  0  0  0
 13 15  1  0  0  0  0
 13 14  1  6  0  0  0
 15 16  1  0  0  0  0
 15 26  1  1  0  0  0
 16 18  1  0  0  0  0
 16 17  1  6  0  0  0
 18  4  1  1  0  0  0
 20 21  1  0  0  0  0
 20 27  1  0  0  0  0
 21 31  1  1  0  0  0
 21 23  1  0  0  0  0
 21 22  1  0  0  0  0
 23 24  1  0  0  0  0
 23 29  1  6  0  0  0
 24 25  1  0  0  0  0
 24 28  1  1  0  0  0
 25 27  1  0  0  0  0
 25 26  1  1  0  0  0
 29 30  1  0  0  0  0
M  CHG  5   6   1  10   1  14   1  19   1  29   1
M  END
>  <CHROM.1>
-59.48639908,89.63182933,21.91598700,-46.83538734,178.11854630,5.51548213
-59.34288183,106.10781945,-179.46854622,-63.77772941,-94.84486063,-64.84093094
-142.64367391,4.77435111,4.99080810,-2.28969584,0.18748305,-0.47250132,2.29977884

>  <Name>
1byj cryst

>  <RI>
0

>  <Rbt.Current_Directory>
/home/itssahil/PROJECTS/Mol_Feturizer/New_Systems/rnas/1byj

>  <Rbt.Executable>
rbdock ($Id: //depot/dev/client3/rdock/2013.1/src/exe/rbdock.cxx#4 $)

>  <Rbt.Library>
libRbt.so (2013.1, Build901 2013/11/27)

>  <Rbt.Parameter_File>
/export/apps/rDock/src/rDock_2013.1_src/data/scripts/dock_solv.prm

>  <Rbt.Receptor>
prm/pocket_docking_3.prm

>  <SCORE>
-46.4157

>  <SCORE.INTER>
-49.2244

>  <SCORE.INTER.CONST>
1

>  <SCORE.INTER.POLAR>
-7.46171

>  <SCORE.INTER.ROT>
6

>  <SCORE.INTER.SOLV>
22.8674

>  <SCORE.INTER.VDW>
-23.1664

>  <SCORE.INTER.norm>
-1.58788

>  <SCORE.INTRA>
2.79073

>  <SCORE.INTRA.DIHEDRAL>
8.05638

>  <SCORE.INTRA.DIHEDRAL.0>
18.4149

>  <SCORE.INTRA.POLAR>
-0.710103

>  <SCORE.INTRA.POLAR.0>
0

>  <SCORE.INTRA.REPUL>
-0.092687

>  <SCORE.INTRA.REPUL.0>
0.092687

>  <SCORE.INTRA.SOLV>
3.50123

>  <SCORE.INTRA.SOLV.lig_0>
-120.37

>  <SCORE.INTRA.VDW>
-0.110285

>  <SCORE.INTRA.VDW.0>
-1.75542

>  <SCORE.INTRA.norm>
0.0900237

>  <SCORE.RESTR>
0.0180033

>  <SCORE.RESTR.CAVITY>
0.0180033

>  <SCORE.RESTR.norm>
0.000580751

>  <SCORE.SYSTEM>
0

>  <SCORE.SYSTEM.CONST>
0

>  <SCORE.SYSTEM.DIHEDRAL>
0

>  <SCORE.SYSTEM.SOLV>
0

>  <SCORE.SYSTEM.norm>
0

>  <SCORE.heavy>
31

>  <SCORE.norm>
-1.49728

>  <RMSD>
2.518

$$$$
1byj cryst
 OpenBabel11021811383D
libRbt.so/2013.1/901 2013/11/27
 31 33  0  0  0  0  0  0  0  0999 V2000
    9.2097    1.7072   -3.9702 C   0  0  1  0  0  0  0  0  0  0  0  0
    7.7582    1.8445   -3.8420 O   0  0  0  0  0  0  0  0  0  0  0  0
    7.2142    2.4013   -2.6080 C   0  0  2  0  0  0  0  0  0  0  0  0
    7.5501    3.8173   -2.4704 O   0  0  0  0  0  0  0  0  0  0  0  0
    7.7452    1.5798   -1.3941 C   0  0  2  0  0  0  0  0  0  0  0  0
    7.2461    2.0719   -0.0950 N   0  3  0  0  0  0  0  0  0  0  0  0
    9.2955    1.5576   -1.4040 C   0  0  0  0  0  0  0  0  0  0  0  0
    9.8309    1.0028   -2.7325 C   0  0  0  0  0  0  0  0  0  0  0  0
    9.5362    0.8930   -5.2345 C   0  0  0  0  0  0  0  0  0  0  0  0
   10.9734    0.7892   -5.5191 N   0  3  0  0  0  0  0  0  0  0  0  0
    7.8959    5.7007   -4.0208 C   0  0  1  0  0  0  0  0  0  0  0  0
    7.2122    6.8313   -4.8276 C   0  0  0  0  0  0  0  0  0  0  0  0
    6.3626    7.7308   -3.8902 C   0  0  1  0  0  0  0  0  0  0  0  0
    5.7804    8.8480   -4.6581 N   0  3  0  0  0  0  0  0  0  0  0  0
    5.2689    6.8841   -3.1768 C   0  0  1  0  0  0  0  0  0  0  0  0
    5.8807    5.6708   -2.4328 C   0  0  1  0  0  0  0  0  0  0  0  0
    4.7908    4.8863   -1.9713 O   0  0  0  0  0  0  0  0  0  0  0  0
    6.8454    4.7948   -3.2985 C   0  0  2  0  0  0  0  0  0  0  0  0
    8.7804    4.9158   -4.8999 N   0  3  0  0  0  0  0  0  0  0  0  0
    1.6327    7.2798   -2.9270 C   0  0  0  0  0  0  0  0  0  0  0  0
    0.8273    8.0735   -1.8692 C   0  0  2  0  0  0  0  0  0  0  0  0
    0.0914    9.0747   -2.5707 O   0  0  0  0  0  0  0  0  0  0  0  0
    1.8204    8.7267   -0.8356 C   0  0  1  0  0  0  0  0  0  0  0  0
    3.0049    9.4858   -1.5246 C   0  0  2  0  0  0  0  0  0  0  0  0
    3.6512    8.6941   -2.6897 C   0  0  1  0  0  0  0  0  0  0  0  0
    4.5660    7.6860   -2.1851 O   0  0  0  0  0  0  0  0  0  0  0  0
    2.6348    8.1201   -3.5592 O   0  0  0  0  0  0  0  0  0  0  0  0
    4.0192    9.8316   -0.5851 O   0  0  0  0  0  0  0  0  0  0  0  0
    1.0689    9.6409    0.0797 N   0  3  0  0  0  0  0  0  0  0  0  0
    0.5332    9.0522    1.3240 C   0  0  0  0  0  0  0  0  0  0  0  0
   -0.2022    7.1205   -1.2134 C   0  0  0  0  0  0  0  0  0  0  0  0
  1  8  1  0  0  0  0
  1  9  1  6  0  0  0
  1  2  1  0  0  0  0
  2  3  1  0  0  0  0
  3  5  1  0  0  0  0
  3  4  1  1  0  0  0
  5  7  1  0  0  0  0
  5  6  1  1  0  0  0
  7  8  1  0  0  0  0
  9 10  1  0  0  0  0
 11 12  1  0  0  0  0
 11 18  1  0  0  0  0
 11 19  1  6  0  0  0
 12 13  1  0  0  0  0
 13 15  1  0  0  0  0
 13 14  1  6  0  0  0
 15 16  1  0  0  0  0
 15 26  1  1  0  0  0
 16 18  1  0  0  0  0
 16 17  1  6  0  0  0
 18  4  1  1  0  0  0
 20 21  1  0  0  0  0
 20 27  1  0  0  0  0
 21 31  1  1  0  0  0
 21 23  1  0  0  0  0
 21 22  1  0  0  0  0
 23 24  1  0  0  0  0
 23 29  1  6  0  0  0
 24 25  1  0  0  0  0
 24 28  1  1  0  0  0
 25 27  1  0  0  0  0
 25 26  1  1  0  0  0
 29 30  1  0  0  0  0
M  CHG  5   6   1  10   1  14   1  19   1  29   1
M  END
>  <CHROM.1>
175.24068589,74.35093971,-128.45391750,-49.68406360,-177.96890716,156.95774128
82.31748429,72.41785187,68.51898382,-49.67266772,-148.56092389,75.87404928
-178.69239875,5.44277776,5.71554504,-2.61457038,0.41059518,-0.67416088,2.48339312

>  <Name>
1byj cryst

>  <RI>
0

>  <Rbt.Current_Directory>
/home/itssahil/PROJECTS/Mol_Feturizer/New_Systems/rnas/1byj

>  <Rbt.Executable>
rbdock ($Id: //depot/dev/client3/rdock/2013.1/src/exe/rbdock.cxx#4 $)

>  <Rbt.Library>
libRbt.so (2013.1, Build901 2013/11/27)

>  <Rbt.Parameter_File>
/export/apps/rDock/src/rDock_2013.1_src/data/scripts/dock_solv.prm

>  <Rbt.Receptor>
prm/pocket_docking_8.prm

>  <SCORE>
-54.26

>  <SCORE.INTER>
-50.5633

>  <SCORE.INTER.CONST>
1

>  <SCORE.INTER.POLAR>
-6.61556

>  <SCORE.INTER.ROT>
6

>  <SCORE.INTER.SOLV>
28.5429

>  <SCORE.INTER.VDW>
-28.7712

>  <SCORE.INTER.norm>
-1.63107

>  <SCORE.INTRA>
-3.69669

>  <SCORE.INTRA.DIHEDRAL>
-2.97677

>  <SCORE.INTRA.DIHEDRAL.0>
18.4149

>  <SCORE.INTRA.POLAR>
-0.143663

>  <SCORE.INTRA.POLAR.0>
0

>  <SCORE.INTRA.REPUL>
-0.092687

>  <SCORE.INTRA.REPUL.0>
0.092687

>  <SCORE.INTRA.SOLV>
-0.638748

>  <SCORE.INTRA.SOLV.lig_0>
-120.37

>  <SCORE.INTRA.VDW>
-0.937047

>  <SCORE.INTRA.VDW.0>
-1.75542

>  <SCORE.INTRA.norm>
-0.119248

>  <SCORE.RESTR>
0

>  <SCORE.RESTR.CAVITY>
0

>  <SCORE.RESTR.norm>
0

>  <SCORE.SYSTEM>
0

>  <SCORE.SYSTEM.CONST>
0

>  <SCORE.SYSTEM.DIHEDRAL>
0

>  <SCORE.SYSTEM.SOLV>
0

>  <SCORE.SYSTEM.norm>
0

>  <SCORE.heavy>
31

>  <SCORE.norm>
-1.75032

>  <RMSD>
2.519

$$$$
1byj cryst
 OpenBabel11021811383D
libRbt.so/2013.1/901 2013/11/27
 31 33  0  0  0  0  0  0  0  0999 V2000
    7.6090    2.4521   -0.8496 C   0  0  1  0  0  0  0  0  0  0  0  0
    8.1386    3.5998   -1.5873 O   0  0  0  0  0  0  0  0  0  0  0  0
    8.4388    3.4416   -3.0063 C   0  0  2  0  0  0  0  0  0  0  0  0
    7.2187    3.2602   -3.7907 O   0  0  0  0  0  0  0  0  0  0  0  0
    9.4102    2.2371   -3.1962 C   0  0  2  0  0  0  0  0  0  0  0  0
    9.7726    1.9981   -4.6071 N   0  3  0  0  0  0  0  0  0  0  0  0
    8.7986    0.9567   -2.5711 C   0  0  0  0  0  0  0  0  0  0  0  0
    8.4596    1.1741   -1.0888 C   0  0  0  0  0  0  0  0  0  0  0  0
    7.5914    2.7756    0.6548 C   0  0  0  0  0  0  0  0  0  0  0  0
    8.6886    3.6514    1.0866 N   0  3  0  0  0  0  0  0  0  0  0  0
    7.3939    5.7008   -4.0792 C   0  0  1  0  0  0  0  0  0  0  0  0
    6.6304    7.0033   -4.4213 C   0  0  0  0  0  0  0  0  0  0  0  0
    5.4089    7.1806   -3.4798 C   0  0  1  0  0  0  0  0  0  0  0  0
    4.7367    8.4626   -3.7650 N   0  3  0  0  0  0  0  0  0  0  0  0
    4.4390    5.9719   -3.6221 C   0  0  1  0  0  0  0  0  0  0  0  0
    5.1682    4.6243   -3.3930 C   0  0  1  0  0  0  0  0  0  0  0  0
    4.2381    3.6003   -3.7133 O   0  0  0  0  0  0  0  0  0  0  0  0
    6.4779    4.4421   -4.2290 C   0  0  2  0  0  0  0  0  0  0  0  0
    8.6078    5.5938   -4.9077 N   0  3  0  0  0  0  0  0  0  0  0  0
    0.8919    4.3920   -1.9910 C   0  0  0  0  0  0  0  0  0  0  0  0
   -0.0242    5.3248   -1.1615 C   0  0  2  0  0  0  0  0  0  0  0  0
   -1.2371    5.4797   -1.8971 O   0  0  0  0  0  0  0  0  0  0  0  0
    0.6898    6.7138   -0.9562 C   0  0  1  0  0  0  0  0  0  0  0  0
    1.2662    7.3055   -2.2872 C   0  0  2  0  0  0  0  0  0  0  0  0
    2.0268    6.2645   -3.1473 C   0  0  1  0  0  0  0  0  0  0  0  0
    3.3696    6.0543   -2.6371 O   0  0  0  0  0  0  0  0  0  0  0  0
    1.2798    5.0188   -3.2427 O   0  0  0  0  0  0  0  0  0  0  0  0
    2.1282    8.4122   -2.0355 O   0  0  0  0  0  0  0  0  0  0  0  0
   -0.2567    7.6793   -0.3156 N   0  3  0  0  0  0  0  0  0  0  0  0
    0.2991    8.5799    0.7149 C   0  0  0  0  0  0  0  0  0  0  0  0
   -0.3798    4.6149    0.1680 C   0  0  0  0  0  0  0  0  0  0  0  0
  1  8  1  0  0  0  0
  1  9  1  1  0  0  0
  1  2  1  0  0  0  0
  2  3  1  0  0  0  0
  3  5  1  0  0  0  0
  3  4  1  6  0  0  0
  5  7  1  0  0  0  0
  5  6  1  6  0  0  0
  7  8  1  0  0  0  0
  9 10  1  0  0  0  0
 11 12  1  0  0  0  0
 11 18  1  0  0  0  0
 11 19  1  6  0  0  0
 12 13  1  0  0  0  0
 13 15  1  0  0  0  0
 13 14  1  6  0  0  0
 15 16  1  0  0  0  0
 15 26  1  1  0  0  0
 16 18  1  0  0  0  0
 16 17  1  6  0  0  0
 18  4  1  1  0  0  0
 20 21  1  0  0  0  0
 20 27  1  0  0  0  0
 21 31  1  1  0  0  0
 21 23  1  0  0  0  0
 21 22  1  0  0  0  0
 23 24  1  0  0  0  0
 23 29  1  6  0  0  0
 24 25  1  0  0  0  0
 24 28  1  1  0  0  0
 25 27  1  0  0  0  0
 25 26  1  1  0  0  0
 29 30  1  0  0  0  0
M  CHG  5   6   1  10   1  14   1  19   1  29   1
M  END
>  <CHROM.1>
-32.96050341,84.63526909,15.60668131,72.12102957,142.06156400,-23.45791978
-57.28435127,113.84075132,-67.87493083,-60.65727820,-98.57975440,-67.37167938
-137.32365815,4.74286174,4.99333835,-2.36927337,0.18936826,-0.41210321,2.35399453

>  <Name>
1byj cryst

>  <RI>
0

>  <Rbt.Current_Directory>
/home/itssahil/PROJECTS/Mol_Feturizer/New_Systems/rnas/1byj

>  <Rbt.Executable>
rbdock ($Id: //depot/dev/client3/rdock/2013.1/src/exe/rbdock.cxx#4 $)

>  <Rbt.Library>
libRbt.so (2013.1, Build901 2013/11/27)

>  <Rbt.Parameter_File>
/export/apps/rDock/src/rDock_2013.1_src/data/scripts/dock_solv.prm

>  <Rbt.Receptor>
prm/pocket_docking_3.prm

>  <SCORE>
-45.4696

>  <SCORE.INTER>
-48.4038

>  <SCORE.INTER.CONST>
1

>  <SCORE.INTER.POLAR>
-7.3058

>  <SCORE.INTER.ROT>
6

>  <SCORE.INTER.SOLV>
23.5802

>  <SCORE.INTER.VDW>
-23.3766

>  <SCORE.INTER.norm>
-1.56141

>  <SCORE.INTRA>
2.92542

>  <SCORE.INTRA.DIHEDRAL>
13.9789

>  <SCORE.INTRA.DIHEDRAL.0>
18.4149

>  <SCORE.INTRA.POLAR>
-1.47998

>  <SCORE.INTRA.POLAR.0>
0

>  <SCORE.INTRA.REPUL>
-0.092687

>  <SCORE.INTRA.REPUL.0>
0.092687

>  <SCORE.INTRA.SOLV>
2.65719

>  <SCORE.INTRA.SOLV.lig_0>
-120.37

>  <SCORE.INTRA.VDW>
0.102751

>  <SCORE.INTRA.VDW.0>
-1.75542

>  <SCORE.INTRA.norm>
0.0943682

>  <SCORE.RESTR>
0.00883347

>  <SCORE.RESTR.CAVITY>
0.00883347

>  <SCORE.RESTR.norm>
0.000284951

>  <SCORE.SYSTEM>
0

>  <SCORE.SYSTEM.CONST>
0

>  <SCORE.SYSTEM.DIHEDRAL>
0

>  <SCORE.SYSTEM.SOLV>
0

>  <SCORE.SYSTEM.norm>
0

>  <SCORE.heavy>
31

>  <SCORE.norm>
-1.46676

>  <RMSD>
2.523

$$$$
1byj cryst
 OpenBabel11021811383D
libRbt.so/2013.1/901 2013/11/27
 31 33  0  0  0  0  0  0  0  0999 V2000
    7.5159    2.3179   -0.8432 C   0  0  1  0  0  0  0  0  0  0  0  0
    8.0394    3.5202   -1.4931 O   0  0  0  0  0  0  0  0  0  0  0  0
    8.3896    3.4548   -2.9079 C   0  0  2  0  0  0  0  0  0  0  0  0
    7.2009    3.2919   -3.7428 O   0  0  0  0  0  0  0  0  0  0  0  0
    9.3975    2.2875   -3.1357 C   0  0  2  0  0  0  0  0  0  0  0  0
    9.8118    2.1426   -4.5451 N   0  3  0  0  0  0  0  0  0  0  0  0
    8.7994    0.9576   -2.6089 C   0  0  0  0  0  0  0  0  0  0  0  0
    8.4067    1.0773   -1.1287 C   0  0  0  0  0  0  0  0  0  0  0  0
    7.4409    2.5498    0.6762 C   0  0  0  0  0  0  0  0  0  0  0  0
    6.7865    1.4599    1.4117 N   0  3  0  0  0  0  0  0  0  0  0  0
    7.4096    5.7334   -3.9992 C   0  0  1  0  0  0  0  0  0  0  0  0
    6.6730    7.0459   -4.3615 C   0  0  0  0  0  0  0  0  0  0  0  0
    5.4130    7.2253   -3.4728 C   0  0  1  0  0  0  0  0  0  0  0  0
    4.7651    8.5160   -3.7745 N   0  3  0  0  0  0  0  0  0  0  0  0
    4.4399    6.0269   -3.6694 C   0  0  1  0  0  0  0  0  0  0  0  0
    5.1466    4.6706   -3.4219 C   0  0  1  0  0  0  0  0  0  0  0  0
    4.2228    3.6582   -3.7927 O   0  0  0  0  0  0  0  0  0  0  0  0
    6.4902    4.4845   -4.2014 C   0  0  2  0  0  0  0  0  0  0  0  0
    8.6577    5.6232   -4.7748 N   0  3  0  0  0  0  0  0  0  0  0  0
    0.6873    4.6070   -2.4435 C   0  0  0  0  0  0  0  0  0  0  0  0
   -0.1989    5.5022   -1.5429 C   0  0  2  0  0  0  0  0  0  0  0  0
   -1.3465    5.8604   -2.3116 O   0  0  0  0  0  0  0  0  0  0  0  0
    0.6130    6.7826   -1.1152 C   0  0  1  0  0  0  0  0  0  0  0  0
    1.3182    7.4886   -2.3228 C   0  0  2  0  0  0  0  0  0  0  0  0
    2.0426    6.5046   -3.2761 C   0  0  1  0  0  0  0  0  0  0  0  0
    3.3291    6.1096   -2.7314 O   0  0  0  0  0  0  0  0  0  0  0  0
    1.2029    5.3544   -3.5773 O   0  0  0  0  0  0  0  0  0  0  0  0
    2.2511    8.4709   -1.8799 O   0  0  0  0  0  0  0  0  0  0  0  0
   -0.2889    7.7375   -0.3988 N   0  3  0  0  0  0  0  0  0  0  0  0
    0.3450    8.6742    0.5512 C   0  0  0  0  0  0  0  0  0  0  0  0
   -0.6941    4.6597   -0.3417 C   0  0  0  0  0  0  0  0  0  0  0  0
  1  8  1  0  0  0  0
  1  9  1  1  0  0  0
  1  2  1  0  0  0  0
  2  3  1  0  0  0  0
  3  5  1  0  0  0  0
  3  4  1  6  0  0  0
  5  7  1  0  0  0  0
  5  6  1  6  0  0  0
  7  8  1  0  0  0  0
  9 10  1  0  0  0  0
 11 12  1  0  0  0  0
 11 18  1  0  0  0  0
 11 19  1  6  0  0  0
 12 13  1  0  0  0  0
 13 15  1  0  0  0  0
 13 14  1  6  0  0  0
 15 16  1  0  0  0  0
 15 26  1  1  0  0  0
 16 18  1  0  0  0  0
 16 17  1  6  0  0  0
 18  4  1  1  0  0  0
 20 21  1  0  0  0  0
 20 27  1  0  0  0  0
 21 31  1  1  0  0  0
 21 23  1  0  0  0  0
 21 22  1  0  0  0  0
 23 24  1  0  0  0  0
 23 29  1  6  0  0  0
 24 25  1  0  0  0  0
 24 28  1  1  0  0  0
 25 27  1  0  0  0  0
 25 26  1  1  0  0  0
 29 30  1  0  0  0  0
M  CHG  5   6   1  10   1  14   1  19   1  29   1
M  END
>  <CHROM.1>
173.46133297,88.24864690,15.38932012,-167.21544857,-55.92263649,-35.47966285
62.12498068,106.23191165,178.47223112,179.34579139,-84.27931793,-71.21616697
-138.87163254,4.63572541,4.97373053,-2.42275842,0.27021679,-0.40459124,2.43155896

>  <Name>
1byj cryst

>  <RI>
0

>  <Rbt.Current_Directory>
/home/itssahil/PROJECTS/Mol_Feturizer/New_Systems/rnas/1byj

>  <Rbt.Executable>
rbdock ($Id: //depot/dev/client3/rdock/2013.1/src/exe/rbdock.cxx#4 $)

>  <Rbt.Library>
libRbt.so (2013.1, Build901 2013/11/27)

>  <Rbt.Parameter_File>
/export/apps/rDock/src/rDock_2013.1_src/data/scripts/dock_solv.prm

>  <Rbt.Receptor>
prm/pocket_docking_3.prm

>  <SCORE>
-46.6216

>  <SCORE.INTER>
-47.9302

>  <SCORE.INTER.CONST>
1

>  <SCORE.INTER.POLAR>
-6.7602

>  <SCORE.INTER.ROT>
6

>  <SCORE.INTER.SOLV>
23.9426

>  <SCORE.INTER.VDW>
-25.0003

>  <SCORE.INTER.norm>
-1.54614

>  <SCORE.INTRA>
1.30858

>  <SCORE.INTRA.DIHEDRAL>
6.91092

>  <SCORE.INTRA.DIHEDRAL.0>
18.4149

>  <SCORE.INTRA.POLAR>
-1.15502

>  <SCORE.INTRA.POLAR.0>
0

>  <SCORE.INTRA.REPUL>
-0.092687

>  <SCORE.INTRA.REPUL.0>
0.092687

>  <SCORE.INTRA.SOLV>
2.21067

>  <SCORE.INTRA.SOLV.lig_0>
-120.37

>  <SCORE.INTRA.VDW>
1.1383

>  <SCORE.INTRA.VDW.0>
-1.75542

>  <SCORE.INTRA.norm>
0.0422123

>  <SCORE.RESTR>
0

>  <SCORE.RESTR.CAVITY>
0

>  <SCORE.RESTR.norm>
0

>  <SCORE.SYSTEM>
0

>  <SCORE.SYSTEM.CONST>
0

>  <SCORE.SYSTEM.DIHEDRAL>
0

>  <SCORE.SYSTEM.SOLV>
0

>  <SCORE.SYSTEM.norm>
0

>  <SCORE.heavy>
31

>  <SCORE.norm>
-1.50392

>  <RMSD>
2.524

$$$$
1byj cryst
 OpenBabel11021811383D
libRbt.so/2013.1/901 2013/11/27
 31 33  0  0  0  0  0  0  0  0999 V2000
    6.6343    2.2309   -0.7518 C   0  0  1  0  0  0  0  0  0  0  0  0
    7.1754    3.4858   -1.2757 O   0  0  0  0  0  0  0  0  0  0  0  0
    7.6815    3.5125   -2.6438 C   0  0  2  0  0  0  0  0  0  0  0  0
    6.5995    3.3544   -3.6140 O   0  0  0  0  0  0  0  0  0  0  0  0
    8.7561    2.3966   -2.8175 C   0  0  2  0  0  0  0  0  0  0  0  0
    9.3285    2.3460   -4.1772 N   0  3  0  0  0  0  0  0  0  0  0  0
    8.1597    1.0187   -2.4307 C   0  0  0  0  0  0  0  0  0  0  0  0
    7.6020    1.0410   -0.9996 C   0  0  0  0  0  0  0  0  0  0  0  0
    6.3831    2.3744    0.7597 C   0  0  0  0  0  0  0  0  0  0  0  0
    5.3560    1.4624    1.2800 N   0  3  0  0  0  0  0  0  0  0  0  0
    7.0327    5.6978   -4.2396 C   0  0  1  0  0  0  0  0  0  0  0  0
    6.4024    7.0276   -4.7201 C   0  0  0  0  0  0  0  0  0  0  0  0
    5.2696    7.4717   -3.7561 C   0  0  1  0  0  0  0  0  0  0  0  0
    4.7311    8.7777   -4.1818 N   0  3  0  0  0  0  0  0  0  0  0  0
    4.1618    6.3810   -3.6878 C   0  0  1  0  0  0  0  0  0  0  0  0
    4.7458    4.9964   -3.3113 C   0  0  1  0  0  0  0  0  0  0  0  0
    3.6875    4.0594   -3.4460 O   0  0  0  0  0  0  0  0  0  0  0  0
    5.9721    4.5503   -4.1743 C   0  0  2  0  0  0  0  0  0  0  0  0
    8.1729    5.3383   -5.1011 N   0  3  0  0  0  0  0  0  0  0  0  0
    1.6311    5.0205   -0.6595 C   0  0  0  0  0  0  0  0  0  0  0  0
    0.4445    5.9029   -0.2001 C   0  0  2  0  0  0  0  0  0  0  0  0
   -0.7516    5.2161   -0.5657 O   0  0  0  0  0  0  0  0  0  0  0  0
    0.5274    7.3054   -0.9123 C   0  0  1  0  0  0  0  0  0  0  0  0
    0.7546    7.1915   -2.4581 C   0  0  2  0  0  0  0  0  0  0  0  0
    1.8433    6.1596   -2.8478 C   0  0  1  0  0  0  0  0  0  0  0  0
    3.1717    6.7191   -2.6748 O   0  0  0  0  0  0  0  0  0  0  0  0
    1.6753    4.9174   -2.1077 O   0  0  0  0  0  0  0  0  0  0  0  0
    1.0907    8.4529   -3.0300 O   0  0  0  0  0  0  0  0  0  0  0  0
   -0.7077    8.0964   -0.6172 N   0  3  0  0  0  0  0  0  0  0  0  0
   -0.5398    9.3314    0.1755 C   0  0  0  0  0  0  0  0  0  0  0  0
    0.4671    5.9970    1.3455 C   0  0  0  0  0  0  0  0  0  0  0  0
  1  8  1  0  0  0  0
  1  9  1  1  0  0  0
  1  2  1  0  0  0  0
  2  3  1  0  0  0  0
  3  5  1  0  0  0  0
  3  4  1  6  0  0  0
  5  7  1  0  0  0  0
  5  6  1  6  0  0  0
  7  8  1  0  0  0  0
  9 10  1  0  0  0  0
 11 12  1  0  0  0  0
 11 18  1  0  0  0  0
 11 19  1  6  0  0  0
 12 13  1  0  0  0  0
 13 15  1  0  0  0  0
 13 14  1  6  0  0  0
 15 16  1  0  0  0  0
 15 26  1  1  0  0  0
 16 18  1  0  0  0  0
 16 17  1  6  0  0  0
 18  4  1  1  0  0  0
 20 21  1  0  0  0  0
 20 27  1  0  0  0  0
 21 31  1  1  0  0  0
 21 23  1  0  0  0  0
 21 22  1  0  0  0  0
 23 24  1  0  0  0  0
 23 29  1  6  0  0  0
 24 25  1  0  0  0  0
 24 28  1  1  0  0  0
 25 27  1  0  0  0  0
 25 26  1  1  0  0  0
 29 30  1  0  0  0  0
M  CHG  5   6   1  10   1  14   1  19   1  29   1
M  END
>  <CHROM.1>
155.24775253,93.49024770,30.83948355,75.68720524,-114.33265634,-95.74387362
-173.95827199,155.05416421,-172.14056466,-60.70131705,-123.93778283,179.52720418
-140.81350329,4.28272214,5.09680534,-2.19784008,0.24564092,-0.51304902,2.39946437

>  <Name>
1byj cryst

>  <RI>
0

>  <Rbt.Current_Directory>
/home/itssahil/PROJECTS/Mol_Feturizer/New_Systems/rnas/1byj

>  <Rbt.Executable>
rbdock ($Id: //depot/dev/client3/rdock/2013.1/src/exe/rbdock.cxx#4 $)

>  <Rbt.Library>
libRbt.so (2013.1, Build901 2013/11/27)

>  <Rbt.Parameter_File>
/export/apps/rDock/src/rDock_2013.1_src/data/scripts/dock_solv.prm

>  <Rbt.Receptor>
prm/pocket_docking_5.prm

>  <SCORE>
-53.5763

>  <SCORE.INTER>
-58.5078

>  <SCORE.INTER.CONST>
1

>  <SCORE.INTER.POLAR>
-9.95323

>  <SCORE.INTER.ROT>
6

>  <SCORE.INTER.SOLV>
25.2714

>  <SCORE.INTER.VDW>
-21.8516

>  <SCORE.INTER.norm>
-1.88735

>  <SCORE.INTRA>
4.93151

>  <SCORE.INTRA.DIHEDRAL>
9.65205

>  <SCORE.INTRA.DIHEDRAL.0>
18.4149

>  <SCORE.INTRA.POLAR>
-0.00646674

>  <SCORE.INTRA.POLAR.0>
0

>  <SCORE.INTRA.REPUL>
-0.092687

>  <SCORE.INTRA.REPUL.0>
0.092687

>  <SCORE.INTRA.SOLV>
1.35817

>  <SCORE.INTRA.SOLV.lig_0>
-120.37

>  <SCORE.INTRA.VDW>
-0.0881784

>  <SCORE.INTRA.VDW.0>
-1.75542

>  <SCORE.INTRA.norm>
0.159081

>  <SCORE.RESTR>
0

>  <SCORE.RESTR.CAVITY>
0

>  <SCORE.RESTR.norm>
0

>  <SCORE.SYSTEM>
0

>  <SCORE.SYSTEM.CONST>
0

>  <SCORE.SYSTEM.DIHEDRAL>
0

>  <SCORE.SYSTEM.SOLV>
0

>  <SCORE.SYSTEM.norm>
0

>  <SCORE.heavy>
31

>  <SCORE.norm>
-1.72827

>  <RMSD>
2.525

$$$$
1byj cryst
 OpenBabel11021811383D
libRbt.so/2013.1/901 2013/11/27
 31 33  0  0  0  0  0  0  0  0999 V2000
    7.4627    2.4979   -0.7901 C   0  0  1  0  0  0  0  0  0  0  0  0
    7.9700    3.6860   -1.4780 O   0  0  0  0  0  0  0  0  0  0  0  0
    8.2996    3.5865   -2.8958 C   0  0  2  0  0  0  0  0  0  0  0  0
    7.0994    3.3965   -3.7084 O   0  0  0  0  0  0  0  0  0  0  0  0
    9.3102    2.4188   -3.1091 C   0  0  2  0  0  0  0  0  0  0  0  0
    9.7043    2.2403   -4.5204 N   0  3  0  0  0  0  0  0  0  0  0  0
    8.7270    1.0997   -2.5399 C   0  0  0  0  0  0  0  0  0  0  0  0
    8.3558    1.2550   -1.0575 C   0  0  0  0  0  0  0  0  0  0  0  0
    7.4091    2.7680    0.7239 C   0  0  0  0  0  0  0  0  0  0  0  0
    6.4364    3.7989    1.1090 N   0  3  0  0  0  0  0  0  0  0  0  0
    7.2438    5.8450   -3.9421 C   0  0  1  0  0  0  0  0  0  0  0  0
    6.4755    7.1399   -4.3018 C   0  0  0  0  0  0  0  0  0  0  0  0
    5.2012    7.2770   -3.4258 C   0  0  1  0  0  0  0  0  0  0  0  0
    4.5215    8.5521   -3.7241 N   0  3  0  0  0  0  0  0  0  0  0  0
    4.2637    6.0542   -3.6434 C   0  0  1  0  0  0  0  0  0  0  0  0
    5.0047    4.7157   -3.3992 C   0  0  1  0  0  0  0  0  0  0  0  0
    4.1131    3.6816   -3.7888 O   0  0  0  0  0  0  0  0  0  0  0  0
    6.3613    4.5732   -4.1651 C   0  0  2  0  0  0  0  0  0  0  0  0
    8.5029    5.7758   -4.7045 N   0  3  0  0  0  0  0  0  0  0  0  0
    0.8309    4.3013   -1.8483 C   0  0  0  0  0  0  0  0  0  0  0  0
   -0.2252    5.2553   -1.2383 C   0  0  2  0  0  0  0  0  0  0  0  0
   -1.4071    5.1281   -2.0277 O   0  0  0  0  0  0  0  0  0  0  0  0
    0.3192    6.7330   -1.2757 C   0  0  1  0  0  0  0  0  0  0  0  0
    0.8964    7.1346   -2.6755 C   0  0  2  0  0  0  0  0  0  0  0  0
    1.8118    6.0511   -3.3000 C   0  0  1  0  0  0  0  0  0  0  0  0
    3.1407    6.0983   -2.7174 O   0  0  0  0  0  0  0  0  0  0  0  0
    1.2129    4.7295   -3.1827 O   0  0  0  0  0  0  0  0  0  0  0  0
    1.6165    8.3628   -2.6096 O   0  0  0  0  0  0  0  0  0  0  0  0
   -0.7607    7.6807   -0.8584 N   0  3  0  0  0  0  0  0  0  0  0  0
   -0.3449    8.8824   -0.1069 C   0  0  0  0  0  0  0  0  0  0  0  0
   -0.5702    4.7641    0.1892 C   0  0  0  0  0  0  0  0  0  0  0  0
  1  8  1  0  0  0  0
  1  9  1  1  0  0  0
  1  2  1  0  0  0  0
  2  3  1  0  0  0  0
  3  5  1  0  0  0  0
  3  4  1  6  0  0  0
  5  7  1  0  0  0  0
  5  6  1  6  0  0  0
  7  8  1  0  0  0  0
  9 10  1  0  0  0  0
 11 12  1  0  0  0  0
 11 18  1  0  0  0  0
 11 19  1  6  0  0  0
 12 13  1  0  0  0  0
 13 15  1  0  0  0  0
 13 14  1  6  0  0  0
 15 16  1  0  0  0  0
 15 26  1  1  0  0  0
 16 18  1  0  0  0  0
 16 17  1  6  0  0  0
 18  4  1  1  0  0  0
 20 21  1  0  0  0  0
 20 27  1  0  0  0  0
 21 31  1  1  0  0  0
 21 23  1  0  0  0  0
 21 22  1  0  0  0  0
 23 24  1  0  0  0  0
 23 29  1  6  0  0  0
 24 25  1  0  0  0  0
 24 28  1  1  0  0  0
 25 27  1  0  0  0  0
 25 26  1  1  0  0  0
 29 30  1  0  0  0  0
M  CHG  5   6   1  10   1  14   1  19   1  29   1
M  END
>  <CHROM.1>
65.97759703,87.10275799,13.37315339,74.96065608,-57.28399065,-147.09996447
178.72126160,124.61435066,-175.58056691,-64.24906834,-92.95697159,-64.23949562
-133.33028941,4.46234215,5.04012149,-2.42669312,0.22718135,-0.36697641,2.44259761

>  <Name>
1byj cryst

>  <RI>
0

>  <Rbt.Current_Directory>
/home/itssahil/PROJECTS/Mol_Feturizer/New_Systems/rnas/1byj

>  <Rbt.Executable>
rbdock ($Id: //depot/dev/client3/rdock/2013.1/src/exe/rbdock.cxx#4 $)

>  <Rbt.Library>
libRbt.so (2013.1, Build901 2013/11/27)

>  <Rbt.Parameter_File>
/export/apps/rDock/src/rDock_2013.1_src/data/scripts/dock_solv.prm

>  <Rbt.Receptor>
prm/pocket_docking_6.prm

>  <SCORE>
-51.4778

>  <SCORE.INTER>
-53.2426

>  <SCORE.INTER.CONST>
1

>  <SCORE.INTER.POLAR>
-8.20282

>  <SCORE.INTER.ROT>
6

>  <SCORE.INTER.SOLV>
22.3003

>  <SCORE.INTER.VDW>
-23.1858

>  <SCORE.INTER.norm>
-1.7175

>  <SCORE.INTRA>
1.76483

>  <SCORE.INTRA.DIHEDRAL>
9.77005

>  <SCORE.INTRA.DIHEDRAL.0>
18.4149

>  <SCORE.INTRA.POLAR>
-1.14535

>  <SCORE.INTRA.POLAR.0>
0

>  <SCORE.INTRA.REPUL>
-0.092687

>  <SCORE.INTRA.REPUL.0>
0.092687

>  <SCORE.INTRA.SOLV>
1.32854

>  <SCORE.INTRA.SOLV.lig_0>
-120.37

>  <SCORE.INTRA.VDW>
0.573145

>  <SCORE.INTRA.VDW.0>
-1.75542

>  <SCORE.INTRA.norm>
0.0569299

>  <SCORE.RESTR>
0

>  <SCORE.RESTR.CAVITY>
0

>  <SCORE.RESTR.norm>
0

>  <SCORE.SYSTEM>
0

>  <SCORE.SYSTEM.CONST>
0

>  <SCORE.SYSTEM.DIHEDRAL>
0

>  <SCORE.SYSTEM.SOLV>
0

>  <SCORE.SYSTEM.norm>
0

>  <SCORE.heavy>
31

>  <SCORE.norm>
-1.66057

>  <RMSD>
2.529

$$$$
1byj cryst
 OpenBabel11021811383D
libRbt.so/2013.1/901 2013/11/27
 31 33  0  0  0  0  0  0  0  0999 V2000
    7.3745    2.4568   -0.8175 C   0  0  1  0  0  0  0  0  0  0  0  0
    7.9107    3.6520   -1.4702 O   0  0  0  0  0  0  0  0  0  0  0  0
    8.2822    3.5730   -2.8789 C   0  0  2  0  0  0  0  0  0  0  0  0
    7.1059    3.4052   -3.7303 O   0  0  0  0  0  0  0  0  0  0  0  0
    9.2907    2.4013   -3.0808 C   0  0  2  0  0  0  0  0  0  0  0  0
    9.7259    2.2427   -4.4823 N   0  3  0  0  0  0  0  0  0  0  0  0
    8.6813    1.0776   -2.5511 C   0  0  0  0  0  0  0  0  0  0  0  0
    8.2665    1.2117   -1.0782 C   0  0  0  0  0  0  0  0  0  0  0  0
    7.2770    2.7028    0.6984 C   0  0  0  0  0  0  0  0  0  0  0  0
    6.2709    3.7048    1.0738 N   0  3  0  0  0  0  0  0  0  0  0  0
    7.2675    5.8565   -3.9181 C   0  0  1  0  0  0  0  0  0  0  0  0
    6.5124    7.1620   -4.2673 C   0  0  0  0  0  0  0  0  0  0  0  0
    5.2246    7.2909   -3.4102 C   0  0  1  0  0  0  0  0  0  0  0  0
    4.5568    8.5750   -3.6969 N   0  3  0  0  0  0  0  0  0  0  0  0
    4.2841    6.0776   -3.6648 C   0  0  1  0  0  0  0  0  0  0  0  0
    5.0136    4.7307   -3.4323 C   0  0  1  0  0  0  0  0  0  0  0  0
    4.1230    3.7088   -3.8548 O   0  0  0  0  0  0  0  0  0  0  0  0
    6.3819    4.5939   -4.1781 C   0  0  2  0  0  0  0  0  0  0  0  0
    8.5387    5.7935   -4.6607 N   0  3  0  0  0  0  0  0  0  0  0  0
    0.7714    4.3270   -2.0533 C   0  0  0  0  0  0  0  0  0  0  0  0
   -0.2689    5.2670   -1.3963 C   0  0  2  0  0  0  0  0  0  0  0  0
   -1.4390    5.2289   -2.2122 O   0  0  0  0  0  0  0  0  0  0  0  0
    0.3170    6.7273   -1.3218 C   0  0  1  0  0  0  0  0  0  0  0  0
    0.9312    7.2075   -2.6805 C   0  0  2  0  0  0  0  0  0  0  0  0
    1.8275    6.1435   -3.3634 C   0  0  1  0  0  0  0  0  0  0  0  0
    3.1462    6.1118   -2.7568 O   0  0  0  0  0  0  0  0  0  0  0  0
    1.1900    4.8350   -3.3482 O   0  0  0  0  0  0  0  0  0  0  0  0
    1.6838    8.4068   -2.5174 O   0  0  0  0  0  0  0  0  0  0  0  0
   -0.7437    7.6749   -0.8577 N   0  3  0  0  0  0  0  0  0  0  0  0
   -0.2925    8.9033   -0.1727 C   0  0  0  0  0  0  0  0  0  0  0  0
   -0.6540    4.6887   -0.0123 C   0  0  0  0  0  0  0  0  0  0  0  0
  1  8  1  0  0  0  0
  1  9  1  1  0  0  0
  1  2  1  0  0  0  0
  2  3  1  0  0  0  0
  3  5  1  0  0  0  0
  3  4  1  6  0  0  0
  5  7  1  0  0  0  0
  5  6  1  6  0  0  0
  7  8  1  0  0  0  0
  9 10  1  0  0  0  0
 11 12  1  0  0  0  0
 11 18  1  0  0  0  0
 11 19  1  6  0  0  0
 12 13  1  0  0  0  0
 13 15  1  0  0  0  0
 13 14  1  6  0  0  0
 15 16  1  0  0  0  0
 15 26  1  1  0  0  0
 16 18  1  0  0  0  0
 16 17  1  6  0  0  0
 18  4  1  1  0  0  0
 20 21  1  0  0  0  0
 20 27  1  0  0  0  0
 21 31  1  1  0  0  0
 21 23  1  0  0  0  0
 21 22  1  0  0  0  0
 23 24  1  0  0  0  0
 23 29  1  6  0  0  0
 24 25  1  0  0  0  0
 24 28  1  1  0  0  0
 25 27  1  0  0  0  0
 25 26  1  1  0  0  0
 29 30  1  0  0  0  0
M  CHG  5   6   1  10   1  14   1  19   1  29   1
M  END
>  <CHROM.1>
67.76975971,86.46465169,14.24413197,-46.04163184,70.19790533,90.25735547
179.13372561,121.91876102,-62.66370881,66.03532443,-85.02699279,-67.24536526
-134.27606974,4.44504158,5.04788648,-2.45808622,0.24754137,-0.35521552,2.47800146

>  <Name>
1byj cryst

>  <RI>
0

>  <Rbt.Current_Directory>
/home/itssahil/PROJECTS/Mol_Feturizer/New_Systems/rnas/1byj

>  <Rbt.Executable>
rbdock ($Id: //depot/dev/client3/rdock/2013.1/src/exe/rbdock.cxx#4 $)

>  <Rbt.Library>
libRbt.so (2013.1, Build901 2013/11/27)

>  <Rbt.Parameter_File>
/export/apps/rDock/src/rDock_2013.1_src/data/scripts/dock_solv.prm

>  <Rbt.Receptor>
prm/pocket_docking_4.prm

>  <SCORE>
-53.0389

>  <SCORE.INTER>
-55.1061

>  <SCORE.INTER.CONST>
1

>  <SCORE.INTER.POLAR>
-8.50648

>  <SCORE.INTER.ROT>
6

>  <SCORE.INTER.SOLV>
22.1585

>  <SCORE.INTER.VDW>
-23.3686

>  <SCORE.INTER.norm>
-1.77762

>  <SCORE.INTRA>
2.04228

>  <SCORE.INTRA.DIHEDRAL>
9.0857

>  <SCORE.INTRA.DIHEDRAL.0>
18.4149

>  <SCORE.INTRA.POLAR>
-1.24378

>  <SCORE.INTRA.POLAR.0>
0

>  <SCORE.INTRA.REPUL>
-0.092687

>  <SCORE.INTRA.REPUL.0>
0.092687

>  <SCORE.INTRA.SOLV>
0.937603

>  <SCORE.INTRA.SOLV.lig_0>
-120.37

>  <SCORE.INTRA.VDW>
1.72293

>  <SCORE.INTRA.VDW.0>
-1.75542

>  <SCORE.INTRA.norm>
0.0658801

>  <SCORE.RESTR>
0.0248854

>  <SCORE.RESTR.CAVITY>
0.0248854

>  <SCORE.RESTR.norm>
0.000802755

>  <SCORE.SYSTEM>
0

>  <SCORE.SYSTEM.CONST>
0

>  <SCORE.SYSTEM.DIHEDRAL>
0

>  <SCORE.SYSTEM.SOLV>
0

>  <SCORE.SYSTEM.norm>
0

>  <SCORE.heavy>
31

>  <SCORE.norm>
-1.71093

>  <RMSD>
2.530

$$$$
1byj cryst
 OpenBabel11021811383D
libRbt.so/2013.1/901 2013/11/27
 31 33  0  0  0  0  0  0  0  0999 V2000
    5.7383    1.3690   -0.5867 C   0  0  1  0  0  0  0  0  0  0  0  0
    5.4638    2.8029   -0.4838 O   0  0  0  0  0  0  0  0  0  0  0  0
    6.5901    3.7277   -0.4135 C   0  0  2  0  0  0  0  0  0  0  0  0
    7.3253    3.7669   -1.6763 O   0  0  0  0  0  0  0  0  0  0  0  0
    7.5236    3.3142    0.7646 C   0  0  2  0  0  0  0  0  0  0  0  0
    8.6974    4.1966    0.9149 N   0  3  0  0  0  0  0  0  0  0  0  0
    7.9738    1.8403    0.5947 C   0  0  0  0  0  0  0  0  0  0  0  0
    6.7622    0.9024    0.4846 C   0  0  0  0  0  0  0  0  0  0  0  0
    4.4266    0.5838   -0.4108 C   0  0  0  0  0  0  0  0  0  0  0  0
    3.4324    0.8462   -1.4596 N   0  3  0  0  0  0  0  0  0  0  0  0
    7.9213    5.5193   -3.3025 C   0  0  1  0  0  0  0  0  0  0  0  0
    7.3921    6.4768   -4.3978 C   0  0  0  0  0  0  0  0  0  0  0  0
    6.2392    7.3549   -3.8414 C   0  0  1  0  0  0  0  0  0  0  0  0
    5.7975    8.3152   -4.8708 N   0  3  0  0  0  0  0  0  0  0  0  0
    5.0694    6.4568   -3.3448 C   0  0  1  0  0  0  0  0  0  0  0  0
    5.5545    5.4028   -2.3182 C   0  0  1  0  0  0  0  0  0  0  0  0
    4.4530    4.5422   -2.0690 O   0  0  0  0  0  0  0  0  0  0  0  0
    6.7955    4.5686   -2.7783 C   0  0  2  0  0  0  0  0  0  0  0  0
    9.0812    4.7642   -3.8083 N   0  3  0  0  0  0  0  0  0  0  0  0
    1.4206    6.8731   -1.1838 C   0  0  0  0  0  0  0  0  0  0  0  0
    0.6816    8.2296   -1.2916 C   0  0  2  0  0  0  0  0  0  0  0  0
   -0.5416    7.9839   -1.9841 O   0  0  0  0  0  0  0  0  0  0  0  0
    1.5792    9.2543   -2.0826 C   0  0  1  0  0  0  0  0  0  0  0  0
    2.1492    8.6624   -3.4163 C   0  0  2  0  0  0  0  0  0  0  0  0
    2.7186    7.2293   -3.2622 C   0  0  1  0  0  0  0  0  0  0  0  0
    4.0503    7.2612   -2.6851 O   0  0  0  0  0  0  0  0  0  0  0  0
    1.8131    6.3865   -2.4950 O   0  0  0  0  0  0  0  0  0  0  0  0
    3.1596    9.5018   -3.9692 O   0  0  0  0  0  0  0  0  0  0  0  0
    0.8034   10.5055   -2.3494 N   0  3  0  0  0  0  0  0  0  0  0  0
    1.5620   11.6723   -2.8443 C   0  0  0  0  0  0  0  0  0  0  0  0
    0.3149    8.7081    0.1348 C   0  0  0  0  0  0  0  0  0  0  0  0
  1  8  1  0  0  0  0
  1  9  1  1  0  0  0
  1  2  1  0  0  0  0
  2  3  1  0  0  0  0
  3  5  1  0  0  0  0
  3  4  1  6  0  0  0
  5  7  1  0  0  0  0
  5  6  1  6  0  0  0
  7  8  1  0  0  0  0
  9 10  1  0  0  0  0
 11 12  1  0  0  0  0
 11 18  1  0  0  0  0
 11 19  1  6  0  0  0
 12 13  1  0  0  0  0
 13 15  1  0  0  0  0
 13 14  1  6  0  0  0
 15 16  1  0  0  0  0
 15 26  1  1  0  0  0
 16 18  1  0  0  0  0
 16 17  1  6  0  0  0
 18  4  1  1  0  0  0
 20 21  1  0  0  0  0
 20 27  1  0  0  0  0
 21 31  1  1  0  0  0
 21 23  1  0  0  0  0
 21 22  1  0  0  0  0
 23 24  1  0  0  0  0
 23 29  1  6  0  0  0
 24 25  1  0  0  0  0
 24 28  1  1  0  0  0
 25 27  1  0  0  0  0
 25 26  1  1  0  0  0
 29 30  1  0  0  0  0
M  CHG  5   6   1  10   1  14   1  19   1  29   1
M  END
>  <CHROM.1>
63.42524296,79.80512672,128.09565669,-61.05790800,-178.41888624,34.48188277
-169.00343308,119.92991811,-59.31489356,-66.09619889,-70.57583298,46.86436416
-132.38879223,4.56106680,5.79446737,-1.96921494,0.84883740,-0.31895707,2.60718405

>  <Name>
1byj cryst

>  <RI>
0

>  <Rbt.Current_Directory>
/home/itssahil/PROJECTS/Mol_Feturizer/New_Systems/rnas/1byj

>  <Rbt.Executable>
rbdock ($Id: //depot/dev/client3/rdock/2013.1/src/exe/rbdock.cxx#4 $)

>  <Rbt.Library>
libRbt.so (2013.1, Build901 2013/11/27)

>  <Rbt.Parameter_File>
/export/apps/rDock/src/rDock_2013.1_src/data/scripts/dock_solv.prm

>  <Rbt.Receptor>
prm/pocket_docking_7.prm

>  <SCORE>
-24.5466

>  <SCORE.INTER>
-24.5131

>  <SCORE.INTER.CONST>
1

>  <SCORE.INTER.POLAR>
-3.29142

>  <SCORE.INTER.ROT>
6

>  <SCORE.INTER.SOLV>
22.7949

>  <SCORE.INTER.VDW>
-20.5689

>  <SCORE.INTER.norm>
-0.790745

>  <SCORE.INTRA>
-0.0334809

>  <SCORE.INTRA.DIHEDRAL>
7.11206

>  <SCORE.INTRA.DIHEDRAL.0>
18.4149

>  <SCORE.INTRA.POLAR>
-0.884396

>  <SCORE.INTRA.POLAR.0>
0

>  <SCORE.INTRA.REPUL>
-0.0866399

>  <SCORE.INTRA.REPUL.0>
0.092687

>  <SCORE.INTRA.SOLV>
-1.20076

>  <SCORE.INTRA.SOLV.lig_0>
-120.37

>  <SCORE.INTRA.VDW>
0.451012

>  <SCORE.INTRA.VDW.0>
-1.75542

>  <SCORE.INTRA.norm>
-0.00108003

>  <SCORE.RESTR>
0

>  <SCORE.RESTR.CAVITY>
0

>  <SCORE.RESTR.norm>
0

>  <SCORE.SYSTEM>
0

>  <SCORE.SYSTEM.CONST>
0

>  <SCORE.SYSTEM.DIHEDRAL>
0

>  <SCORE.SYSTEM.SOLV>
0

>  <SCORE.SYSTEM.norm>
0

>  <SCORE.heavy>
31

>  <SCORE.norm>
-0.791825

>  <RMSD>
2.530

$$$$
1byj cryst
 OpenBabel11021811383D
libRbt.so/2013.1/901 2013/11/27
 31 33  0  0  0  0  0  0  0  0999 V2000
    6.1934    1.7619   -0.9135 C   0  0  1  0  0  0  0  0  0  0  0  0
    6.5568    3.1691   -1.0867 O   0  0  0  0  0  0  0  0  0  0  0  0
    7.3973    3.5404   -2.2199 C   0  0  2  0  0  0  0  0  0  0  0  0
    6.6869    3.3723   -3.4863 O   0  0  0  0  0  0  0  0  0  0  0  0
    8.7031    2.6891   -2.1937 C   0  0  2  0  0  0  0  0  0  0  0  0
    9.6209    2.9961   -3.3083 N   0  3  0  0  0  0  0  0  0  0  0  0
    8.3533    1.1786   -2.1822 C   0  0  0  0  0  0  0  0  0  0  0  0
    7.4362    0.8336   -0.9992 C   0  0  0  0  0  0  0  0  0  0  0  0
    5.5132    1.5744    0.4541 C   0  0  0  0  0  0  0  0  0  0  0  0
    4.7907    0.3027    0.5885 N   0  3  0  0  0  0  0  0  0  0  0  0
    7.0359    5.6992   -4.2170 C   0  0  1  0  0  0  0  0  0  0  0  0
    6.3551    6.9905   -4.7324 C   0  0  0  0  0  0  0  0  0  0  0  0
    5.2363    7.4422   -3.7556 C   0  0  1  0  0  0  0  0  0  0  0  0
    4.6494    8.7145   -4.2179 N   0  3  0  0  0  0  0  0  0  0  0  0
    4.1624    6.3251   -3.6127 C   0  0  1  0  0  0  0  0  0  0  0  0
    4.7957    4.9735   -3.1978 C   0  0  1  0  0  0  0  0  0  0  0  0
    3.7614    4.0031   -3.2652 O   0  0  0  0  0  0  0  0  0  0  0  0
    6.0106    4.5266   -4.0762 C   0  0  2  0  0  0  0  0  0  0  0  0
    8.1623    5.3364   -5.0950 N   0  3  0  0  0  0  0  0  0  0  0  0
    1.9426    5.2700   -0.1820 C   0  0  0  0  0  0  0  0  0  0  0  0
    0.6498    6.0621    0.1324 C   0  0  2  0  0  0  0  0  0  0  0  0
   -0.4417    5.1557   -0.0193 O   0  0  0  0  0  0  0  0  0  0  0  0
    0.5193    7.2715   -0.8685 C   0  0  1  0  0  0  0  0  0  0  0  0
    0.7347    6.8522   -2.3624 C   0  0  2  0  0  0  0  0  0  0  0  0
    1.9532    5.9177   -2.5719 C   0  0  1  0  0  0  0  0  0  0  0  0
    3.1906    6.6768   -2.5868 O   0  0  0  0  0  0  0  0  0  0  0  0
    1.9770    4.8578   -1.5744 O   0  0  0  0  0  0  0  0  0  0  0  0
    0.8774    7.9905   -3.2080 O   0  0  0  0  0  0  0  0  0  0  0  0
   -0.8113    7.9326   -0.6924 N   0  3  0  0  0  0  0  0  0  0  0  0
   -0.8461    9.1627    0.1246 C   0  0  0  0  0  0  0  0  0  0  0  0
    0.6843    6.4962    1.6185 C   0  0  0  0  0  0  0  0  0  0  0  0
  1  8  1  0  0  0  0
  1  9  1  1  0  0  0
  1  2  1  0  0  0  0
  2  3  1  0  0  0  0
  3  5  1  0  0  0  0
  3  4  1  6  0  0  0
  5  7  1  0  0  0  0
  5  6  1  6  0  0  0
  7  8  1  0  0  0  0
  9 10  1  0  0  0  0
 11 12  1  0  0  0  0
 11 18  1  0  0  0  0
 11 19  1  6  0  0  0
 12 13  1  0  0  0  0
 13 15  1  0  0  0  0
 13 14  1  6  0  0  0
 15 16  1  0  0  0  0
 15 26  1  1  0  0  0
 16 18  1  0  0  0  0
 16 17  1  6  0  0  0
 18  4  1  1  0  0  0
 20 21  1  0  0  0  0
 20 27  1  0  0  0  0
 21 31  1  1  0  0  0
 21 23  1  0  0  0  0
 21 22  1  0  0  0  0
 23 24  1  0  0  0  0
 23 29  1  6  0  0  0
 24 25  1  0  0  0  0
 24 28  1  6  0  0  0
 25 27  1  0  0  0  0
 25 26  1  1  0  0  0
 29 30  1  0  0  0  0
M  CHG  5   6   1  10   1  14   1  19   1  29   1
M  END
>  <CHROM.1>
164.44889613,95.06583641,54.21866722,70.87258097,157.70246990,144.31978385
-48.81109543,164.66435357,-173.98916952,-59.26176135,-139.56693018,-62.04590169
-136.49317638,4.22985221,5.00431580,-2.06476240,0.29048053,-0.50075151,2.47386778

>  <Name>
1byj cryst

>  <RI>
0

>  <Rbt.Current_Directory>
/home/itssahil/PROJECTS/Mol_Feturizer/New_Systems/rnas/1byj

>  <Rbt.Executable>
rbdock ($Id: //depot/dev/client3/rdock/2013.1/src/exe/rbdock.cxx#4 $)

>  <Rbt.Library>
libRbt.so (2013.1, Build901 2013/11/27)

>  <Rbt.Parameter_File>
/export/apps/rDock/src/rDock_2013.1_src/data/scripts/dock_solv.prm

>  <Rbt.Receptor>
prm/pocket_docking_8.prm

>  <SCORE>
-54.7896

>  <SCORE.INTER>
-55.2078

>  <SCORE.INTER.CONST>
1

>  <SCORE.INTER.POLAR>
-9.59845

>  <SCORE.INTER.ROT>
6

>  <SCORE.INTER.SOLV>
26.4938

>  <SCORE.INTER.VDW>
-21.2416

>  <SCORE.INTER.norm>
-1.7809

>  <SCORE.INTRA>
0.418126

>  <SCORE.INTRA.DIHEDRAL>
1.2177

>  <SCORE.INTRA.DIHEDRAL.0>
18.4149

>  <SCORE.INTRA.POLAR>
-0.01694

>  <SCORE.INTRA.POLAR.0>
0

>  <SCORE.INTRA.REPUL>
-0.092687

>  <SCORE.INTRA.REPUL.0>
0.092687

>  <SCORE.INTRA.SOLV>
1.55093

>  <SCORE.INTRA.SOLV.lig_0>
-120.37

>  <SCORE.INTRA.VDW>
-0.445159

>  <SCORE.INTRA.VDW.0>
-1.75542

>  <SCORE.INTRA.norm>
0.0134879

>  <SCORE.RESTR>
0

>  <SCORE.RESTR.CAVITY>
0

>  <SCORE.RESTR.norm>
0

>  <SCORE.SYSTEM>
0

>  <SCORE.SYSTEM.CONST>
0

>  <SCORE.SYSTEM.DIHEDRAL>
0

>  <SCORE.SYSTEM.SOLV>
0

>  <SCORE.SYSTEM.norm>
0

>  <SCORE.heavy>
31

>  <SCORE.norm>
-1.76741

>  <RMSD>
2.534

$$$$
1byj cryst
 OpenBabel11021811383D
libRbt.so/2013.1/901 2013/11/27
 31 33  0  0  0  0  0  0  0  0999 V2000
    5.2241    3.6219   -0.3614 C   0  0  1  0  0  0  0  0  0  0  0  0
    6.2855    4.5683   -0.7075 O   0  0  0  0  0  0  0  0  0  0  0  0
    7.3210    4.1464   -1.6447 C   0  0  2  0  0  0  0  0  0  0  0  0
    6.7796    3.9700   -2.9910 O   0  0  0  0  0  0  0  0  0  0  0  0
    7.9773    2.8298   -1.1288 C   0  0  2  0  0  0  0  0  0  0  0  0
    9.0424    2.3234   -2.0166 N   0  3  0  0  0  0  0  0  0  0  0  0
    6.8923    1.7435   -0.9125 C   0  0  0  0  0  0  0  0  0  0  0  0
    5.8000    2.2382    0.0476 C   0  0  0  0  0  0  0  0  0  0  0  0
    4.3929    4.1897    0.8026 C   0  0  0  0  0  0  0  0  0  0  0  0
    3.1723    3.4246    1.0892 N   0  3  0  0  0  0  0  0  0  0  0  0
    7.1799    6.3156   -3.6300 C   0  0  1  0  0  0  0  0  0  0  0  0
    6.5559    7.5988   -4.2304 C   0  0  0  0  0  0  0  0  0  0  0  0
    5.2869    8.0092   -3.4359 C   0  0  1  0  0  0  0  0  0  0  0  0
    4.7478    9.2747   -3.9694 N   0  3  0  0  0  0  0  0  0  0  0  0
    4.2324    6.8656   -3.4768 C   0  0  1  0  0  0  0  0  0  0  0  0
    4.8268    5.5225   -2.9838 C   0  0  1  0  0  0  0  0  0  0  0  0
    3.8406    4.5298   -3.2243 O   0  0  0  0  0  0  0  0  0  0  0  0
    6.1751    5.1176   -3.6659 C   0  0  2  0  0  0  0  0  0  0  0  0
    8.4388    5.9927   -4.3245 N   0  3  0  0  0  0  0  0  0  0  0  0
    0.9452    5.0392   -2.3193 C   0  0  0  0  0  0  0  0  0  0  0  0
   -0.1942    5.7120   -1.5151 C   0  0  2  0  0  0  0  0  0  0  0  0
   -1.3529    5.7046   -2.3480 O   0  0  0  0  0  0  0  0  0  0  0  0
    0.2234    7.1854   -1.1463 C   0  0  1  0  0  0  0  0  0  0  0  0
    0.7790    7.9864   -2.3725 C   0  0  2  0  0  0  0  0  0  0  0  0
    1.7893    7.1818   -3.2292 C   0  0  1  0  0  0  0  0  0  0  0  0
    3.1033    7.1785   -2.6120 O   0  0  0  0  0  0  0  0  0  0  0  0
    1.3033    5.8331   -3.4818 O   0  0  0  0  0  0  0  0  0  0  0  0
    1.3917    9.2066   -1.9638 O   0  0  0  0  0  0  0  0  0  0  0  0
   -0.9372    7.9010   -0.5304 N   0  3  0  0  0  0  0  0  0  0  0  0
   -0.6303    8.9153    0.4986 C   0  0  0  0  0  0  0  0  0  0  0  0
   -0.5111    4.8359   -0.2781 C   0  0  0  0  0  0  0  0  0  0  0  0
  1  8  1  0  0  0  0
  1  9  1  1  0  0  0
  1  2  1  0  0  0  0
  2  3  1  0  0  0  0
  3  5  1  0  0  0  0
  3  4  1  6  0  0  0
  5  7  1  0  0  0  0
  5  6  1  6  0  0  0
  7  8  1  0  0  0  0
  9 10  1  0  0  0  0
 11 12  1  0  0  0  0
 11 18  1  0  0  0  0
 11 19  1  6  0  0  0
 12 13  1  0  0  0  0
 13 15  1  0  0  0  0
 13 14  1  6  0  0  0
 15 16  1  0  0  0  0
 15 26  1  1  0  0  0
 16 18  1  0  0  0  0
 16 17  1  6  0  0  0
 18  4  1  1  0  0  0
 20 21  1  0  0  0  0
 20 27  1  0  0  0  0
 21 31  1  1  0  0  0
 21 23  1  0  0  0  0
 21 22  1  0  0  0  0
 23 24  1  0  0  0  0
 23 29  1  6  0  0  0
 24 25  1  0  0  0  0
 24 28  1  1  0  0  0
 25 27  1  0  0  0  0
 25 26  1  1  0  0  0
 29 30  1  0  0  0  0
M  CHG  5   6   1  10   1  14   1  19   1  29   1
M  END
>  <CHROM.1>
170.70224579,60.64371937,52.08366637,59.35815705,63.33865112,-157.46201411
-177.80343894,123.76023968,-174.58201059,-175.42810768,-91.45459287,-66.88270165
-160.16383067,3.85144603,5.65420343,-2.00379716,0.28559858,-0.32430357,2.51336029

>  <Name>
1byj cryst

>  <RI>
0

>  <Rbt.Current_Directory>
/home/itssahil/PROJECTS/Mol_Feturizer/New_Systems/rnas/1byj

>  <Rbt.Executable>
rbdock ($Id: //depot/dev/client3/rdock/2013.1/src/exe/rbdock.cxx#4 $)

>  <Rbt.Library>
libRbt.so (2013.1, Build901 2013/11/27)

>  <Rbt.Parameter_File>
/export/apps/rDock/src/rDock_2013.1_src/data/scripts/dock_solv.prm

>  <Rbt.Receptor>
prm/pocket_docking_2.prm

>  <SCORE>
-42.8791

>  <SCORE.INTER>
-38.487

>  <SCORE.INTER.CONST>
1

>  <SCORE.INTER.POLAR>
-5.81845

>  <SCORE.INTER.ROT>
6

>  <SCORE.INTER.SOLV>
16.3679

>  <SCORE.INTER.VDW>
-19.3191

>  <SCORE.INTER.norm>
-1.24151

>  <SCORE.INTRA>
-5.46627

>  <SCORE.INTRA.DIHEDRAL>
-4.87233

>  <SCORE.INTRA.DIHEDRAL.0>
18.4149

>  <SCORE.INTRA.POLAR>
-0.00174242

>  <SCORE.INTRA.POLAR.0>
0

>  <SCORE.INTRA.REPUL>
-0.092687

>  <SCORE.INTRA.REPUL.0>
0.092687

>  <SCORE.INTRA.SOLV>
-0.417102

>  <SCORE.INTRA.SOLV.lig_0>
-120.37

>  <SCORE.INTRA.VDW>
-2.35219

>  <SCORE.INTRA.VDW.0>
-1.75542

>  <SCORE.INTRA.norm>
-0.176331

>  <SCORE.RESTR>
1.07412

>  <SCORE.RESTR.CAVITY>
1.07412

>  <SCORE.RESTR.norm>
0.0346489

>  <SCORE.SYSTEM>
0

>  <SCORE.SYSTEM.CONST>
0

>  <SCORE.SYSTEM.DIHEDRAL>
0

>  <SCORE.SYSTEM.SOLV>
0

>  <SCORE.SYSTEM.norm>
0

>  <SCORE.heavy>
31

>  <SCORE.norm>
-1.3832

>  <RMSD>
2.535

$$$$
1byj cryst
 OpenBabel11021811383D
libRbt.so/2013.1/901 2013/11/27
 31 33  0  0  0  0  0  0  0  0999 V2000
    5.6776    3.3798   -0.5707 C   0  0  1  0  0  0  0  0  0  0  0  0
    6.7830    4.1059   -1.1976 O   0  0  0  0  0  0  0  0  0  0  0  0
    7.5100    3.4671   -2.2894 C   0  0  2  0  0  0  0  0  0  0  0  0
    6.6723    3.3348   -3.4801 O   0  0  0  0  0  0  0  0  0  0  0  0
    8.0332    2.0769   -1.8161 C   0  0  2  0  0  0  0  0  0  0  0  0
    8.7852    1.3519   -2.8591 N   0  3  0  0  0  0  0  0  0  0  0  0
    6.8541    1.2121   -1.3003 C   0  0  0  0  0  0  0  0  0  0  0  0
    6.0895    1.9335   -0.1803 C   0  0  0  0  0  0  0  0  0  0  0  0
    5.2199    4.1348    0.6897 C   0  0  0  0  0  0  0  0  0  0  0  0
    6.2825    4.3270    1.6853 N   0  3  0  0  0  0  0  0  0  0  0  0
    7.1907    5.6278   -4.2174 C   0  0  1  0  0  0  0  0  0  0  0  0
    6.6054    6.9669   -4.7282 C   0  0  0  0  0  0  0  0  0  0  0  0
    5.5336    7.5032   -3.7416 C   0  0  1  0  0  0  0  0  0  0  0  0
    5.0410    8.8162   -4.2002 N   0  3  0  0  0  0  0  0  0  0  0  0
    4.3791    6.4713   -3.5870 C   0  0  1  0  0  0  0  0  0  0  0  0
    4.9115    5.0757   -3.1761 C   0  0  1  0  0  0  0  0  0  0  0  0
    3.8056    4.1869   -3.2324 O   0  0  0  0  0  0  0  0  0  0  0  0
    6.0804    4.5369   -4.0652 C   0  0  2  0  0  0  0  0  0  0  0  0
    8.2779    5.1796   -5.1053 N   0  3  0  0  0  0  0  0  0  0  0  0
    0.8226    5.3401   -2.6563 C   0  0  0  0  0  0  0  0  0  0  0  0
   -0.0809    5.9850   -1.5767 C   0  0  2  0  0  0  0  0  0  0  0  0
   -1.2280    6.5035   -2.2486 O   0  0  0  0  0  0  0  0  0  0  0  0
    0.7115    7.1352   -0.8484 C   0  0  1  0  0  0  0  0  0  0  0  0
    1.4156    8.1165   -1.8460 C   0  0  2  0  0  0  0  0  0  0  0  0
    2.1589    7.3963   -2.9995 C   0  0  1  0  0  0  0  0  0  0  0  0
    3.4467    6.8968   -2.5525 O   0  0  0  0  0  0  0  0  0  0  0  0
    1.3360    6.3420   -3.5742 O   0  0  0  0  0  0  0  0  0  0  0  0
    2.3328    8.9749   -1.1729 O   0  0  0  0  0  0  0  0  0  0  0  0
   -0.2073    7.8817    0.0664 N   0  3  0  0  0  0  0  0  0  0  0  0
    0.4146    8.8235    1.0194 C   0  0  0  0  0  0  0  0  0  0  0  0
   -0.5732    4.8749   -0.6157 C   0  0  0  0  0  0  0  0  0  0  0  0
  1  8  1  0  0  0  0
  1  9  1  1  0  0  0
  1  2  1  0  0  0  0
  2  3  1  0  0  0  0
  3  5  1  0  0  0  0
  3  4  1  6  0  0  0
  5  7  1  0  0  0  0
  5  6  1  6  0  0  0
  7  8  1  0  0  0  0
  9 10  1  0  0  0  0
 11 12  1  0  0  0  0
 11 18  1  0  0  0  0
 11 19  1  6  0  0  0
 12 13  1  0  0  0  0
 13 15  1  0  0  0  0
 13 14  1  6  0  0  0
 15 16  1  0  0  0  0
 15 26  1  1  0  0  0
 16 18  1  0  0  0  0
 16 17  1  6  0  0  0
 18  4  1  1  0  0  0
 20 21  1  0  0  0  0
 20 27  1  0  0  0  0
 21 31  1  1  0  0  0
 21 23  1  0  0  0  0
 21 22  1  0  0  0  0
 23 24  1  0  0  0  0
 23 29  1  6  0  0  0
 24 25  1  0  0  0  0
 24 28  1  1  0  0  0
 25 27  1  0  0  0  0
 25 26  1  1  0  0  0
 29 30  1  0  0  0  0
M  CHG  5   6   1  10   1  14   1  19   1  29   1
M  END
>  <CHROM.1>
-58.15655476,57.50794839,48.55762740,-60.03589237,-65.52786777,150.22114840
61.35540855,106.76467187,-177.21683289,61.56270009,-70.26788964,69.20387899
-166.47588373,4.20151073,5.43036680,-2.13687158,0.25375064,-0.49117150,2.34394287

>  <Name>
1byj cryst

>  <RI>
0

>  <Rbt.Current_Directory>
/home/itssahil/PROJECTS/Mol_Feturizer/New_Systems/rnas/1byj

>  <Rbt.Executable>
rbdock ($Id: //depot/dev/client3/rdock/2013.1/src/exe/rbdock.cxx#4 $)

>  <Rbt.Library>
libRbt.so (2013.1, Build901 2013/11/27)

>  <Rbt.Parameter_File>
/export/apps/rDock/src/rDock_2013.1_src/data/scripts/dock_solv.prm

>  <Rbt.Receptor>
prm/pocket_docking_5.prm

>  <SCORE>
-44.528

>  <SCORE.INTER>
-38.4452

>  <SCORE.INTER.CONST>
1

>  <SCORE.INTER.POLAR>
-5.94273

>  <SCORE.INTER.ROT>
6

>  <SCORE.INTER.SOLV>
21.5536

>  <SCORE.INTER.VDW>
-20.6056

>  <SCORE.INTER.norm>
-1.24017

>  <SCORE.INTRA>
-6.08277

>  <SCORE.INTRA.DIHEDRAL>
-7.51284

>  <SCORE.INTRA.DIHEDRAL.0>
18.4149

>  <SCORE.INTRA.POLAR>
-0.0399572

>  <SCORE.INTRA.POLAR.0>
0

>  <SCORE.INTRA.REPUL>
-0.092687

>  <SCORE.INTRA.REPUL.0>
0.092687

>  <SCORE.INTRA.SOLV>
-1.50185

>  <SCORE.INTRA.SOLV.lig_0>
-120.37

>  <SCORE.INTRA.VDW>
-0.976139

>  <SCORE.INTRA.VDW.0>
-1.75542

>  <SCORE.INTRA.norm>
-0.196219

>  <SCORE.RESTR>
0

>  <SCORE.RESTR.CAVITY>
0

>  <SCORE.RESTR.norm>
0

>  <SCORE.SYSTEM>
0

>  <SCORE.SYSTEM.CONST>
0

>  <SCORE.SYSTEM.DIHEDRAL>
0

>  <SCORE.SYSTEM.SOLV>
0

>  <SCORE.SYSTEM.norm>
0

>  <SCORE.heavy>
31

>  <SCORE.norm>
-1.43639

>  <RMSD>
2.545

$$$$
1byj cryst
 OpenBabel11021811383D
libRbt.so/2013.1/901 2013/11/27
 31 33  0  0  0  0  0  0  0  0999 V2000
    5.9550    2.7485   -0.7264 C   0  0  1  0  0  0  0  0  0  0  0  0
    6.8854    3.8018   -1.1351 O   0  0  0  0  0  0  0  0  0  0  0  0
    7.8019    3.5363   -2.2388 C   0  0  2  0  0  0  0  0  0  0  0  0
    7.0856    3.4152   -3.5072 O   0  0  0  0  0  0  0  0  0  0  0  0
    8.6178    2.2439   -1.9315 C   0  0  2  0  0  0  0  0  0  0  0  0
    9.5767    1.8933   -2.9976 N   0  3  0  0  0  0  0  0  0  0  0  0
    7.6552    1.0591   -1.6595 C   0  0  0  0  0  0  0  0  0  0  0  0
    6.6809    1.3905   -0.5192 C   0  0  0  0  0  0  0  0  0  0  0  0
    5.2626    3.1590    0.5851 C   0  0  0  0  0  0  0  0  0  0  0  0
    4.3997    4.3406    0.4562 N   0  3  0  0  0  0  0  0  0  0  0  0
    7.2057    5.8605   -3.7839 C   0  0  1  0  0  0  0  0  0  0  0  0
    6.4351    7.1368   -4.2008 C   0  0  0  0  0  0  0  0  0  0  0  0
    5.1240    7.2723   -3.3809 C   0  0  1  0  0  0  0  0  0  0  0  0
    4.4396    8.5313   -3.7324 N   0  3  0  0  0  0  0  0  0  0  0  0
    4.2132    6.0319   -3.6123 C   0  0  1  0  0  0  0  0  0  0  0  0
    4.9618    4.7094   -3.3110 C   0  0  1  0  0  0  0  0  0  0  0  0
    4.1016    3.6549   -3.7161 O   0  0  0  0  0  0  0  0  0  0  0  0
    6.3509    4.5718   -4.0174 C   0  0  2  0  0  0  0  0  0  0  0  0
    8.4961    5.7949   -4.4923 N   0  3  0  0  0  0  0  0  0  0  0  0
    0.5974    4.3264   -2.2591 C   0  0  0  0  0  0  0  0  0  0  0  0
   -0.4308    5.2429   -1.5516 C   0  0  2  0  0  0  0  0  0  0  0  0
   -1.5750    5.3189   -2.4007 O   0  0  0  0  0  0  0  0  0  0  0  0
    0.2017    6.6687   -1.3318 C   0  0  1  0  0  0  0  0  0  0  0  0
    0.8745    7.2428   -2.6248 C   0  0  2  0  0  0  0  0  0  0  0  0
    1.7554    6.2103   -3.3730 C   0  0  1  0  0  0  0  0  0  0  0  0
    3.0523    6.0777   -2.7343 O   0  0  0  0  0  0  0  0  0  0  0  0
    1.0737    4.9296   -3.4916 O   0  0  0  0  0  0  0  0  0  0  0  0
    1.6618    8.3950   -2.3351 O   0  0  0  0  0  0  0  0  0  0  0  0
   -0.8404    7.6104   -0.8164 N   0  3  0  0  0  0  0  0  0  0  0  0
   -0.3661    8.7848   -0.0564 C   0  0  0  0  0  0  0  0  0  0  0  0
   -0.8789    4.5606   -0.2356 C   0  0  0  0  0  0  0  0  0  0  0  0
  1  8  1  0  0  0  0
  1  9  1  1  0  0  0
  1  2  1  0  0  0  0
  2  3  1  0  0  0  0
  3  5  1  0  0  0  0
  3  4  1  6  0  0  0
  5  7  1  0  0  0  0
  5  6  1  6  0  0  0
  7  8  1  0  0  0  0
  9 10  1  0  0  0  0
 11 12  1  0  0  0  0
 11 18  1  0  0  0  0
 11 19  1  6  0  0  0
 12 13  1  0  0  0  0
 13 15  1  0  0  0  0
 13 14  1  6  0  0  0
 15 16  1  0  0  0  0
 15 26  1  1  0  0  0
 16 18  1  0  0  0  0
 16 17  1  6  0  0  0
 18  4  1  1  0  0  0
 20 21  1  0  0  0  0
 20 27  1  0  0  0  0
 21 31  1  1  0  0  0
 21 23  1  0  0  0  0
 21 22  1  0  0  0  0
 23 24  1  0  0  0  0
 23 29  1  6  0  0  0
 24 25  1  0  0  0  0
 24 28  1  1  0  0  0
 25 27  1  0  0  0  0
 25 26  1  1  0  0  0
 29 30  1  0  0  0  0
M  CHG  5   6   1  10   1  14   1  19   1  29   1
M  END
>  <CHROM.1>
65.03220012,62.89636195,41.20405453,-56.13101875,-173.40063135,-42.32478505
63.29637660,115.29069315,-177.41372556,62.55626913,-82.78393808,-67.59580061
-136.45450412,4.05839283,5.07203129,-2.30165358,0.29024684,-0.31530259,2.57341911

>  <Name>
1byj cryst

>  <RI>
0

>  <Rbt.Current_Directory>
/home/itssahil/PROJECTS/Mol_Feturizer/New_Systems/rnas/1byj

>  <Rbt.Executable>
rbdock ($Id: //depot/dev/client3/rdock/2013.1/src/exe/rbdock.cxx#4 $)

>  <Rbt.Library>
libRbt.so (2013.1, Build901 2013/11/27)

>  <Rbt.Parameter_File>
/export/apps/rDock/src/rDock_2013.1_src/data/scripts/dock_solv.prm

>  <Rbt.Receptor>
prm/pocket_docking_3.prm

>  <SCORE>
-50.7145

>  <SCORE.INTER>
-45.0051

>  <SCORE.INTER.CONST>
1

>  <SCORE.INTER.POLAR>
-6.70486

>  <SCORE.INTER.ROT>
6

>  <SCORE.INTER.SOLV>
18.5971

>  <SCORE.INTER.VDW>
-21.4529

>  <SCORE.INTER.norm>
-1.45178

>  <SCORE.INTRA>
-5.70932

>  <SCORE.INTRA.DIHEDRAL>
-0.904097

>  <SCORE.INTRA.DIHEDRAL.0>
18.4149

>  <SCORE.INTRA.POLAR>
-1.16667

>  <SCORE.INTRA.POLAR.0>
0

>  <SCORE.INTRA.REPUL>
-0.092687

>  <SCORE.INTRA.REPUL.0>
0.092687

>  <SCORE.INTRA.SOLV>
0.820335

>  <SCORE.INTRA.SOLV.lig_0>
-120.37

>  <SCORE.INTRA.VDW>
-1.23733

>  <SCORE.INTRA.VDW.0>
-1.75542

>  <SCORE.INTRA.norm>
-0.184171

>  <SCORE.RESTR>
0

>  <SCORE.RESTR.CAVITY>
0

>  <SCORE.RESTR.norm>
0

>  <SCORE.SYSTEM>
0

>  <SCORE.SYSTEM.CONST>
0

>  <SCORE.SYSTEM.DIHEDRAL>
0

>  <SCORE.SYSTEM.SOLV>
0

>  <SCORE.SYSTEM.norm>
0

>  <SCORE.heavy>
31

>  <SCORE.norm>
-1.63595

>  <RMSD>
2.553

$$$$
1byj cryst
 OpenBabel11021811383D
libRbt.so/2013.1/901 2013/11/27
 31 33  0  0  0  0  0  0  0  0999 V2000
    7.8259    1.9355   -0.8538 C   0  0  1  0  0  0  0  0  0  0  0  0
    8.2193    3.2175   -1.4401 O   0  0  0  0  0  0  0  0  0  0  0  0
    8.3766    3.3060   -2.8879 C   0  0  2  0  0  0  0  0  0  0  0  0
    7.0913    3.1729   -3.5713 O   0  0  0  0  0  0  0  0  0  0  0  0
    9.3798    2.2122   -3.3649 C   0  0  2  0  0  0  0  0  0  0  0  0
    9.6036    2.2239   -4.8240 N   0  3  0  0  0  0  0  0  0  0  0  0
    8.8996    0.8121   -2.9032 C   0  0  0  0  0  0  0  0  0  0  0  0
    8.7075    0.7693   -1.3798 C   0  0  0  0  0  0  0  0  0  0  0  0
    7.9502    2.0146    0.6780 C   0  0  0  0  0  0  0  0  0  0  0  0
    9.2756    2.4423    1.1448 N   0  3  0  0  0  0  0  0  0  0  0  0
    7.4818    5.5320   -4.1650 C   0  0  1  0  0  0  0  0  0  0  0  0
    6.8226    6.8669   -4.5895 C   0  0  0  0  0  0  0  0  0  0  0  0
    5.7296    7.2822   -3.5685 C   0  0  1  0  0  0  0  0  0  0  0  0
    5.1647    8.5928   -3.9427 N   0  3  0  0  0  0  0  0  0  0  0  0
    4.6329    6.1821   -3.4759 C   0  0  1  0  0  0  0  0  0  0  0  0
    5.2416    4.7942   -3.1544 C   0  0  1  0  0  0  0  0  0  0  0  0
    4.1846    3.8525   -3.2634 O   0  0  0  0  0  0  0  0  0  0  0  0
    6.4324    4.3755   -4.0786 C   0  0  2  0  0  0  0  0  0  0  0  0
    8.5861    5.1992   -5.0821 N   0  3  0  0  0  0  0  0  0  0  0  0
    0.9324    5.1960   -2.6675 C   0  0  0  0  0  0  0  0  0  0  0  0
    0.0815    5.8130   -1.5306 C   0  0  2  0  0  0  0  0  0  0  0  0
   -1.0084    6.4956   -2.1491 O   0  0  0  0  0  0  0  0  0  0  0  0
    0.9681    6.8113   -0.6947 C   0  0  1  0  0  0  0  0  0  0  0  0
    1.7662    7.8163   -1.5929 C   0  0  2  0  0  0  0  0  0  0  0  0
    2.4515    7.1461   -2.8108 C   0  0  1  0  0  0  0  0  0  0  0  0
    3.6852    6.4914   -2.4144 O   0  0  0  0  0  0  0  0  0  0  0  0
    1.5419    6.2309   -3.4845 O   0  0  0  0  0  0  0  0  0  0  0  0
    2.7513    8.5194   -0.8402 O   0  0  0  0  0  0  0  0  0  0  0  0
    0.1125    7.5464    0.2882 N   0  3  0  0  0  0  0  0  0  0  0  0
    0.7031    7.8285    1.6124 C   0  0  0  0  0  0  0  0  0  0  0  0
   -0.5171    4.6648   -0.6813 C   0  0  0  0  0  0  0  0  0  0  0  0
  1  8  1  0  0  0  0
  1  9  1  1  0  0  0
  1  2  1  0  0  0  0
  2  3  1  0  0  0  0
  3  5  1  0  0  0  0
  3  4  1  6  0  0  0
  5  7  1  0  0  0  0
  5  6  1  6  0  0  0
  7  8  1  0  0  0  0
  9 10  1  0  0  0  0
 11 12  1  0  0  0  0
 11 18  1  0  0  0  0
 11 19  1  6  0  0  0
 12 13  1  0  0  0  0
 13 15  1  0  0  0  0
 13 14  1  6  0  0  0
 15 16  1  0  0  0  0
 15 26  1  1  0  0  0
 16 18  1  0  0  0  0
 16 17  1  6  0  0  0
 18  4  1  1  0  0  0
 20 21  1  0  0  0  0
 20 27  1  0  0  0  0
 21 31  1  1  0  0  0
 21 23  1  0  0  0  0
 21 22  1  0  0  0  0
 23 24  1  0  0  0  0
 23 29  1  1  0  0  0
 24 25  1  0  0  0  0
 24 28  1  1  0  0  0
 25 27  1  0  0  0  0
 25 26  1  1  0  0  0
 29 30  1  0  0  0  0
M  CHG  5   6   1  10   1  14   1  19   1  29   1
M  END
>  <CHROM.1>
-54.21709326,102.01494458,17.69856823,-41.51744575,-147.38219586,134.88867206
-53.47641084,97.25297167,-177.58946342,58.51896194,-96.08479262,-62.18985513
-161.66752162,4.93317092,5.03042643,-2.30941825,0.18903880,-0.48888420,2.24871328

>  <Name>
1byj cryst

>  <RI>
0

>  <Rbt.Current_Directory>
/home/itssahil/PROJECTS/Mol_Feturizer/New_Systems/rnas/1byj

>  <Rbt.Executable>
rbdock ($Id: //depot/dev/client3/rdock/2013.1/src/exe/rbdock.cxx#4 $)

>  <Rbt.Library>
libRbt.so (2013.1, Build901 2013/11/27)

>  <Rbt.Parameter_File>
/export/apps/rDock/src/rDock_2013.1_src/data/scripts/dock_solv.prm

>  <Rbt.Receptor>
prm/pocket_docking_5.prm

>  <SCORE>
-50.2028

>  <SCORE.INTER>
-57.465

>  <SCORE.INTER.CONST>
1

>  <SCORE.INTER.POLAR>
-8.48156

>  <SCORE.INTER.ROT>
6

>  <SCORE.INTER.SOLV>
25.575

>  <SCORE.INTER.VDW>
-26.1631

>  <SCORE.INTER.norm>
-1.85371

>  <SCORE.INTRA>
7.26221

>  <SCORE.INTRA.DIHEDRAL>
8.40277

>  <SCORE.INTRA.DIHEDRAL.0>
18.4149

>  <SCORE.INTRA.POLAR>
0

>  <SCORE.INTRA.POLAR.0>
0

>  <SCORE.INTRA.REPUL>
-0.092687

>  <SCORE.INTRA.REPUL.0>
0.092687

>  <SCORE.INTRA.SOLV>
4.73372

>  <SCORE.INTRA.SOLV.lig_0>
-120.37

>  <SCORE.INTRA.VDW>
1.1574

>  <SCORE.INTRA.VDW.0>
-1.75542

>  <SCORE.INTRA.norm>
0.234265

>  <SCORE.RESTR>
0

>  <SCORE.RESTR.CAVITY>
0

>  <SCORE.RESTR.norm>
0

>  <SCORE.SYSTEM>
0

>  <SCORE.SYSTEM.CONST>
0

>  <SCORE.SYSTEM.DIHEDRAL>
0

>  <SCORE.SYSTEM.SOLV>
0

>  <SCORE.SYSTEM.norm>
0

>  <SCORE.heavy>
31

>  <SCORE.norm>
-1.61944

>  <RMSD>
2.558

$$$$
1byj cryst
 OpenBabel11021811383D
libRbt.so/2013.1/901 2013/11/27
 31 33  0  0  0  0  0  0  0  0999 V2000
    5.5742    3.4527   -0.5578 C   0  0  1  0  0  0  0  0  0  0  0  0
    6.6938    4.1126   -1.2309 O   0  0  0  0  0  0  0  0  0  0  0  0
    7.3755    3.4068   -2.3106 C   0  0  2  0  0  0  0  0  0  0  0  0
    6.5110    3.2627   -3.4805 O   0  0  0  0  0  0  0  0  0  0  0  0
    7.8552    2.0161   -1.7947 C   0  0  2  0  0  0  0  0  0  0  0  0
    8.5596    1.2250   -2.8228 N   0  3  0  0  0  0  0  0  0  0  0  0
    6.6547    1.2164   -1.2262 C   0  0  0  0  0  0  0  0  0  0  0  0
    5.9390    2.0071   -0.1207 C   0  0  0  0  0  0  0  0  0  0  0  0
    5.1691    4.2705    0.6812 C   0  0  0  0  0  0  0  0  0  0  0  0
    6.2908    4.5917    1.5733 N   0  3  0  0  0  0  0  0  0  0  0  0
    7.0224    5.5788   -4.1472 C   0  0  1  0  0  0  0  0  0  0  0  0
    6.4400    6.9137   -4.6719 C   0  0  0  0  0  0  0  0  0  0  0  0
    5.2976    7.4098   -3.7453 C   0  0  1  0  0  0  0  0  0  0  0  0
    4.8049    8.7197   -4.2125 N   0  3  0  0  0  0  0  0  0  0  0  0
    4.1591    6.3509   -3.6794 C   0  0  1  0  0  0  0  0  0  0  0  0
    4.6962    4.9601   -3.2586 C   0  0  1  0  0  0  0  0  0  0  0  0
    3.6161    4.0490   -3.3978 O   0  0  0  0  0  0  0  0  0  0  0  0
    5.9296    4.4619   -4.0819 C   0  0  2  0  0  0  0  0  0  0  0  0
    8.1721    5.1694   -4.9730 N   0  3  0  0  0  0  0  0  0  0  0  0
    1.6221    5.0220   -0.6922 C   0  0  0  0  0  0  0  0  0  0  0  0
    0.4389    5.9014   -0.2184 C   0  0  2  0  0  0  0  0  0  0  0  0
   -0.7599    5.2198   -0.5850 O   0  0  0  0  0  0  0  0  0  0  0  0
    0.5203    7.3108   -0.9173 C   0  0  1  0  0  0  0  0  0  0  0  0
    0.7399    7.2117   -2.4652 C   0  0  2  0  0  0  0  0  0  0  0  0
    1.8252    6.1823   -2.8702 C   0  0  1  0  0  0  0  0  0  0  0  0
    3.1552    6.7383   -2.6982 O   0  0  0  0  0  0  0  0  0  0  0  0
    1.6592    4.9331   -2.1416 O   0  0  0  0  0  0  0  0  0  0  0  0
    1.0750    8.4783   -3.0262 O   0  0  0  0  0  0  0  0  0  0  0  0
   -0.7124    8.1004   -0.6084 N   0  3  0  0  0  0  0  0  0  0  0  0
   -0.5313    9.3611    0.1397 C   0  0  0  0  0  0  0  0  0  0  0  0
    0.4690    5.9803    1.3279 C   0  0  0  0  0  0  0  0  0  0  0  0
  1  8  1  0  0  0  0
  1  9  1  1  0  0  0
  1  2  1  0  0  0  0
  2  3  1  0  0  0  0
  3  5  1  0  0  0  0
  3  4  1  6  0  0  0
  5  7  1  0  0  0  0
  5  6  1  6  0  0  0
  7  8  1  0  0  0  0
  9 10  1  0  0  0  0
 11 12  1  0  0  0  0
 11 18  1  0  0  0  0
 11 19  1  6  0  0  0
 12 13  1  0  0  0  0
 13 15  1  0  0  0  0
 13 14  1  6  0  0  0
 15 16  1  0  0  0  0
 15 26  1  1  0  0  0
 16 18  1  0  0  0  0
 16 17  1  6  0  0  0
 18  4  1  1  0  0  0
 20 21  1  0  0  0  0
 20 27  1  0  0  0  0
 21 31  1  1  0  0  0
 21 23  1  0  0  0  0
 21 22  1  0  0  0  0
 23 24  1  0  0  0  0
 23 29  1  6  0  0  0
 24 25  1  0  0  0  0
 24 28  1  1  0  0  0
 25 27  1  0  0  0  0
 25 26  1  1  0  0  0
 29 30  1  0  0  0  0
M  CHG  5   6   1  10   1  14   1  19   1  29   1
M  END
>  <CHROM.1>
-51.44275457,56.16901675,42.79814648,62.42680626,-62.01897034,22.93766702
-55.83565189,156.64677352,-77.32181170,170.14195491,-121.07498564,177.69005450
-144.02283609,4.06431274,5.29261264,-2.01073374,0.19674079,-0.51801316,2.31651069

>  <Name>
1byj cryst

>  <RI>
0

>  <Rbt.Current_Directory>
/home/itssahil/PROJECTS/Mol_Feturizer/New_Systems/rnas/1byj

>  <Rbt.Executable>
rbdock ($Id: //depot/dev/client3/rdock/2013.1/src/exe/rbdock.cxx#4 $)

>  <Rbt.Library>
libRbt.so (2013.1, Build901 2013/11/27)

>  <Rbt.Parameter_File>
/export/apps/rDock/src/rDock_2013.1_src/data/scripts/dock_solv.prm

>  <Rbt.Receptor>
prm/pocket_docking_3.prm

>  <SCORE>
-55.6834

>  <SCORE.INTER>
-51.4919

>  <SCORE.INTER.CONST>
1

>  <SCORE.INTER.POLAR>
-9.0592

>  <SCORE.INTER.ROT>
6

>  <SCORE.INTER.SOLV>
24.3363

>  <SCORE.INTER.VDW>
-19.8427

>  <SCORE.INTER.norm>
-1.66103

>  <SCORE.INTRA>
-4.19155

>  <SCORE.INTRA.DIHEDRAL>
-1.57492

>  <SCORE.INTRA.DIHEDRAL.0>
18.4149

>  <SCORE.INTRA.POLAR>
-0.845855

>  <SCORE.INTRA.POLAR.0>
0

>  <SCORE.INTRA.REPUL>
-0.092687

>  <SCORE.INTRA.REPUL.0>
0.092687

>  <SCORE.INTRA.SOLV>
-1.35553

>  <SCORE.INTRA.SOLV.lig_0>
-120.37

>  <SCORE.INTRA.VDW>
0.613024

>  <SCORE.INTRA.VDW.0>
-1.75542

>  <SCORE.INTRA.norm>
-0.135211

>  <SCORE.RESTR>
0

>  <SCORE.RESTR.CAVITY>
0

>  <SCORE.RESTR.norm>
0

>  <SCORE.SYSTEM>
0

>  <SCORE.SYSTEM.CONST>
0

>  <SCORE.SYSTEM.DIHEDRAL>
0

>  <SCORE.SYSTEM.SOLV>
0

>  <SCORE.SYSTEM.norm>
0

>  <SCORE.heavy>
31

>  <SCORE.norm>
-1.79624

>  <RMSD>
2.563

$$$$
1byj cryst
 OpenBabel11021811383D
libRbt.so/2013.1/901 2013/11/27
 31 33  0  0  0  0  0  0  0  0999 V2000
    6.7808    1.7083   -0.8868 C   0  0  1  0  0  0  0  0  0  0  0  0
    7.1868    3.0963   -1.1122 O   0  0  0  0  0  0  0  0  0  0  0  0
    8.0480    3.3974   -2.2507 C   0  0  2  0  0  0  0  0  0  0  0  0
    7.3443    3.1992   -3.5166 O   0  0  0  0  0  0  0  0  0  0  0  0
    9.3279    2.5104   -2.1774 C   0  0  2  0  0  0  0  0  0  0  0  0
   10.2643    2.7458   -3.2941 N   0  3  0  0  0  0  0  0  0  0  0  0
    8.9340    1.0124   -2.1093 C   0  0  0  0  0  0  0  0  0  0  0  0
    7.9966    0.7418   -0.9229 C   0  0  0  0  0  0  0  0  0  0  0  0
    6.0833    1.5956    0.4803 C   0  0  0  0  0  0  0  0  0  0  0  0
    5.1443    0.4703    0.5767 N   0  3  0  0  0  0  0  0  0  0  0  0
    7.4261    5.5418   -4.2754 C   0  0  1  0  0  0  0  0  0  0  0  0
    6.5942    6.7655   -4.7305 C   0  0  0  0  0  0  0  0  0  0  0  0
    5.5287    7.1266   -3.6608 C   0  0  1  0  0  0  0  0  0  0  0  0
    4.7962    8.3398   -4.0711 N   0  3  0  0  0  0  0  0  0  0  0  0
    4.5719    5.9221   -3.4254 C   0  0  1  0  0  0  0  0  0  0  0  0
    5.3533    4.6335   -3.0663 C   0  0  1  0  0  0  0  0  0  0  0  0
    4.4050    3.5769   -3.0438 O   0  0  0  0  0  0  0  0  0  0  0  0
    6.5223    4.2862   -4.0462 C   0  0  2  0  0  0  0  0  0  0  0  0
    8.5001    5.2708   -5.2472 N   0  3  0  0  0  0  0  0  0  0  0  0
    1.8021    5.0536   -0.1881 C   0  0  0  0  0  0  0  0  0  0  0  0
    0.7366    6.1499    0.0574 C   0  0  2  0  0  0  0  0  0  0  0  0
   -0.5285    5.5857   -0.2849 O   0  0  0  0  0  0  0  0  0  0  0  0
    1.0556    7.4023   -0.8433 C   0  0  1  0  0  0  0  0  0  0  0  0
    1.3351    7.0231   -2.3374 C   0  0  2  0  0  0  0  0  0  0  0  0
    2.2789    5.8045   -2.4990 C   0  0  1  0  0  0  0  0  0  0  0  0
    3.6651    6.1966   -2.3195 O   0  0  0  0  0  0  0  0  0  0  0  0
    1.8979    4.7250   -1.5998 O   0  0  0  0  0  0  0  0  0  0  0  0
    1.8774    8.1241   -3.0619 O   0  0  0  0  0  0  0  0  0  0  0  0
   -0.0636    8.3907   -0.7501 N   0  3  0  0  0  0  0  0  0  0  0  0
    0.0333    9.4156    0.3092 C   0  0  0  0  0  0  0  0  0  0  0  0
    0.7010    6.4755    1.5710 C   0  0  0  0  0  0  0  0  0  0  0  0
  1  8  1  0  0  0  0
  1  9  1  1  0  0  0
  1  2  1  0  0  0  0
  2  3  1  0  0  0  0
  3  5  1  0  0  0  0
  3  4  1  6  0  0  0
  5  7  1  0  0  0  0
  5  6  1  6  0  0  0
  7  8  1  0  0  0  0
  9 10  1  0  0  0  0
 11 12  1  0  0  0  0
 11 18  1  0  0  0  0
 11 19  1  6  0  0  0
 12 13  1  0  0  0  0
 13 15  1  0  0  0  0
 13 14  1  6  0  0  0
 15 16  1  0  0  0  0
 15 26  1  1  0  0  0
 16 18  1  0  0  0  0
 16 17  1  6  0  0  0
 18  4  1  1  0  0  0
 20 21  1  0  0  0  0
 20 27  1  0  0  0  0
 21 31  1  1  0  0  0
 21 23  1  0  0  0  0
 21 22  1  0  0  0  0
 23 24  1  0  0  0  0
 23 29  1  6  0  0  0
 24 25  1  0  0  0  0
 24 28  1  6  0  0  0
 25 27  1  0  0  0  0
 25 26  1  1  0  0  0
 29 30  1  0  0  0  0
M  CHG  5   6   1  10   1  14   1  19   1  29   1
M  END
>  <CHROM.1>
154.66805230,84.96733285,59.72392642,74.92192398,-79.19644518,27.61086979
169.86805567,137.78388370,78.34436251,56.30462197,-148.83619920,-163.21215884
-122.33428220,4.67376299,4.91753449,-2.03626187,0.29299963,-0.51301709,2.46940118

>  <Name>
1byj cryst

>  <RI>
0

>  <Rbt.Current_Directory>
/home/itssahil/PROJECTS/Mol_Feturizer/New_Systems/rnas/1byj

>  <Rbt.Executable>
rbdock ($Id: //depot/dev/client3/rdock/2013.1/src/exe/rbdock.cxx#4 $)

>  <Rbt.Library>
libRbt.so (2013.1, Build901 2013/11/27)

>  <Rbt.Parameter_File>
/export/apps/rDock/src/rDock_2013.1_src/data/scripts/dock_solv.prm

>  <Rbt.Receptor>
prm/pocket_docking_6.prm

>  <SCORE>
-44.739

>  <SCORE.INTER>
-43.6169

>  <SCORE.INTER.CONST>
1

>  <SCORE.INTER.POLAR>
-7.50351

>  <SCORE.INTER.ROT>
6

>  <SCORE.INTER.SOLV>
25.5281

>  <SCORE.INTER.VDW>
-20.1756

>  <SCORE.INTER.norm>
-1.407

>  <SCORE.INTRA>
-1.12203

>  <SCORE.INTRA.DIHEDRAL>
7.59888

>  <SCORE.INTRA.DIHEDRAL.0>
18.4149

>  <SCORE.INTRA.POLAR>
-1.11679

>  <SCORE.INTRA.POLAR.0>
0

>  <SCORE.INTRA.REPUL>
-0.092687

>  <SCORE.INTRA.REPUL.0>
0.092687

>  <SCORE.INTRA.SOLV>
0.868159

>  <SCORE.INTRA.SOLV.lig_0>
-120.37

>  <SCORE.INTRA.VDW>
-1.09504

>  <SCORE.INTRA.VDW.0>
-1.75542

>  <SCORE.INTRA.norm>
-0.0361944

>  <SCORE.RESTR>
0

>  <SCORE.RESTR.CAVITY>
0

>  <SCORE.RESTR.norm>
0

>  <SCORE.SYSTEM>
0

>  <SCORE.SYSTEM.CONST>
0

>  <SCORE.SYSTEM.DIHEDRAL>
0

>  <SCORE.SYSTEM.SOLV>
0

>  <SCORE.SYSTEM.norm>
0

>  <SCORE.heavy>
31

>  <SCORE.norm>
-1.44319

>  <RMSD>
2.564

$$$$
1byj cryst
 OpenBabel11021811383D
libRbt.so/2013.1/901 2013/11/27
 31 33  0  0  0  0  0  0  0  0999 V2000
    7.5830    1.7873   -0.7787 C   0  0  1  0  0  0  0  0  0  0  0  0
    7.9160    3.1250   -1.2703 O   0  0  0  0  0  0  0  0  0  0  0  0
    8.2413    3.2905   -2.6829 C   0  0  2  0  0  0  0  0  0  0  0  0
    7.0700    3.0656   -3.5280 O   0  0  0  0  0  0  0  0  0  0  0  0
    9.3998    2.3186   -3.0621 C   0  0  2  0  0  0  0  0  0  0  0  0
    9.7999    2.4146   -4.4798 N   0  3  0  0  0  0  0  0  0  0  0  0
    9.0082    0.8606   -2.7088 C   0  0  0  0  0  0  0  0  0  0  0  0
    8.6346    0.7340   -1.2242 C   0  0  0  0  0  0  0  0  0  0  0  0
    7.5086    1.8115    0.7581 C   0  0  0  0  0  0  0  0  0  0  0  0
    6.8314    0.6445    1.3383 N   0  3  0  0  0  0  0  0  0  0  0  0
    7.2544    5.4537   -4.1053 C   0  0  1  0  0  0  0  0  0  0  0  0
    6.4782    6.7384   -4.4846 C   0  0  0  0  0  0  0  0  0  0  0  0
    5.4003    7.0581   -3.4143 C   0  0  1  0  0  0  0  0  0  0  0  0
    4.7220    8.3253   -3.7475 N   0  3  0  0  0  0  0  0  0  0  0  0
    4.3954    5.8762   -3.2918 C   0  0  1  0  0  0  0  0  0  0  0  0
    5.1212    4.5358   -3.0142 C   0  0  1  0  0  0  0  0  0  0  0  0
    4.1354    3.5169   -3.0926 O   0  0  0  0  0  0  0  0  0  0  0  0
    6.3008    4.2193   -3.9917 C   0  0  2  0  0  0  0  0  0  0  0  0
    8.3416    5.2161   -5.0711 N   0  3  0  0  0  0  0  0  0  0  0  0
    1.4191    4.4523   -0.6433 C   0  0  0  0  0  0  0  0  0  0  0  0
    0.4802    5.4865    0.0250 C   0  0  2  0  0  0  0  0  0  0  0  0
   -0.8297    5.2551   -0.4916 O   0  0  0  0  0  0  0  0  0  0  0  0
    0.9720    6.9422   -0.3218 C   0  0  1  0  0  0  0  0  0  0  0  0
    1.2554    7.1420   -1.8495 C   0  0  2  0  0  0  0  0  0  0  0  0
    2.0565    5.9782   -2.4863 C   0  0  1  0  0  0  0  0  0  0  0  0
    3.4721    6.1009   -2.1884 O   0  0  0  0  0  0  0  0  0  0  0  0
    1.5232    4.6884   -2.0728 O   0  0  0  0  0  0  0  0  0  0  0  0
    1.9454    8.3644   -2.0962 O   0  0  0  0  0  0  0  0  0  0  0  0
   -0.0277    7.9433    0.1650 N   0  3  0  0  0  0  0  0  0  0  0  0
    0.5027    9.1606    0.8121 C   0  0  0  0  0  0  0  0  0  0  0  0
    0.4321    5.2009    1.5462 C   0  0  0  0  0  0  0  0  0  0  0  0
  1  8  1  0  0  0  0
  1  9  1  1  0  0  0
  1  2  1  0  0  0  0
  2  3  1  0  0  0  0
  3  5  1  0  0  0  0
  3  4  1  6  0  0  0
  5  7  1  0  0  0  0
  5  6  1  6  0  0  0
  7  8  1  0  0  0  0
  9 10  1  0  0  0  0
 11 12  1  0  0  0  0
 11 18  1  0  0  0  0
 11 19  1  6  0  0  0
 12 13  1  0  0  0  0
 13 15  1  0  0  0  0
 13 14  1  6  0  0  0
 15 16  1  0  0  0  0
 15 26  1  1  0  0  0
 16 18  1  0  0  0  0
 16 17  1  6  0  0  0
 18  4  1  1  0  0  0
 20 21  1  0  0  0  0
 20 27  1  0  0  0  0
 21 31  1  1  0  0  0
 21 23  1  0  0  0  0
 21 22  1  0  0  0  0
 23 24  1  0  0  0  0
 23 29  1  6  0  0  0
 24 25  1  0  0  0  0
 24 28  1  1  0  0  0
 25 27  1  0  0  0  0
 25 26  1  1  0  0  0
 29 30  1  0  0  0  0
M  CHG  5   6   1  10   1  14   1  19   1  29   1
M  END
>  <CHROM.1>
164.07001965,97.28898888,28.83156900,-158.33439969,-135.09154042,-96.09525719
-65.57164395,128.40921842,-52.84910964,175.31006524,-100.86702099,-55.01449547
-135.45575052,4.72858930,4.77767091,-1.98203477,0.21655891,-0.52492702,2.41052249

>  <Name>
1byj cryst

>  <RI>
0

>  <Rbt.Current_Directory>
/home/itssahil/PROJECTS/Mol_Feturizer/New_Systems/rnas/1byj

>  <Rbt.Executable>
rbdock ($Id: //depot/dev/client3/rdock/2013.1/src/exe/rbdock.cxx#4 $)

>  <Rbt.Library>
libRbt.so (2013.1, Build901 2013/11/27)

>  <Rbt.Parameter_File>
/export/apps/rDock/src/rDock_2013.1_src/data/scripts/dock_solv.prm

>  <Rbt.Receptor>
prm/pocket_docking_3.prm

>  <SCORE>
-49.8828

>  <SCORE.INTER>
-54.0755

>  <SCORE.INTER.CONST>
1

>  <SCORE.INTER.POLAR>
-8.83966

>  <SCORE.INTER.ROT>
6

>  <SCORE.INTER.SOLV>
26.751

>  <SCORE.INTER.VDW>
-23.1018

>  <SCORE.INTER.norm>
-1.74437

>  <SCORE.INTRA>
4.12351

>  <SCORE.INTRA.DIHEDRAL>
14.1343

>  <SCORE.INTRA.DIHEDRAL.0>
18.4149

>  <SCORE.INTRA.POLAR>
-1.34509

>  <SCORE.INTRA.POLAR.0>
0

>  <SCORE.INTRA.REPUL>
-0.092687

>  <SCORE.INTRA.REPUL.0>
0.092687

>  <SCORE.INTRA.SOLV>
3.9666

>  <SCORE.INTRA.SOLV.lig_0>
-120.37

>  <SCORE.INTRA.VDW>
0.109811

>  <SCORE.INTRA.VDW.0>
-1.75542

>  <SCORE.INTRA.norm>
0.133016

>  <SCORE.RESTR>
0.0692437

>  <SCORE.RESTR.CAVITY>
0.0692437

>  <SCORE.RESTR.norm>
0.00223367

>  <SCORE.SYSTEM>
0

>  <SCORE.SYSTEM.CONST>
0

>  <SCORE.SYSTEM.DIHEDRAL>
0

>  <SCORE.SYSTEM.SOLV>
0

>  <SCORE.SYSTEM.norm>
0

>  <SCORE.heavy>
31

>  <SCORE.norm>
-1.60912

>  <RMSD>
2.570

$$$$
1byj cryst
 OpenBabel11021811383D
libRbt.so/2013.1/901 2013/11/27
 31 33  0  0  0  0  0  0  0  0999 V2000
    7.4677    2.1386   -0.8624 C   0  0  1  0  0  0  0  0  0  0  0  0
    7.8462    3.4179   -1.4642 O   0  0  0  0  0  0  0  0  0  0  0  0
    8.0805    3.4721   -2.9032 C   0  0  2  0  0  0  0  0  0  0  0  0
    6.8409    3.2714   -3.6515 O   0  0  0  0  0  0  0  0  0  0  0  0
    9.1478    2.4044   -3.2921 C   0  0  2  0  0  0  0  0  0  0  0  0
    9.4519    2.3842   -4.7364 N   0  3  0  0  0  0  0  0  0  0  0  0
    8.6940    1.0004   -2.8158 C   0  0  0  0  0  0  0  0  0  0  0  0
    8.4191    0.9926   -1.3046 C   0  0  0  0  0  0  0  0  0  0  0  0
    7.5037    2.2648    0.6709 C   0  0  0  0  0  0  0  0  0  0  0  0
    6.8876    1.1322    1.3744 N   0  3  0  0  0  0  0  0  0  0  0  0
    7.1200    5.6449   -4.2510 C   0  0  1  0  0  0  0  0  0  0  0  0
    6.3989    6.9460   -4.6796 C   0  0  0  0  0  0  0  0  0  0  0  0
    5.2864    7.3118   -3.6606 C   0  0  1  0  0  0  0  0  0  0  0  0
    4.6605    8.5933   -4.0388 N   0  3  0  0  0  0  0  0  0  0  0  0
    4.2428    6.1613   -3.5662 C   0  0  1  0  0  0  0  0  0  0  0  0
    4.9162    4.8046   -3.2406 C   0  0  1  0  0  0  0  0  0  0  0  0
    3.9050    3.8136   -3.3481 O   0  0  0  0  0  0  0  0  0  0  0  0
    6.1264    4.4403   -4.1625 C   0  0  2  0  0  0  0  0  0  0  0  0
    8.2398    5.3623   -5.1662 N   0  3  0  0  0  0  0  0  0  0  0  0
    1.8005    4.9328   -0.2942 C   0  0  0  0  0  0  0  0  0  0  0  0
    0.5566    5.7978    0.0257 C   0  0  2  0  0  0  0  0  0  0  0  0
   -0.5909    4.9977   -0.2556 O   0  0  0  0  0  0  0  0  0  0  0  0
    0.5730    7.0921   -0.8719 C   0  0  1  0  0  0  0  0  0  0  0  0
    0.8365    6.7815   -2.3846 C   0  0  2  0  0  0  0  0  0  0  0  0
    1.9898    5.7724   -2.6159 C   0  0  1  0  0  0  0  0  0  0  0  0
    3.2805    6.4282   -2.5063 O   0  0  0  0  0  0  0  0  0  0  0  0
    1.8788    4.6354   -1.7138 O   0  0  0  0  0  0  0  0  0  0  0  0
    1.1111    7.9705   -3.1208 O   0  0  0  0  0  0  0  0  0  0  0  0
   -0.7109    7.8413   -0.7028 N   0  3  0  0  0  0  0  0  0  0  0  0
   -0.6558    9.1017    0.0655 C   0  0  0  0  0  0  0  0  0  0  0  0
    0.5435    6.1036    1.5437 C   0  0  0  0  0  0  0  0  0  0  0  0
  1  8  1  0  0  0  0
  1  9  1  1  0  0  0
  1  2  1  0  0  0  0
  2  3  1  0  0  0  0
  3  5  1  0  0  0  0
  3  4  1  6  0  0  0
  5  7  1  0  0  0  0
  5  6  1  6  0  0  0
  7  8  1  0  0  0  0
  9 10  1  0  0  0  0
 11 12  1  0  0  0  0
 11 18  1  0  0  0  0
 11 19  1  6  0  0  0
 12 13  1  0  0  0  0
 13 15  1  0  0  0  0
 13 14  1  6  0  0  0
 15 16  1  0  0  0  0
 15 26  1  1  0  0  0
 16 18  1  0  0  0  0
 16 17  1  6  0  0  0
 18  4  1  1  0  0  0
 20 21  1  0  0  0  0
 20 27  1  0  0  0  0
 21 31  1  1  0  0  0
 21 23  1  0  0  0  0
 21 22  1  0  0  0  0
 23 24  1  0  0  0  0
 23 29  1  6  0  0  0
 24 25  1  0  0  0  0
 24 28  1  6  0  0  0
 25 27  1  0  0  0  0
 25 26  1  1  0  0  0
 29 30  1  0  0  0  0
M  CHG  5   6   1  10   1  14   1  19   1  29   1
M  END
>  <CHROM.1>
168.43438286,98.47305915,21.02452411,-31.45705955,58.53884099,16.32863487
176.58852372,156.59645474,-74.94900391,-58.23473582,-131.46606466,-57.99517345
-132.10319383,4.55087356,4.94182435,-2.19700890,0.18109151,-0.50912779,2.32239675

>  <Name>
1byj cryst

>  <RI>
0

>  <Rbt.Current_Directory>
/home/itssahil/PROJECTS/Mol_Feturizer/New_Systems/rnas/1byj

>  <Rbt.Executable>
rbdock ($Id: //depot/dev/client3/rdock/2013.1/src/exe/rbdock.cxx#4 $)

>  <Rbt.Library>
libRbt.so (2013.1, Build901 2013/11/27)

>  <Rbt.Parameter_File>
/export/apps/rDock/src/rDock_2013.1_src/data/scripts/dock_solv.prm

>  <Rbt.Receptor>
prm/pocket_docking_6.prm

>  <SCORE>
-50.8813

>  <SCORE.INTER>
-54.8261

>  <SCORE.INTER.CONST>
1

>  <SCORE.INTER.POLAR>
-8.73613

>  <SCORE.INTER.ROT>
6

>  <SCORE.INTER.SOLV>
29.4114

>  <SCORE.INTER.VDW>
-24.8341

>  <SCORE.INTER.norm>
-1.76858

>  <SCORE.INTRA>
3.94476

>  <SCORE.INTRA.DIHEDRAL>
10.4205

>  <SCORE.INTRA.DIHEDRAL.0>
18.4149

>  <SCORE.INTRA.POLAR>
-1.01225

>  <SCORE.INTRA.POLAR.0>
0

>  <SCORE.INTRA.REPUL>
-0.092687

>  <SCORE.INTRA.REPUL.0>
0.092687

>  <SCORE.INTRA.SOLV>
2.52194

>  <SCORE.INTRA.SOLV.lig_0>
-120.37

>  <SCORE.INTRA.VDW>
1.37863

>  <SCORE.INTRA.VDW.0>
-1.75542

>  <SCORE.INTRA.norm>
0.12725

>  <SCORE.RESTR>
0

>  <SCORE.RESTR.CAVITY>
0

>  <SCORE.RESTR.norm>
0

>  <SCORE.SYSTEM>
0

>  <SCORE.SYSTEM.CONST>
0

>  <SCORE.SYSTEM.DIHEDRAL>
0

>  <SCORE.SYSTEM.SOLV>
0

>  <SCORE.SYSTEM.norm>
0

>  <SCORE.heavy>
31

>  <SCORE.norm>
-1.64133

>  <RMSD>
2.570

$$$$
1byj cryst
 OpenBabel11021811383D
libRbt.so/2013.1/901 2013/11/27
 31 33  0  0  0  0  0  0  0  0999 V2000
    9.5481    1.9770   -3.2416 C   0  0  1  0  0  0  0  0  0  0  0  0
    8.1557    2.2661   -3.5878 O   0  0  0  0  0  0  0  0  0  0  0  0
    7.4029    3.1905   -2.7467 C   0  0  2  0  0  0  0  0  0  0  0  0
    7.9139    4.5547   -2.8666 O   0  0  0  0  0  0  0  0  0  0  0  0
    7.4563    2.7011   -1.2675 C   0  0  2  0  0  0  0  0  0  0  0  0
    6.7185    3.5780   -0.3370 N   0  3  0  0  0  0  0  0  0  0  0  0
    8.9300    2.5469   -0.8109 C   0  0  0  0  0  0  0  0  0  0  0  0
    9.6998    1.5987   -1.7424 C   0  0  0  0  0  0  0  0  0  0  0  0
   10.0606    0.8163   -4.1123 C   0  0  0  0  0  0  0  0  0  0  0  0
   10.2221    1.1641   -5.5301 N   0  3  0  0  0  0  0  0  0  0  0  0
    7.8361    6.9293   -3.5192 C   0  0  1  0  0  0  0  0  0  0  0  0
    7.0158    8.0295   -4.2356 C   0  0  0  0  0  0  0  0  0  0  0  0
    5.5907    8.1274   -3.6280 C   0  0  1  0  0  0  0  0  0  0  0  0
    4.8472    9.2304   -4.2664 N   0  3  0  0  0  0  0  0  0  0  0  0
    4.8489    6.7671   -3.7720 C   0  0  1  0  0  0  0  0  0  0  0  0
    5.6692    5.6019   -3.1640 C   0  0  1  0  0  0  0  0  0  0  0  0
    4.9847    4.4045   -3.5015 O   0  0  0  0  0  0  0  0  0  0  0  0
    7.1543    5.5279   -3.6501 C   0  0  2  0  0  0  0  0  0  0  0  0
    9.2175    6.9139   -4.0318 N   0  3  0  0  0  0  0  0  0  0  0  0
    2.2146    9.0753   -1.5513 C   0  0  0  0  0  0  0  0  0  0  0  0
    1.1075    8.3997   -0.7054 C   0  0  2  0  0  0  0  0  0  0  0  0
    1.4099    8.6633    0.6640 O   0  0  0  0  0  0  0  0  0  0  0  0
    1.1008    6.8507   -0.9914 C   0  0  1  0  0  0  0  0  0  0  0  0
    2.5281    6.2101   -0.9119 C   0  0  2  0  0  0  0  0  0  0  0  0
    3.6175    7.0369   -1.6411 C   0  0  1  0  0  0  0  0  0  0  0  0
    3.5718    6.8034   -3.0733 O   0  0  0  0  0  0  0  0  0  0  0  0
    3.5052    8.4514   -1.3165 O   0  0  0  0  0  0  0  0  0  0  0  0
    2.5335    4.8829   -1.4312 O   0  0  0  0  0  0  0  0  0  0  0  0
    0.1618    6.1663   -0.0488 N   0  3  0  0  0  0  0  0  0  0  0  0
    0.6143    6.0027    1.3478 C   0  0  0  0  0  0  0  0  0  0  0  0
   -0.2441    9.0877   -1.0188 C   0  0  0  0  0  0  0  0  0  0  0  0
  1  8  1  0  0  0  0
  1  9  1  6  0  0  0
  1  2  1  0  0  0  0
  2  3  1  0  0  0  0
  3  5  1  0  0  0  0
  3  4  1  1  0  0  0
  5  7  1  0  0  0  0
  5  6  1  1  0  0  0
  7  8  1  0  0  0  0
  9 10  1  0  0  0  0
 11 12  1  0  0  0  0
 11 18  1  0  0  0  0
 11 19  1  6  0  0  0
 12 13  1  0  0  0  0
 13 15  1  0  0  0  0
 13 14  1  6  0  0  0
 15 16  1  0  0  0  0
 15 26  1  1  0  0  0
 16 18  1  0  0  0  0
 16 17  1  6  0  0  0
 18  4  1  1  0  0  0
 20 21  1  0  0  0  0
 20 27  1  0  0  0  0
 21 31  1  6  0  0  0
 21 23  1  0  0  0  0
 21 22  1  0  0  0  0
 23 24  1  0  0  0  0
 23 29  1  1  0  0  0
 24 25  1  0  0  0  0
 24 28  1  6  0  0  0
 25 27  1  0  0  0  0
 25 26  1  6  0  0  0
 29 30  1  0  0  0  0
M  CHG  5   6   1  10   1  14   1  19   1  29   1
M  END
>  <CHROM.1>
69.31754879,104.55682444,175.02060839,-46.99219642,-49.19784810,-61.18999672
-45.10665851,-61.01280735,74.25393753,-57.18443714,46.11147354,-172.08793183
-143.24822742,5.32671361,5.59554988,-2.28743240,0.35943845,-0.55032921,2.65377547

>  <Name>
1byj cryst

>  <RI>
0

>  <Rbt.Current_Directory>
/home/itssahil/PROJECTS/Mol_Feturizer/New_Systems/rnas/1byj

>  <Rbt.Executable>
rbdock ($Id: //depot/dev/client3/rdock/2013.1/src/exe/rbdock.cxx#4 $)

>  <Rbt.Library>
libRbt.so (2013.1, Build901 2013/11/27)

>  <Rbt.Parameter_File>
/export/apps/rDock/src/rDock_2013.1_src/data/scripts/dock_solv.prm

>  <Rbt.Receptor>
prm/pocket_docking_3.prm

>  <SCORE>
-48.9415

>  <SCORE.INTER>
-46.4862

>  <SCORE.INTER.CONST>
1

>  <SCORE.INTER.POLAR>
-7.13605

>  <SCORE.INTER.ROT>
6

>  <SCORE.INTER.SOLV>
26.2608

>  <SCORE.INTER.VDW>
-23.5576

>  <SCORE.INTER.norm>
-1.49955

>  <SCORE.INTRA>
-3.15038

>  <SCORE.INTRA.DIHEDRAL>
-3.72071

>  <SCORE.INTRA.DIHEDRAL.0>
18.4149

>  <SCORE.INTRA.POLAR>
-1.98069e-05

>  <SCORE.INTRA.POLAR.0>
0

>  <SCORE.INTRA.REPUL>
-0.0476773

>  <SCORE.INTRA.REPUL.0>
0.092687

>  <SCORE.INTRA.SOLV>
-2.98973

>  <SCORE.INTRA.SOLV.lig_0>
-120.37

>  <SCORE.INTRA.VDW>
0.443294

>  <SCORE.INTRA.VDW.0>
-1.75542

>  <SCORE.INTRA.norm>
-0.101625

>  <SCORE.RESTR>
0.695029

>  <SCORE.RESTR.CAVITY>
0.695029

>  <SCORE.RESTR.norm>
0.0224203

>  <SCORE.SYSTEM>
0

>  <SCORE.SYSTEM.CONST>
0

>  <SCORE.SYSTEM.DIHEDRAL>
0

>  <SCORE.SYSTEM.SOLV>
0

>  <SCORE.SYSTEM.norm>
0

>  <SCORE.heavy>
31

>  <SCORE.norm>
-1.57876

>  <RMSD>
2.574

$$$$
1byj cryst
 OpenBabel11021811383D
libRbt.so/2013.1/901 2013/11/27
 31 33  0  0  0  0  0  0  0  0999 V2000
    7.5608    1.8326   -0.7598 C   0  0  1  0  0  0  0  0  0  0  0  0
    7.9140    3.1665   -1.2478 O   0  0  0  0  0  0  0  0  0  0  0  0
    8.2356    3.3320   -2.6612 C   0  0  2  0  0  0  0  0  0  0  0  0
    7.0568    3.1300   -3.5018 O   0  0  0  0  0  0  0  0  0  0  0  0
    9.3758    2.3423   -3.0495 C   0  0  2  0  0  0  0  0  0  0  0  0
    9.7709    2.4371   -4.4687 N   0  3  0  0  0  0  0  0  0  0  0  0
    8.9614    0.8896   -2.6999 C   0  0  0  0  0  0  0  0  0  0  0  0
    8.5925    0.7636   -1.2141 C   0  0  0  0  0  0  0  0  0  0  0  0
    7.4939    1.8521    0.7775 C   0  0  0  0  0  0  0  0  0  0  0  0
    6.8919    0.6461    1.3609 N   0  3  0  0  0  0  0  0  0  0  0  0
    7.3361    5.4712   -4.2168 C   0  0  1  0  0  0  0  0  0  0  0  0
    6.6098    6.7761   -4.6247 C   0  0  0  0  0  0  0  0  0  0  0  0
    5.6103    7.2103   -3.5191 C   0  0  1  0  0  0  0  0  0  0  0  0
    4.9832    8.4946   -3.8853 N   0  3  0  0  0  0  0  0  0  0  0  0
    4.5523    6.0943   -3.2809 C   0  0  1  0  0  0  0  0  0  0  0  0
    5.2198    4.7316   -2.9687 C   0  0  1  0  0  0  0  0  0  0  0  0
    4.1784    3.7667   -2.9406 O   0  0  0  0  0  0  0  0  0  0  0  0
    6.3259    4.2996   -3.9872 C   0  0  2  0  0  0  0  0  0  0  0  0
    8.3549    5.1237   -5.2231 N   0  3  0  0  0  0  0  0  0  0  0  0
    0.8010    5.6186   -2.6362 C   0  0  0  0  0  0  0  0  0  0  0  0
    0.0189    6.1226   -1.3985 C   0  0  2  0  0  0  0  0  0  0  0  0
   -0.9460    7.0624   -1.8695 O   0  0  0  0  0  0  0  0  0  0  0  0
    1.0180    6.8017   -0.3876 C   0  0  1  0  0  0  0  0  0  0  0  0
    1.9743    7.8338   -1.0764 C   0  0  2  0  0  0  0  0  0  0  0  0
    2.5869    7.3179   -2.4032 C   0  0  1  0  0  0  0  0  0  0  0  0
    3.7037    6.4269   -2.1451 O   0  0  0  0  0  0  0  0  0  0  0  0
    1.5729    6.6915   -3.2388 O   0  0  0  0  0  0  0  0  0  0  0  0
    3.0306    8.2281   -0.2047 O   0  0  0  0  0  0  0  0  0  0  0  0
    0.2521    7.4506    0.7218 N   0  3  0  0  0  0  0  0  0  0  0  0
   -0.3457    8.7718    0.4408 C   0  0  0  0  0  0  0  0  0  0  0  0
   -0.7592    4.9320   -0.7861 C   0  0  0  0  0  0  0  0  0  0  0  0
  1  8  1  0  0  0  0
  1  9  1  1  0  0  0
  1  2  1  0  0  0  0
  2  3  1  0  0  0  0
  3  5  1  0  0  0  0
  3  4  1  6  0  0  0
  5  7  1  0  0  0  0
  5  6  1  6  0  0  0
  7  8  1  0  0  0  0
  9 10  1  0  0  0  0
 11 12  1  0  0  0  0
 11 18  1  0  0  0  0
 11 19  1  6  0  0  0
 12 13  1  0  0  0  0
 13 15  1  0  0  0  0
 13 14  1  6  0  0  0
 15 16  1  0  0  0  0
 15 26  1  1  0  0  0
 16 18  1  0  0  0  0
 16 17  1  6  0  0  0
 18  4  1  1  0  0  0
 20 21  1  0  0  0  0
 20 27  1  0  0  0  0
 21 31  1  1  0  0  0
 21 23  1  0  0  0  0
 21 22  1  0  0  0  0
 23 24  1  0  0  0  0
 23 29  1  1  0  0  0
 24 25  1  0  0  0  0
 24 28  1  1  0  0  0
 25 27  1  0  0  0  0
 25 26  1  1  0  0  0
 29 30  1  0  0  0  0
M  CHG  5   6   1  10   1  14   1  19   1  29   1
M  END
>  <CHROM.1>
168.51143671,98.91352580,32.63155051,-35.22457259,-133.82010977,-90.39053969
-179.96219056,82.95090739,91.94293797,-55.63335075,41.14318047,-57.22175236
-167.21284371,4.75770230,5.03040586,-2.15878094,0.26889661,-0.51390204,2.36511776

>  <Name>
1byj cryst

>  <RI>
0

>  <Rbt.Current_Directory>
/home/itssahil/PROJECTS/Mol_Feturizer/New_Systems/rnas/1byj

>  <Rbt.Executable>
rbdock ($Id: //depot/dev/client3/rdock/2013.1/src/exe/rbdock.cxx#4 $)

>  <Rbt.Library>
libRbt.so (2013.1, Build901 2013/11/27)

>  <Rbt.Parameter_File>
/export/apps/rDock/src/rDock_2013.1_src/data/scripts/dock_solv.prm

>  <Rbt.Receptor>
prm/pocket_docking_6.prm

>  <SCORE>
-49.0223

>  <SCORE.INTER>
-54.4472

>  <SCORE.INTER.CONST>
1

>  <SCORE.INTER.POLAR>
-8.38683

>  <SCORE.INTER.ROT>
6

>  <SCORE.INTER.SOLV>
27.4603

>  <SCORE.INTER.VDW>
-25.0955

>  <SCORE.INTER.norm>
-1.75636

>  <SCORE.INTRA>
5.42493

>  <SCORE.INTRA.DIHEDRAL>
5.02767

>  <SCORE.INTRA.DIHEDRAL.0>
18.4149

>  <SCORE.INTRA.POLAR>
-0.00272572

>  <SCORE.INTRA.POLAR.0>
0

>  <SCORE.INTRA.REPUL>
-0.092687

>  <SCORE.INTRA.REPUL.0>
0.092687

>  <SCORE.INTRA.SOLV>
2.49821

>  <SCORE.INTRA.SOLV.lig_0>
-120.37

>  <SCORE.INTRA.VDW>
2.13469

>  <SCORE.INTRA.VDW.0>
-1.75542

>  <SCORE.INTRA.norm>
0.174998

>  <SCORE.RESTR>
0

>  <SCORE.RESTR.CAVITY>
0

>  <SCORE.RESTR.norm>
0

>  <SCORE.SYSTEM>
0

>  <SCORE.SYSTEM.CONST>
0

>  <SCORE.SYSTEM.DIHEDRAL>
0

>  <SCORE.SYSTEM.SOLV>
0

>  <SCORE.SYSTEM.norm>
0

>  <SCORE.heavy>
31

>  <SCORE.norm>
-1.58136

>  <RMSD>
2.579

$$$$
1byj cryst
 OpenBabel11021811383D
libRbt.so/2013.1/901 2013/11/27
 31 33  0  0  0  0  0  0  0  0999 V2000
    6.0499    2.8527   -0.8242 C   0  0  1  0  0  0  0  0  0  0  0  0
    7.0551    3.8356   -1.2310 O   0  0  0  0  0  0  0  0  0  0  0  0
    7.9889    3.4824   -2.2949 C   0  0  2  0  0  0  0  0  0  0  0  0
    7.3077    3.3656   -3.5829 O   0  0  0  0  0  0  0  0  0  0  0  0
    8.7145    2.1535   -1.9233 C   0  0  2  0  0  0  0  0  0  0  0  0
    9.6842    1.7139   -2.9458 N   0  3  0  0  0  0  0  0  0  0  0  0
    7.6736    1.0372   -1.6504 C   0  0  0  0  0  0  0  0  0  0  0  0
    6.6850    1.4608   -0.5538 C   0  0  0  0  0  0  0  0  0  0  0  0
    5.3418    3.3437    0.4508 C   0  0  0  0  0  0  0  0  0  0  0  0
    4.9287    4.7521    0.3956 N   0  3  0  0  0  0  0  0  0  0  0  0
    7.6505    5.7392   -4.1475 C   0  0  1  0  0  0  0  0  0  0  0  0
    6.9744    7.0482   -4.6229 C   0  0  0  0  0  0  0  0  0  0  0  0
    5.7909    7.4189   -3.6893 C   0  0  1  0  0  0  0  0  0  0  0  0
    5.2058    8.7072   -4.1072 N   0  3  0  0  0  0  0  0  0  0  0  0
    4.7339    6.2768   -3.6798 C   0  0  1  0  0  0  0  0  0  0  0  0
    5.3698    4.9130   -3.3110 C   0  0  1  0  0  0  0  0  0  0  0  0
    4.3617    3.9311   -3.4997 O   0  0  0  0  0  0  0  0  0  0  0  0
    6.6434    4.5427   -4.1406 C   0  0  2  0  0  0  0  0  0  0  0  0
    8.8340    5.4513   -4.9768 N   0  3  0  0  0  0  0  0  0  0  0  0
    1.4558    5.2968   -1.0401 C   0  0  0  0  0  0  0  0  0  0  0  0
    0.4585    6.4481   -0.7619 C   0  0  2  0  0  0  0  0  0  0  0  0
   -0.7848    6.0748   -1.3543 O   0  0  0  0  0  0  0  0  0  0  0  0
    1.0061    7.7813   -1.3977 C   0  0  1  0  0  0  0  0  0  0  0  0
    1.4687    7.6027   -2.8837 C   0  0  2  0  0  0  0  0  0  0  0  0
    2.3238    6.3312   -3.1157 C   0  0  1  0  0  0  0  0  0  0  0  0
    3.6963    6.5470   -2.6945 O   0  0  0  0  0  0  0  0  0  0  0  0
    1.7294    5.1746   -2.4615 O   0  0  0  0  0  0  0  0  0  0  0  0
    2.1984    8.7377   -3.3424 O   0  0  0  0  0  0  0  0  0  0  0  0
   -0.0308    8.8548   -1.2930 N   0  3  0  0  0  0  0  0  0  0  0  0
   -0.3545    9.3447    0.0624 C   0  0  0  0  0  0  0  0  0  0  0  0
    0.2291    6.5458    0.7664 C   0  0  0  0  0  0  0  0  0  0  0  0
  1  8  1  0  0  0  0
  1  9  1  1  0  0  0
  1  2  1  0  0  0  0
  2  3  1  0  0  0  0
  3  5  1  0  0  0  0
  3  4  1  6  0  0  0
  5  7  1  0  0  0  0
  5  6  1  6  0  0  0
  7  8  1  0  0  0  0
  9 10  1  0  0  0  0
 11 12  1  0  0  0  0
 11 18  1  0  0  0  0
 11 19  1  6  0  0  0
 12 13  1  0  0  0  0
 13 15  1  0  0  0  0
 13 14  1  6  0  0  0
 15 16  1  0  0  0  0
 15 26  1  1  0  0  0
 16 18  1  0  0  0  0
 16 17  1  6  0  0  0
 18  4  1  1  0  0  0
 20 21  1  0  0  0  0
 20 27  1  0  0  0  0
 21 31  1  1  0  0  0
 21 23  1  0  0  0  0
 21 22  1  0  0  0  0
 23 24  1  0  0  0  0
 23 29  1  6  0  0  0
 24 25  1  0  0  0  0
 24 28  1  1  0  0  0
 25 27  1  0  0  0  0
 25 26  1  1  0  0  0
 29 30  1  0  0  0  0
M  CHG  5   6   1  10   1  14   1  19   1  29   1
M  END
>  <CHROM.1>
46.35331334,61.95191493,51.57664544,62.78318938,-176.28167939,87.37292306
172.87716938,135.00426854,-56.17604516,-61.51792005,-171.31418118,-160.02995583
-125.65709396,4.51359507,5.40576958,-2.26872387,0.30669235,-0.47873334,2.45943139

>  <Name>
1byj cryst

>  <RI>
0

>  <Rbt.Current_Directory>
/home/itssahil/PROJECTS/Mol_Feturizer/New_Systems/rnas/1byj

>  <Rbt.Executable>
rbdock ($Id: //depot/dev/client3/rdock/2013.1/src/exe/rbdock.cxx#4 $)

>  <Rbt.Library>
libRbt.so (2013.1, Build901 2013/11/27)

>  <Rbt.Parameter_File>
/export/apps/rDock/src/rDock_2013.1_src/data/scripts/dock_solv.prm

>  <Rbt.Receptor>
prm/pocket_docking_8.prm

>  <SCORE>
-40.7738

>  <SCORE.INTER>
-34.8466

>  <SCORE.INTER.CONST>
1

>  <SCORE.INTER.POLAR>
-5.17882

>  <SCORE.INTER.ROT>
6

>  <SCORE.INTER.SOLV>
18.5081

>  <SCORE.INTER.VDW>
-19.7377

>  <SCORE.INTER.norm>
-1.12409

>  <SCORE.INTRA>
-5.92711

>  <SCORE.INTRA.DIHEDRAL>
-0.275772

>  <SCORE.INTRA.DIHEDRAL.0>
18.4149

>  <SCORE.INTRA.POLAR>
-1.727

>  <SCORE.INTRA.POLAR.0>
0

>  <SCORE.INTRA.REPUL>
-0.092687

>  <SCORE.INTRA.REPUL.0>
0.092687

>  <SCORE.INTRA.SOLV>
1.80714

>  <SCORE.INTRA.SOLV.lig_0>
-120.37

>  <SCORE.INTRA.VDW>
-0.357575

>  <SCORE.INTRA.VDW.0>
-1.75542

>  <SCORE.INTRA.norm>
-0.191197

>  <SCORE.RESTR>
0

>  <SCORE.RESTR.CAVITY>
0

>  <SCORE.RESTR.norm>
0

>  <SCORE.SYSTEM>
0

>  <SCORE.SYSTEM.CONST>
0

>  <SCORE.SYSTEM.DIHEDRAL>
0

>  <SCORE.SYSTEM.SOLV>
0

>  <SCORE.SYSTEM.norm>
0

>  <SCORE.heavy>
31

>  <SCORE.norm>
-1.31528

>  <RMSD>
2.580

$$$$
1byj cryst
 OpenBabel11021811383D
libRbt.so/2013.1/901 2013/11/27
 31 33  0  0  0  0  0  0  0  0999 V2000
    7.7609    2.2080   -0.6366 C   0  0  1  0  0  0  0  0  0  0  0  0
    8.1151    3.4376   -1.3472 O   0  0  0  0  0  0  0  0  0  0  0  0
    8.3531    3.3710   -2.7851 C   0  0  2  0  0  0  0  0  0  0  0  0
    7.1205    3.0801   -3.5150 O   0  0  0  0  0  0  0  0  0  0  0  0
    9.4434    2.2958   -3.0776 C   0  0  2  0  0  0  0  0  0  0  0  0
    9.7528    2.1561   -4.5142 N   0  3  0  0  0  0  0  0  0  0  0  0
    9.0169    0.9296   -2.4814 C   0  0  0  0  0  0  0  0  0  0  0  0
    8.7371    1.0479   -0.9757 C   0  0  0  0  0  0  0  0  0  0  0  0
    7.7890    2.4681    0.8798 C   0  0  0  0  0  0  0  0  0  0  0  0
    9.0408    3.0714    1.3556 N   0  3  0  0  0  0  0  0  0  0  0  0
    7.1864    5.4638   -4.1349 C   0  0  1  0  0  0  0  0  0  0  0  0
    6.3456    6.7090   -4.5080 C   0  0  0  0  0  0  0  0  0  0  0  0
    5.2907    7.0021   -3.4075 C   0  0  1  0  0  0  0  0  0  0  0  0
    4.5498    8.2346   -3.7375 N   0  3  0  0  0  0  0  0  0  0  0  0
    4.3404    5.7821   -3.2334 C   0  0  1  0  0  0  0  0  0  0  0  0
    5.1299    4.4776   -2.9594 C   0  0  1  0  0  0  0  0  0  0  0  0
    4.1853    3.4179   -2.9893 O   0  0  0  0  0  0  0  0  0  0  0  0
    6.2892    4.1934   -3.9707 C   0  0  2  0  0  0  0  0  0  0  0  0
    8.2506    5.2548   -5.1325 N   0  3  0  0  0  0  0  0  0  0  0  0
    1.6031    4.5600   -0.1311 C   0  0  0  0  0  0  0  0  0  0  0  0
    0.5659    5.6233    0.3061 C   0  0  2  0  0  0  0  0  0  0  0  0
   -0.7175    5.1409   -0.0892 O   0  0  0  0  0  0  0  0  0  0  0  0
    0.8921    6.9944   -0.3974 C   0  0  1  0  0  0  0  0  0  0  0  0
    1.1327    6.8467   -1.9383 C   0  0  2  0  0  0  0  0  0  0  0  0
    2.0474    5.6517   -2.3087 C   0  0  1  0  0  0  0  0  0  0  0  0
    3.4449    5.9873   -2.1036 O   0  0  0  0  0  0  0  0  0  0  0  0
    1.6628    4.4527   -1.5784 O   0  0  0  0  0  0  0  0  0  0  0  0
    1.6825    8.0372   -2.4966 O   0  0  0  0  0  0  0  0  0  0  0  0
   -0.2043    7.9757   -0.1260 N   0  3  0  0  0  0  0  0  0  0  0  0
    0.1968    9.3129    0.3565 C   0  0  0  0  0  0  0  0  0  0  0  0
    0.5684    5.7108    1.8522 C   0  0  0  0  0  0  0  0  0  0  0  0
  1  8  1  0  0  0  0
  1  9  1  1  0  0  0
  1  2  1  0  0  0  0
  2  3  1  0  0  0  0
  3  5  1  0  0  0  0
  3  4  1  6  0  0  0
  5  7  1  0  0  0  0
  5  6  1  6  0  0  0
  7  8  1  0  0  0  0
  9 10  1  0  0  0  0
 11 12  1  0  0  0  0
 11 18  1  0  0  0  0
 11 19  1  6  0  0  0
 12 13  1  0  0  0  0
 13 15  1  0  0  0  0
 13 14  1  6  0  0  0
 15 16  1  0  0  0  0
 15 26  1  1  0  0  0
 16 18  1  0  0  0  0
 16 17  1  6  0  0  0
 18  4  1  1  0  0  0
 20 21  1  0  0  0  0
 20 27  1  0  0  0  0
 21 31  1  1  0  0  0
 21 23  1  0  0  0  0
 21 22  1  0  0  0  0
 23 24  1  0  0  0  0
 23 29  1  6  0  0  0
 24 25  1  0  0  0  0
 24 28  1  1  0  0  0
 25 27  1  0  0  0  0
 25 26  1  1  0  0  0
 29 30  1  0  0  0  0
M  CHG  5   6   1  10   1  14   1  19   1  29   1
M  END
>  <CHROM.1>
-52.24459430,90.26787627,25.02163110,-161.92156721,-55.65356187,145.45993213
167.35769130,135.36780412,-55.53401640,176.77862261,-108.40717738,-58.40354095
-126.53290771,4.81201717,4.89018288,-1.93351282,0.09672727,-0.51065463,2.21022380

>  <Name>
1byj cryst

>  <RI>
0

>  <Rbt.Current_Directory>
/home/itssahil/PROJECTS/Mol_Feturizer/New_Systems/rnas/1byj

>  <Rbt.Executable>
rbdock ($Id: //depot/dev/client3/rdock/2013.1/src/exe/rbdock.cxx#4 $)

>  <Rbt.Library>
libRbt.so (2013.1, Build901 2013/11/27)

>  <Rbt.Parameter_File>
/export/apps/rDock/src/rDock_2013.1_src/data/scripts/dock_solv.prm

>  <Rbt.Receptor>
prm/pocket_docking_3.prm

>  <SCORE>
-50.193

>  <SCORE.INTER>
-50.831

>  <SCORE.INTER.CONST>
1

>  <SCORE.INTER.POLAR>
-8.18057

>  <SCORE.INTER.ROT>
6

>  <SCORE.INTER.SOLV>
23.7264

>  <SCORE.INTER.VDW>
-22.1276

>  <SCORE.INTER.norm>
-1.63971

>  <SCORE.INTRA>
0.583723

>  <SCORE.INTRA.DIHEDRAL>
10.0474

>  <SCORE.INTRA.DIHEDRAL.0>
18.4149

>  <SCORE.INTRA.POLAR>
-1.82666

>  <SCORE.INTRA.POLAR.0>
0

>  <SCORE.INTRA.REPUL>
-0.092687

>  <SCORE.INTRA.REPUL.0>
0.092687

>  <SCORE.INTRA.SOLV>
4.13849

>  <SCORE.INTRA.SOLV.lig_0>
-120.37

>  <SCORE.INTRA.VDW>
0.164834

>  <SCORE.INTRA.VDW.0>
-1.75542

>  <SCORE.INTRA.norm>
0.0188298

>  <SCORE.RESTR>
0.0542321

>  <SCORE.RESTR.CAVITY>
0.0542321

>  <SCORE.RESTR.norm>
0.00174942

>  <SCORE.SYSTEM>
0

>  <SCORE.SYSTEM.CONST>
0

>  <SCORE.SYSTEM.DIHEDRAL>
0

>  <SCORE.SYSTEM.SOLV>
0

>  <SCORE.SYSTEM.norm>
0

>  <SCORE.heavy>
31

>  <SCORE.norm>
-1.61913

>  <RMSD>
2.585

$$$$
1byj cryst
 OpenBabel11021811383D
libRbt.so/2013.1/901 2013/11/27
 31 33  0  0  0  0  0  0  0  0999 V2000
    9.4044    2.0194   -3.2975 C   0  0  1  0  0  0  0  0  0  0  0  0
    8.0414    2.3058   -3.7472 O   0  0  0  0  0  0  0  0  0  0  0  0
    7.2148    3.2034   -2.9473 C   0  0  2  0  0  0  0  0  0  0  0  0
    7.7203    4.5742   -2.9936 O   0  0  0  0  0  0  0  0  0  0  0  0
    7.1547    2.6786   -1.4806 C   0  0  2  0  0  0  0  0  0  0  0  0
    6.3365    3.5267   -0.5917 N   0  3  0  0  0  0  0  0  0  0  0  0
    8.5887    2.5249   -0.9113 C   0  0  0  0  0  0  0  0  0  0  0  0
    9.4398    1.6058   -1.8004 C   0  0  0  0  0  0  0  0  0  0  0  0
    9.9962    0.8843   -4.1516 C   0  0  0  0  0  0  0  0  0  0  0  0
   10.1686    1.2346   -5.5675 N   0  3  0  0  0  0  0  0  0  0  0  0
    7.6339    6.9804   -3.5161 C   0  0  1  0  0  0  0  0  0  0  0  0
    6.8046    8.1169   -4.1621 C   0  0  0  0  0  0  0  0  0  0  0  0
    5.3870    8.1806   -3.5328 C   0  0  1  0  0  0  0  0  0  0  0  0
    4.6355    9.3157   -4.1017 N   0  3  0  0  0  0  0  0  0  0  0  0
    4.6439    6.8293   -3.7410 C   0  0  1  0  0  0  0  0  0  0  0  0
    5.4718    5.6338   -3.2068 C   0  0  1  0  0  0  0  0  0  0  0  0
    4.7837    4.4557   -3.6001 O   0  0  0  0  0  0  0  0  0  0  0  0
    6.9510    5.5875   -3.7142 C   0  0  2  0  0  0  0  0  0  0  0  0
    9.0090    6.9940   -4.0456 N   0  3  0  0  0  0  0  0  0  0  0  0
    1.9823    8.8080   -1.1676 C   0  0  0  0  0  0  0  0  0  0  0  0
    0.9133    7.9812   -0.4119 C   0  0  2  0  0  0  0  0  0  0  0  0
    1.2356    8.0527    0.9763 O   0  0  0  0  0  0  0  0  0  0  0  0
    0.9469    6.4908   -0.9206 C   0  0  1  0  0  0  0  0  0  0  0  0
    2.3941    5.8921   -0.9580 C   0  0  2  0  0  0  0  0  0  0  0  0
    3.4432    6.8509   -1.5759 C   0  0  1  0  0  0  0  0  0  0  0  0
    3.3754    6.8266   -3.0259 O   0  0  0  0  0  0  0  0  0  0  0  0
    3.2955    8.1989   -1.0467 O   0  0  0  0  0  0  0  0  0  0  0  0
    2.4284    4.6552   -1.6653 O   0  0  0  0  0  0  0  0  0  0  0  0
    0.0482    5.6466   -0.0732 N   0  3  0  0  0  0  0  0  0  0  0  0
   -0.4636    4.3986   -0.6751 C   0  0  0  0  0  0  0  0  0  0  0  0
   -0.4642    8.6632   -0.6002 C   0  0  0  0  0  0  0  0  0  0  0  0
  1  8  1  0  0  0  0
  1  9  1  6  0  0  0
  1  2  1  0  0  0  0
  2  3  1  0  0  0  0
  3  5  1  0  0  0  0
  3  4  1  1  0  0  0
  5  7  1  0  0  0  0
  5  6  1  1  0  0  0
  7  8  1  0  0  0  0
  9 10  1  0  0  0  0
 11 12  1  0  0  0  0
 11 18  1  0  0  0  0
 11 19  1  6  0  0  0
 12 13  1  0  0  0  0
 13 15  1  0  0  0  0
 13 14  1  6  0  0  0
 15 16  1  0  0  0  0
 15 26  1  1  0  0  0
 16 18  1  0  0  0  0
 16 17  1  6  0  0  0
 18  4  1  1  0  0  0
 20 21  1  0  0  0  0
 20 27  1  0  0  0  0
 21 31  1  6  0  0  0
 21 23  1  0  0  0  0
 21 22  1  0  0  0  0
 23 24  1  0  0  0  0
 23 29  1  1  0  0  0
 24 25  1  0  0  0  0
 24 28  1  6  0  0  0
 25 27  1  0  0  0  0
 25 26  1  6  0  0  0
 29 30  1  0  0  0  0
M  CHG  5   6   1  10   1  14   1  19   1  29   1
M  END
>  <CHROM.1>
64.77116006,109.96977082,175.33995848,-62.15473384,-46.15064798,-61.36269967
-176.38885365,-66.84409338,-76.62934661,-62.77609576,-82.22638893,54.10821131
-138.64199395,5.10164089,5.45298306,-2.33672978,0.38242380,-0.48144042,2.80348205

>  <Name>
1byj cryst

>  <RI>
0

>  <Rbt.Current_Directory>
/home/itssahil/PROJECTS/Mol_Feturizer/New_Systems/rnas/1byj

>  <Rbt.Executable>
rbdock ($Id: //depot/dev/client3/rdock/2013.1/src/exe/rbdock.cxx#4 $)

>  <Rbt.Library>
libRbt.so (2013.1, Build901 2013/11/27)

>  <Rbt.Parameter_File>
/export/apps/rDock/src/rDock_2013.1_src/data/scripts/dock_solv.prm

>  <Rbt.Receptor>
prm/pocket_docking_6.prm

>  <SCORE>
-58.938

>  <SCORE.INTER>
-53.2557

>  <SCORE.INTER.CONST>
1

>  <SCORE.INTER.POLAR>
-8.37003

>  <SCORE.INTER.ROT>
6

>  <SCORE.INTER.SOLV>
25.1377

>  <SCORE.INTER.VDW>
-23.583

>  <SCORE.INTER.norm>
-1.71793

>  <SCORE.INTRA>
-5.68221

>  <SCORE.INTRA.DIHEDRAL>
-2.27503

>  <SCORE.INTRA.DIHEDRAL.0>
18.4149

>  <SCORE.INTRA.POLAR>
-0.672137

>  <SCORE.INTRA.POLAR.0>
0

>  <SCORE.INTRA.REPUL>
-0.092687

>  <SCORE.INTRA.REPUL.0>
0.092687

>  <SCORE.INTRA.SOLV>
-0.794097

>  <SCORE.INTRA.SOLV.lig_0>
-120.37

>  <SCORE.INTRA.VDW>
-1.39895

>  <SCORE.INTRA.VDW.0>
-1.75542

>  <SCORE.INTRA.norm>
-0.183297

>  <SCORE.RESTR>
0

>  <SCORE.RESTR.CAVITY>
0

>  <SCORE.RESTR.norm>
0

>  <SCORE.SYSTEM>
0

>  <SCORE.SYSTEM.CONST>
0

>  <SCORE.SYSTEM.DIHEDRAL>
0

>  <SCORE.SYSTEM.SOLV>
0

>  <SCORE.SYSTEM.norm>
0

>  <SCORE.heavy>
31

>  <SCORE.norm>
-1.90122

>  <RMSD>
2.589

$$$$
1byj cryst
 OpenBabel11021811383D
libRbt.so/2013.1/901 2013/11/27
 31 33  0  0  0  0  0  0  0  0999 V2000
    7.5394    2.1251   -0.8887 C   0  0  1  0  0  0  0  0  0  0  0  0
    8.0198    3.3604   -1.5094 O   0  0  0  0  0  0  0  0  0  0  0  0
    8.3075    3.3589   -2.9397 C   0  0  2  0  0  0  0  0  0  0  0  0
    7.0847    3.2154   -3.7278 O   0  0  0  0  0  0  0  0  0  0  0  0
    9.3174    2.2156   -3.2610 C   0  0  2  0  0  0  0  0  0  0  0  0
    9.6702    2.1353   -4.6921 N   0  3  0  0  0  0  0  0  0  0  0  0
    8.7584    0.8570   -2.7652 C   0  0  0  0  0  0  0  0  0  0  0  0
    8.4306    0.9094   -1.2655 C   0  0  0  0  0  0  0  0  0  0  0  0
    7.5294    2.2922    0.6410 C   0  0  0  0  0  0  0  0  0  0  0  0
    8.8034    2.7699    1.1944 N   0  3  0  0  0  0  0  0  0  0  0  0
    7.4493    5.5797   -4.3177 C   0  0  1  0  0  0  0  0  0  0  0  0
    6.7731    6.9151   -4.7126 C   0  0  0  0  0  0  0  0  0  0  0  0
    5.7113    7.3203   -3.6552 C   0  0  1  0  0  0  0  0  0  0  0  0
    5.1310    8.6315   -4.0029 N   0  3  0  0  0  0  0  0  0  0  0  0
    4.6213    6.2160   -3.5356 C   0  0  1  0  0  0  0  0  0  0  0  0
    5.2441    4.8280   -3.2426 C   0  0  1  0  0  0  0  0  0  0  0  0
    4.1870    3.8836   -3.3247 O   0  0  0  0  0  0  0  0  0  0  0  0
    6.4067    4.4193   -4.2062 C   0  0  2  0  0  0  0  0  0  0  0  0
    8.5254    5.2564   -5.2710 N   0  3  0  0  0  0  0  0  0  0  0  0
    0.9069    5.3417   -2.7678 C   0  0  0  0  0  0  0  0  0  0  0  0
    0.0837    5.9086   -1.5852 C   0  0  2  0  0  0  0  0  0  0  0  0
   -0.9828    6.6718   -2.1477 O   0  0  0  0  0  0  0  0  0  0  0  0
    1.0096    6.8132   -0.6876 C   0  0  1  0  0  0  0  0  0  0  0  0
    1.8407    7.8487   -1.5190 C   0  0  2  0  0  0  0  0  0  0  0  0
    2.4961    7.2405   -2.7849 C   0  0  1  0  0  0  0  0  0  0  0  0
    3.7064    6.5153   -2.4430 O   0  0  0  0  0  0  0  0  0  0  0  0
    1.5508    6.4082   -3.5147 O   0  0  0  0  0  0  0  0  0  0  0  0
    2.8538    8.4613   -0.7256 O   0  0  0  0  0  0  0  0  0  0  0  0
    0.1855    7.5087    0.3494 N   0  3  0  0  0  0  0  0  0  0  0  0
    0.8974    8.0265    1.5355 C   0  0  0  0  0  0  0  0  0  0  0  0
   -0.5533    4.7265   -0.8139 C   0  0  0  0  0  0  0  0  0  0  0  0
  1  8  1  0  0  0  0
  1  9  1  1  0  0  0
  1  2  1  0  0  0  0
  2  3  1  0  0  0  0
  3  5  1  0  0  0  0
  3  4  1  6  0  0  0
  5  7  1  0  0  0  0
  5  6  1  6  0  0  0
  7  8  1  0  0  0  0
  9 10  1  0  0  0  0
 11 12  1  0  0  0  0
 11 18  1  0  0  0  0
 11 19  1  6  0  0  0
 12 13  1  0  0  0  0
 13 15  1  0  0  0  0
 13 14  1  6  0  0  0
 15 16  1  0  0  0  0
 15 26  1  1  0  0  0
 16 18  1  0  0  0  0
 16 17  1  6  0  0  0
 18  4  1  1  0  0  0
 20 21  1  0  0  0  0
 20 27  1  0  0  0  0
 21 31  1  1  0  0  0
 21 23  1  0  0  0  0
 21 22  1  0  0  0  0
 23 24  1  0  0  0  0
 23 29  1  1  0  0  0
 24 25  1  0  0  0  0
 24 28  1  1  0  0  0
 25 27  1  0  0  0  0
 25 26  1  1  0  0  0
 29 30  1  0  0  0  0
M  CHG  5   6   1  10   1  14   1  19   1  29   1
M  END
>  <CHROM.1>
-51.79174381,93.70580973,25.16589506,73.30866316,-58.54833625,141.09676156
-174.84878490,93.64184497,179.58778447,-62.30751088,-78.78385883,63.34385864
-163.21863395,4.88720247,5.10843524,-2.33804930,0.16946417,-0.50512843,2.22581773

>  <Name>
1byj cryst

>  <RI>
0

>  <Rbt.Current_Directory>
/home/itssahil/PROJECTS/Mol_Feturizer/New_Systems/rnas/1byj

>  <Rbt.Executable>
rbdock ($Id: //depot/dev/client3/rdock/2013.1/src/exe/rbdock.cxx#4 $)

>  <Rbt.Library>
libRbt.so (2013.1, Build901 2013/11/27)

>  <Rbt.Parameter_File>
/export/apps/rDock/src/rDock_2013.1_src/data/scripts/dock_solv.prm

>  <Rbt.Receptor>
prm/pocket_docking_5.prm

>  <SCORE>
-50.7235

>  <SCORE.INTER>
-51.7239

>  <SCORE.INTER.CONST>
1

>  <SCORE.INTER.POLAR>
-7.84681

>  <SCORE.INTER.ROT>
6

>  <SCORE.INTER.SOLV>
23.9912

>  <SCORE.INTER.VDW>
-23.9237

>  <SCORE.INTER.norm>
-1.66851

>  <SCORE.INTRA>
1.00048

>  <SCORE.INTRA.DIHEDRAL>
0.551702

>  <SCORE.INTRA.DIHEDRAL.0>
18.4149

>  <SCORE.INTRA.POLAR>
-0.00186146

>  <SCORE.INTRA.POLAR.0>
0

>  <SCORE.INTRA.REPUL>
-0.092687

>  <SCORE.INTRA.REPUL.0>
0.092687

>  <SCORE.INTRA.SOLV>
3.15769

>  <SCORE.INTRA.SOLV.lig_0>
-120.37

>  <SCORE.INTRA.VDW>
-0.384449

>  <SCORE.INTRA.VDW.0>
-1.75542

>  <SCORE.INTRA.norm>
0.0322737

>  <SCORE.RESTR>
0

>  <SCORE.RESTR.CAVITY>
0

>  <SCORE.RESTR.norm>
0

>  <SCORE.SYSTEM>
0

>  <SCORE.SYSTEM.CONST>
0

>  <SCORE.SYSTEM.DIHEDRAL>
0

>  <SCORE.SYSTEM.SOLV>
0

>  <SCORE.SYSTEM.norm>
0

>  <SCORE.heavy>
31

>  <SCORE.norm>
-1.63624

>  <RMSD>
2.597

$$$$
1byj cryst
 OpenBabel11021811383D
libRbt.so/2013.1/901 2013/11/27
 31 33  0  0  0  0  0  0  0  0999 V2000
    7.4772    2.1691   -0.8372 C   0  0  1  0  0  0  0  0  0  0  0  0
    7.9706    3.3949   -1.4665 O   0  0  0  0  0  0  0  0  0  0  0  0
    8.3091    3.3657   -2.8854 C   0  0  2  0  0  0  0  0  0  0  0  0
    7.1162    3.1961   -3.7131 O   0  0  0  0  0  0  0  0  0  0  0  0
    9.3379    2.2238   -3.1463 C   0  0  2  0  0  0  0  0  0  0  0  0
    9.7420    2.1163   -4.5620 N   0  3  0  0  0  0  0  0  0  0  0  0
    8.7711    0.8715   -2.6420 C   0  0  0  0  0  0  0  0  0  0  0  0
    8.3898    0.9529   -1.1562 C   0  0  0  0  0  0  0  0  0  0  0  0
    7.4116    2.3682    0.6873 C   0  0  0  0  0  0  0  0  0  0  0  0
    6.8077    1.2398    1.4080 N   0  3  0  0  0  0  0  0  0  0  0  0
    7.4376    5.5790   -4.2507 C   0  0  1  0  0  0  0  0  0  0  0  0
    6.7424    6.8985   -4.6656 C   0  0  0  0  0  0  0  0  0  0  0  0
    5.6107    7.2547   -3.6646 C   0  0  1  0  0  0  0  0  0  0  0  0
    5.0093    8.5523   -4.0273 N   0  3  0  0  0  0  0  0  0  0  0  0
    4.5515    6.1155   -3.6210 C   0  0  1  0  0  0  0  0  0  0  0  0
    5.2008    4.7434   -3.3114 C   0  0  1  0  0  0  0  0  0  0  0  0
    4.1807    3.7678   -3.4653 O   0  0  0  0  0  0  0  0  0  0  0  0
    6.4279    4.3852   -4.2133 C   0  0  2  0  0  0  0  0  0  0  0  0
    8.5751    5.3035   -5.1460 N   0  3  0  0  0  0  0  0  0  0  0  0
    2.0791    4.5857   -0.5981 C   0  0  0  0  0  0  0  0  0  0  0  0
    0.8704    5.4251   -0.1164 C   0  0  2  0  0  0  0  0  0  0  0  0
   -0.3078    4.7147   -0.4948 O   0  0  0  0  0  0  0  0  0  0  0  0
    0.9135    6.8450   -0.7971 C   0  0  1  0  0  0  0  0  0  0  0  0
    1.1395    6.7720   -2.3455 C   0  0  2  0  0  0  0  0  0  0  0  0
    2.2545    5.7789   -2.7607 C   0  0  1  0  0  0  0  0  0  0  0  0
    3.5678    6.3700   -2.5779 O   0  0  0  0  0  0  0  0  0  0  0  0
    2.1221    4.5163   -2.0483 O   0  0  0  0  0  0  0  0  0  0  0  0
    1.4399    8.0545   -2.8895 O   0  0  0  0  0  0  0  0  0  0  0  0
   -0.3417    7.5955   -0.4816 N   0  3  0  0  0  0  0  0  0  0  0  0
   -0.2062    9.0377   -0.1925 C   0  0  0  0  0  0  0  0  0  0  0  0
    0.8946    5.4851    1.4309 C   0  0  0  0  0  0  0  0  0  0  0  0
  1  8  1  0  0  0  0
  1  9  1  1  0  0  0
  1  2  1  0  0  0  0
  2  3  1  0  0  0  0
  3  5  1  0  0  0  0
  3  4  1  6  0  0  0
  5  7  1  0  0  0  0
  5  6  1  6  0  0  0
  7  8  1  0  0  0  0
  9 10  1  0  0  0  0
 11 12  1  0  0  0  0
 11 18  1  0  0  0  0
 11 19  1  6  0  0  0
 12 13  1  0  0  0  0
 13 15  1  0  0  0  0
 13 14  1  6  0  0  0
 15 16  1  0  0  0  0
 15 26  1  1  0  0  0
 16 18  1  0  0  0  0
 16 17  1  6  0  0  0
 18  4  1  1  0  0  0
 20 21  1  0  0  0  0
 20 27  1  0  0  0  0
 21 31  1  1  0  0  0
 21 23  1  0  0  0  0
 21 22  1  0  0  0  0
 23 24  1  0  0  0  0
 23 29  1  6  0  0  0
 24 25  1  0  0  0  0
 24 28  1  1  0  0  0
 25 27  1  0  0  0  0
 25 26  1  1  0  0  0
 29 30  1  0  0  0  0
M  CHG  5   6   1  10   1  14   1  19   1  29   1
M  END
>  <CHROM.1>
174.50990196,92.20586723,23.52411222,-163.48834077,69.40918793,134.27906250
-55.81620705,154.09638469,-179.23760353,-58.83482959,-98.69684762,178.71517111
-138.98313091,4.80240065,4.83164522,-2.21910421,0.19969005,-0.49588650,2.36644137

>  <Name>
1byj cryst

>  <RI>
0

>  <Rbt.Current_Directory>
/home/itssahil/PROJECTS/Mol_Feturizer/New_Systems/rnas/1byj

>  <Rbt.Executable>
rbdock ($Id: //depot/dev/client3/rdock/2013.1/src/exe/rbdock.cxx#4 $)

>  <Rbt.Library>
libRbt.so (2013.1, Build901 2013/11/27)

>  <Rbt.Parameter_File>
/export/apps/rDock/src/rDock_2013.1_src/data/scripts/dock_solv.prm

>  <Rbt.Receptor>
prm/pocket_docking_3.prm

>  <SCORE>
-51.6321

>  <SCORE.INTER>
-55.4504

>  <SCORE.INTER.CONST>
1

>  <SCORE.INTER.POLAR>
-8.78311

>  <SCORE.INTER.ROT>
6

>  <SCORE.INTER.SOLV>
25.5873

>  <SCORE.INTER.VDW>
-23.819

>  <SCORE.INTER.norm>
-1.78872

>  <SCORE.INTRA>
3.7548

>  <SCORE.INTRA.DIHEDRAL>
5.79548

>  <SCORE.INTRA.DIHEDRAL.0>
18.4149

>  <SCORE.INTRA.POLAR>
0

>  <SCORE.INTRA.POLAR.0>
0

>  <SCORE.INTRA.REPUL>
-0.092687

>  <SCORE.INTRA.REPUL.0>
0.092687

>  <SCORE.INTRA.SOLV>
1.56264

>  <SCORE.INTRA.SOLV.lig_0>
-120.37

>  <SCORE.INTRA.VDW>
0.53918

>  <SCORE.INTRA.VDW.0>
-1.75542

>  <SCORE.INTRA.norm>
0.121123

>  <SCORE.RESTR>
0.0635861

>  <SCORE.RESTR.CAVITY>
0.0635861

>  <SCORE.RESTR.norm>
0.00205116

>  <SCORE.SYSTEM>
0

>  <SCORE.SYSTEM.CONST>
0

>  <SCORE.SYSTEM.DIHEDRAL>
0

>  <SCORE.SYSTEM.SOLV>
0

>  <SCORE.SYSTEM.norm>
0

>  <SCORE.heavy>
31

>  <SCORE.norm>
-1.66555

>  <RMSD>
2.606

$$$$
1byj cryst
 OpenBabel11021811383D
libRbt.so/2013.1/901 2013/11/27
 31 33  0  0  0  0  0  0  0  0999 V2000
    6.1648    2.6508   -0.3152 C   0  0  1  0  0  0  0  0  0  0  0  0
    6.9900    3.7042   -0.9080 O   0  0  0  0  0  0  0  0  0  0  0  0
    7.8210    3.3763   -2.0615 C   0  0  2  0  0  0  0  0  0  0  0  0
    7.0052    3.0904   -3.2403 O   0  0  0  0  0  0  0  0  0  0  0  0
    8.7377    2.1657   -1.7087 C   0  0  2  0  0  0  0  0  0  0  0  0
    9.6192    1.7592   -2.8208 N   0  3  0  0  0  0  0  0  0  0  0  0
    7.8765    0.9662   -1.2357 C   0  0  0  0  0  0  0  0  0  0  0  0
    6.9872    1.3603   -0.0469 C   0  0  0  0  0  0  0  0  0  0  0  0
    5.5660    3.1555    1.0095 C   0  0  0  0  0  0  0  0  0  0  0  0
    6.5620    3.6978    1.9428 N   0  3  0  0  0  0  0  0  0  0  0  0
    7.1045    5.4129   -4.0567 C   0  0  1  0  0  0  0  0  0  0  0  0
    6.2833    6.6239   -4.5625 C   0  0  0  0  0  0  0  0  0  0  0  0
    5.1928    7.0114   -3.5278 C   0  0  1  0  0  0  0  0  0  0  0  0
    4.4700    8.2132   -3.9862 N   0  3  0  0  0  0  0  0  0  0  0  0
    4.2309    5.8126   -3.2842 C   0  0  1  0  0  0  0  0  0  0  0  0
    5.0039    4.5342   -2.8739 C   0  0  1  0  0  0  0  0  0  0  0  0
    4.0555    3.4779   -2.8467 O   0  0  0  0  0  0  0  0  0  0  0  0
    6.1957    4.1629   -3.8168 C   0  0  2  0  0  0  0  0  0  0  0  0
    8.2011    5.1179   -4.9958 N   0  3  0  0  0  0  0  0  0  0  0  0
    1.8781    4.7274    0.1117 C   0  0  0  0  0  0  0  0  0  0  0  0
    0.6367    5.6015    0.4156 C   0  0  2  0  0  0  0  0  0  0  0  0
   -0.5122    4.7826    0.2020 O   0  0  0  0  0  0  0  0  0  0  0  0
    0.6249    6.8483   -0.5470 C   0  0  1  0  0  0  0  0  0  0  0  0
    0.8557    6.4620   -2.0475 C   0  0  2  0  0  0  0  0  0  0  0  0
    2.0095    5.4479   -2.2536 C   0  0  1  0  0  0  0  0  0  0  0  0
    3.2983    6.1146   -2.2074 O   0  0  0  0  0  0  0  0  0  0  0  0
    1.9259    4.3581   -1.2923 O   0  0  0  0  0  0  0  0  0  0  0  0
    1.1063    7.6131   -2.8496 O   0  0  0  0  0  0  0  0  0  0  0  0
   -0.6593    7.5990   -0.3868 N   0  3  0  0  0  0  0  0  0  0  0  0
   -0.5755    9.0735   -0.3610 C   0  0  0  0  0  0  0  0  0  0  0  0
    0.6563    5.9846    1.9160 C   0  0  0  0  0  0  0  0  0  0  0  0
  1  8  1  0  0  0  0
  1  9  1  1  0  0  0
  1  2  1  0  0  0  0
  2  3  1  0  0  0  0
  3  5  1  0  0  0  0
  3  4  1  6  0  0  0
  5  7  1  0  0  0  0
  5  6  1  6  0  0  0
  7  8  1  0  0  0  0
  9 10  1  0  0  0  0
 11 12  1  0  0  0  0
 11 18  1  0  0  0  0
 11 19  1  6  0  0  0
 12 13  1  0  0  0  0
 13 15  1  0  0  0  0
 13 14  1  6  0  0  0
 15 16  1  0  0  0  0
 15 26  1  1  0  0  0
 16 18  1  0  0  0  0
 16 17  1  6  0  0  0
 18  4  1  1  0  0  0
 20 21  1  0  0  0  0
 20 27  1  0  0  0  0
 21 31  1  1  0  0  0
 21 23  1  0  0  0  0
 21 22  1  0  0  0  0
 23 24  1  0  0  0  0
 23 29  1  6  0  0  0
 24 25  1  0  0  0  0
 24 28  1  6  0  0  0
 25 27  1  0  0  0  0
 25 26  1  1  0  0  0
 29 30  1  0  0  0  0
M  CHG  5   6   1  10   1  14   1  19   1  29   1
M  END
>  <CHROM.1>
-52.52382025,65.02815557,51.61118069,54.99388538,-177.87712499,156.83630955
-68.61271701,152.15824672,66.34618789,-62.65858404,-100.68683462,-66.24088575
-131.27764532,4.35322616,4.88258409,-1.70611795,0.12730336,-0.49218761,2.23190049

>  <Name>
1byj cryst

>  <RI>
0

>  <Rbt.Current_Directory>
/home/itssahil/PROJECTS/Mol_Feturizer/New_Systems/rnas/1byj

>  <Rbt.Executable>
rbdock ($Id: //depot/dev/client3/rdock/2013.1/src/exe/rbdock.cxx#4 $)

>  <Rbt.Library>
libRbt.so (2013.1, Build901 2013/11/27)

>  <Rbt.Parameter_File>
/export/apps/rDock/src/rDock_2013.1_src/data/scripts/dock_solv.prm

>  <Rbt.Receptor>
prm/pocket_docking_3.prm

>  <SCORE>
-36.9262

>  <SCORE.INTER>
-32.7399

>  <SCORE.INTER.CONST>
1

>  <SCORE.INTER.POLAR>
-5.27043

>  <SCORE.INTER.ROT>
6

>  <SCORE.INTER.SOLV>
18.9098

>  <SCORE.INTER.VDW>
-18.1618

>  <SCORE.INTER.norm>
-1.05613

>  <SCORE.INTRA>
-4.2422

>  <SCORE.INTRA.DIHEDRAL>
-3.11171

>  <SCORE.INTRA.DIHEDRAL.0>
18.4149

>  <SCORE.INTRA.POLAR>
0

>  <SCORE.INTRA.POLAR.0>
0

>  <SCORE.INTRA.REPUL>
-0.092687

>  <SCORE.INTRA.REPUL.0>
0.092687

>  <SCORE.INTRA.SOLV>
-0.319117

>  <SCORE.INTRA.SOLV.lig_0>
-120.37

>  <SCORE.INTRA.VDW>
-2.06335

>  <SCORE.INTRA.VDW.0>
-1.75542

>  <SCORE.INTRA.norm>
-0.136845

>  <SCORE.RESTR>
0.0559833

>  <SCORE.RESTR.CAVITY>
0.0559833

>  <SCORE.RESTR.norm>
0.00180591

>  <SCORE.SYSTEM>
0

>  <SCORE.SYSTEM.CONST>
0

>  <SCORE.SYSTEM.DIHEDRAL>
0

>  <SCORE.SYSTEM.SOLV>
0

>  <SCORE.SYSTEM.norm>
0

>  <SCORE.heavy>
31

>  <SCORE.norm>
-1.19117

>  <RMSD>
2.609

$$$$
1byj cryst
 OpenBabel11021811383D
libRbt.so/2013.1/901 2013/11/27
 31 33  0  0  0  0  0  0  0  0999 V2000
    9.7623    1.4660   -3.1553 C   0  0  1  0  0  0  0  0  0  0  0  0
    8.3006    1.3943   -3.1728 O   0  0  0  0  0  0  0  0  0  0  0  0
    7.5581    1.9763   -2.0598 C   0  0  2  0  0  0  0  0  0  0  0  0
    7.6750    3.4333   -2.0468 O   0  0  0  0  0  0  0  0  0  0  0  0
    8.0702    1.3620   -0.7216 C   0  0  2  0  0  0  0  0  0  0  0  0
    7.3741    1.8931    0.4669 N   0  3  0  0  0  0  0  0  0  0  0  0
    9.6006    1.5729   -0.5906 C   0  0  0  0  0  0  0  0  0  0  0  0
   10.3443    0.9828   -1.7982 C   0  0  0  0  0  0  0  0  0  0  0  0
   10.3302    0.5951   -4.2898 C   0  0  0  0  0  0  0  0  0  0  0  0
   10.1696    1.1825   -5.6264 N   0  3  0  0  0  0  0  0  0  0  0  0
    7.3961    5.6542   -3.0765 C   0  0  1  0  0  0  0  0  0  0  0  0
    6.4520    6.5756   -3.8865 C   0  0  0  0  0  0  0  0  0  0  0  0
    5.0800    6.7103   -3.1729 C   0  0  1  0  0  0  0  0  0  0  0  0
    4.2186    7.6515   -3.9139 N   0  3  0  0  0  0  0  0  0  0  0  0
    4.4139    5.3125   -3.0175 C   0  0  1  0  0  0  0  0  0  0  0  0
    5.3529    4.3085   -2.3031 C   0  0  1  0  0  0  0  0  0  0  0  0
    4.7176    3.0404   -2.3703 O   0  0  0  0  0  0  0  0  0  0  0  0
    6.7934    4.2210   -2.9071 C   0  0  2  0  0  0  0  0  0  0  0  0
    8.7276    5.6150   -3.7067 N   0  3  0  0  0  0  0  0  0  0  0  0
    2.3513    4.1287    0.4200 C   0  0  0  0  0  0  0  0  0  0  0  0
    0.8124    4.2892    0.4783 C   0  0  2  0  0  0  0  0  0  0  0  0
    0.2577    2.9752    0.5234 O   0  0  0  0  0  0  0  0  0  0  0  0
    0.3172    5.0645   -0.8004 C   0  0  1  0  0  0  0  0  0  0  0  0
    0.9086    4.4863   -2.1308 C   0  0  2  0  0  0  0  0  0  0  0  0
    2.4280    4.1908   -2.0541 C   0  0  1  0  0  0  0  0  0  0  0  0
    3.2006    5.4090   -2.2180 O   0  0  0  0  0  0  0  0  0  0  0  0
    2.7640    3.4953   -0.8203 O   0  0  0  0  0  0  0  0  0  0  0  0
    0.6644    5.3577   -3.2319 O   0  0  0  0  0  0  0  0  0  0  0  0
   -1.1783    5.0654   -0.8440 N   0  3  0  0  0  0  0  0  0  0  0  0
   -1.8169    5.8237   -1.9389 C   0  0  0  0  0  0  0  0  0  0  0  0
    0.4379    4.9926    1.8061 C   0  0  0  0  0  0  0  0  0  0  0  0
  1  8  1  0  0  0  0
  1  9  1  6  0  0  0
  1  2  1  0  0  0  0
  2  3  1  0  0  0  0
  3  5  1  0  0  0  0
  3  4  1  1  0  0  0
  5  7  1  0  0  0  0
  5  6  1  1  0  0  0
  7  8  1  0  0  0  0
  9 10  1  0  0  0  0
 11 12  1  0  0  0  0
 11 18  1  0  0  0  0
 11 19  1  6  0  0  0
 12 13  1  0  0  0  0
 13 15  1  0  0  0  0
 13 14  1  6  0  0  0
 15 16  1  0  0  0  0
 15 26  1  1  0  0  0
 16 18  1  0  0  0  0
 16 17  1  6  0  0  0
 18  4  1  1  0  0  0
 20 21  1  0  0  0  0
 20 27  1  0  0  0  0
 21 31  1  1  0  0  0
 21 23  1  0  0  0  0
 21 22  1  0  0  0  0
 23 24  1  0  0  0  0
 23 29  1  6  0  0  0
 24 25  1  0  0  0  0
 24 28  1  6  0  0  0
 25 27  1  0  0  0  0
 25 26  1  1  0  0  0
 29 30  1  0  0  0  0
M  CHG  5   6   1  10   1  14   1  19   1  29   1
M  END
>  <CHROM.1>
74.21221201,82.75116930,-161.73584545,-56.19160808,74.83500983,-65.65149522
30.34906121,176.51083701,65.30849469,59.98414668,-62.56774636,55.59135204
-140.29946300,4.92837975,3.88191704,-2.02181937,0.08032881,-0.37205766,2.39788192

>  <Name>
1byj cryst

>  <RI>
0

>  <Rbt.Current_Directory>
/home/itssahil/PROJECTS/Mol_Feturizer/New_Systems/rnas/1byj

>  <Rbt.Executable>
rbdock ($Id: //depot/dev/client3/rdock/2013.1/src/exe/rbdock.cxx#4 $)

>  <Rbt.Library>
libRbt.so (2013.1, Build901 2013/11/27)

>  <Rbt.Parameter_File>
/export/apps/rDock/src/rDock_2013.1_src/data/scripts/dock_solv.prm

>  <Rbt.Receptor>
prm/pocket_docking_4.prm

>  <SCORE>
-48.6914

>  <SCORE.INTER>
-45.7751

>  <SCORE.INTER.CONST>
1

>  <SCORE.INTER.POLAR>
-5.74966

>  <SCORE.INTER.ROT>
6

>  <SCORE.INTER.SOLV>
27.3762

>  <SCORE.INTER.VDW>
-28.0766

>  <SCORE.INTER.norm>
-1.47662

>  <SCORE.INTRA>
-2.91627

>  <SCORE.INTRA.DIHEDRAL>
-5.55718

>  <SCORE.INTRA.DIHEDRAL.0>
18.4149

>  <SCORE.INTRA.POLAR>
0

>  <SCORE.INTRA.POLAR.0>
0

>  <SCORE.INTRA.REPUL>
-0.0473394

>  <SCORE.INTRA.REPUL.0>
0.092687

>  <SCORE.INTRA.SOLV>
-4.31435

>  <SCORE.INTRA.SOLV.lig_0>
-120.37

>  <SCORE.INTRA.VDW>
2.2562

>  <SCORE.INTRA.VDW.0>
-1.75542

>  <SCORE.INTRA.norm>
-0.0940732

>  <SCORE.RESTR>
0

>  <SCORE.RESTR.CAVITY>
0

>  <SCORE.RESTR.norm>
0

>  <SCORE.SYSTEM>
0

>  <SCORE.SYSTEM.CONST>
0

>  <SCORE.SYSTEM.DIHEDRAL>
0

>  <SCORE.SYSTEM.SOLV>
0

>  <SCORE.SYSTEM.norm>
0

>  <SCORE.heavy>
31

>  <SCORE.norm>
-1.57069

>  <RMSD>
2.615

$$$$
1byj cryst
 OpenBabel11021811383D
libRbt.so/2013.1/901 2013/11/27
 31 33  0  0  0  0  0  0  0  0999 V2000
    5.2162    3.0745   -0.4810 C   0  0  1  0  0  0  0  0  0  0  0  0
    6.2508    3.9922   -0.9601 O   0  0  0  0  0  0  0  0  0  0  0  0
    7.1674    3.5328   -1.9981 C   0  0  2  0  0  0  0  0  0  0  0  0
    6.4764    3.3460   -3.2727 O   0  0  0  0  0  0  0  0  0  0  0  0
    7.8512    2.2111   -1.5336 C   0  0  2  0  0  0  0  0  0  0  0  0
    8.8011    1.6675   -2.5242 N   0  3  0  0  0  0  0  0  0  0  0  0
    6.7760    1.1521   -1.1783 C   0  0  0  0  0  0  0  0  0  0  0  0
    5.8070    1.6856   -0.1125 C   0  0  0  0  0  0  0  0  0  0  0  0
    4.5306    3.6790    0.7571 C   0  0  0  0  0  0  0  0  0  0  0  0
    3.7756    4.9073    0.4772 N   0  3  0  0  0  0  0  0  0  0  0  0
    7.0343    5.6192   -4.0420 C   0  0  1  0  0  0  0  0  0  0  0  0
    6.4845    6.9286   -4.6582 C   0  0  0  0  0  0  0  0  0  0  0  0
    5.3136    7.4822   -3.8025 C   0  0  1  0  0  0  0  0  0  0  0  0
    4.8511    8.7691   -4.3566 N   0  3  0  0  0  0  0  0  0  0  0  0
    4.1633    6.4372   -3.7229 C   0  0  1  0  0  0  0  0  0  0  0  0
    4.6711    5.0667   -3.2091 C   0  0  1  0  0  0  0  0  0  0  0  0
    3.5882    4.1577   -3.3398 O   0  0  0  0  0  0  0  0  0  0  0  0
    5.9291    4.5158   -3.9583 C   0  0  2  0  0  0  0  0  0  0  0  0
    8.2097    5.1575   -4.8015 N   0  3  0  0  0  0  0  0  0  0  0  0
    0.6844    5.0922   -2.4293 C   0  0  0  0  0  0  0  0  0  0  0  0
   -0.3041    5.9181   -1.5700 C   0  0  2  0  0  0  0  0  0  0  0  0
   -1.4850    6.0981   -2.3504 O   0  0  0  0  0  0  0  0  0  0  0  0
    0.3479    7.3058   -1.2089 C   0  0  1  0  0  0  0  0  0  0  0  0
    0.9656    8.0310   -2.4526 C   0  0  2  0  0  0  0  0  0  0  0  0
    1.8042    7.0951   -3.3596 C   0  0  1  0  0  0  0  0  0  0  0  0
    3.1278    6.8841   -2.8016 O   0  0  0  0  0  0  0  0  0  0  0  0
    1.1087    5.8393   -3.6005 O   0  0  0  0  0  0  0  0  0  0  0  0
    1.7734    9.1384   -2.0623 O   0  0  0  0  0  0  0  0  0  0  0  0
   -0.6630    8.1800   -0.5364 N   0  3  0  0  0  0  0  0  0  0  0  0
   -0.1505    9.3507    0.2044 C   0  0  0  0  0  0  0  0  0  0  0  0
   -0.6969    5.0824   -0.3268 C   0  0  0  0  0  0  0  0  0  0  0  0
  1  8  1  0  0  0  0
  1  9  1  1  0  0  0
  1  2  1  0  0  0  0
  2  3  1  0  0  0  0
  3  5  1  0  0  0  0
  3  4  1  6  0  0  0
  5  7  1  0  0  0  0
  5  6  1  6  0  0  0
  7  8  1  0  0  0  0
  9 10  1  0  0  0  0
 11 12  1  0  0  0  0
 11 18  1  0  0  0  0
 11 19  1  6  0  0  0
 12 13  1  0  0  0  0
 13 15  1  0  0  0  0
 13 14  1  6  0  0  0
 15 16  1  0  0  0  0
 15 26  1  1  0  0  0
 16 18  1  0  0  0  0
 16 17  1  6  0  0  0
 18  4  1  1  0  0  0
 20 21  1  0  0  0  0
 20 27  1  0  0  0  0
 21 31  1  1  0  0  0
 21 23  1  0  0  0  0
 21 22  1  0  0  0  0
 23 24  1  0  0  0  0
 23 29  1  6  0  0  0
 24 25  1  0  0  0  0
 24 28  1  1  0  0  0
 25 27  1  0  0  0  0
 25 26  1  1  0  0  0
 29 30  1  0  0  0  0
M  CHG  5   6   1  10   1  14   1  19   1  29   1
M  END
>  <CHROM.1>
65.51851429,66.18231000,49.77075889,-55.81042350,-45.70574513,-102.19224809
74.82069063,118.45657974,-77.02804831,-83.10226333,-75.59592475,-175.69140331
-159.19207000,3.83603833,5.42754529,-2.24180749,0.34545532,-0.42678928,2.47742525

>  <Name>
1byj cryst

>  <RI>
0

>  <Rbt.Current_Directory>
/home/itssahil/PROJECTS/Mol_Feturizer/New_Systems/rnas/1byj

>  <Rbt.Executable>
rbdock ($Id: //depot/dev/client3/rdock/2013.1/src/exe/rbdock.cxx#4 $)

>  <Rbt.Library>
libRbt.so (2013.1, Build901 2013/11/27)

>  <Rbt.Parameter_File>
/export/apps/rDock/src/rDock_2013.1_src/data/scripts/dock_solv.prm

>  <Rbt.Receptor>
prm/pocket_docking_3.prm

>  <SCORE>
-42.6474

>  <SCORE.INTER>
-40.9901

>  <SCORE.INTER.CONST>
1

>  <SCORE.INTER.POLAR>
-6.94

>  <SCORE.INTER.ROT>
6

>  <SCORE.INTER.SOLV>
20.8217

>  <SCORE.INTER.VDW>
-18.734

>  <SCORE.INTER.norm>
-1.32226

>  <SCORE.INTRA>
-1.65723

>  <SCORE.INTRA.DIHEDRAL>
-0.0835692

>  <SCORE.INTRA.DIHEDRAL.0>
18.4149

>  <SCORE.INTRA.POLAR>
0

>  <SCORE.INTRA.POLAR.0>
0

>  <SCORE.INTRA.REPUL>
-0.0862909

>  <SCORE.INTRA.REPUL.0>
0.092687

>  <SCORE.INTRA.SOLV>
1.1126

>  <SCORE.INTRA.SOLV.lig_0>
-120.37

>  <SCORE.INTRA.VDW>
-1.74029

>  <SCORE.INTRA.VDW.0>
-1.75542

>  <SCORE.INTRA.norm>
-0.0534591

>  <SCORE.RESTR>
0

>  <SCORE.RESTR.CAVITY>
0

>  <SCORE.RESTR.norm>
0

>  <SCORE.SYSTEM>
0

>  <SCORE.SYSTEM.CONST>
0

>  <SCORE.SYSTEM.DIHEDRAL>
0

>  <SCORE.SYSTEM.SOLV>
0

>  <SCORE.SYSTEM.norm>
0

>  <SCORE.heavy>
31

>  <SCORE.norm>
-1.37572

>  <RMSD>
2.616

$$$$
1byj cryst
 OpenBabel11021811383D
libRbt.so/2013.1/901 2013/11/27
 31 33  0  0  0  0  0  0  0  0999 V2000
    5.8567    3.4316   -0.4958 C   0  0  1  0  0  0  0  0  0  0  0  0
    6.9140    4.1401   -1.2185 O   0  0  0  0  0  0  0  0  0  0  0  0
    7.5385    3.4859   -2.3633 C   0  0  2  0  0  0  0  0  0  0  0  0
    6.6019    3.3573   -3.4783 O   0  0  0  0  0  0  0  0  0  0  0  0
    8.0829    2.0919   -1.9264 C   0  0  2  0  0  0  0  0  0  0  0  0
    8.7354    1.3514   -3.0240 N   0  3  0  0  0  0  0  0  0  0  0  0
    6.9411    1.2451   -1.3072 C   0  0  0  0  0  0  0  0  0  0  0  0
    6.2825    1.9825   -0.1317 C   0  0  0  0  0  0  0  0  0  0  0  0
    5.5161    4.1996    0.7935 C   0  0  0  0  0  0  0  0  0  0  0  0
    4.3875    3.6315    1.5423 N   0  3  0  0  0  0  0  0  0  0  0  0
    7.1456    5.6439   -4.2172 C   0  0  1  0  0  0  0  0  0  0  0  0
    6.5746    6.9914   -4.7220 C   0  0  0  0  0  0  0  0  0  0  0  0
    5.5180    7.5411   -3.7265 C   0  0  1  0  0  0  0  0  0  0  0  0
    5.0397    8.8612   -4.1798 N   0  3  0  0  0  0  0  0  0  0  0  0
    4.3507    6.5248   -3.5640 C   0  0  1  0  0  0  0  0  0  0  0  0
    4.8673    5.1216   -3.1587 C   0  0  1  0  0  0  0  0  0  0  0  0
    3.7491    4.2480   -3.2073 O   0  0  0  0  0  0  0  0  0  0  0  0
    6.0219    4.5680   -4.0575 C   0  0  2  0  0  0  0  0  0  0  0  0
    8.2196    5.1820   -5.1141 N   0  3  0  0  0  0  0  0  0  0  0  0
    0.8111    5.4019   -2.6477 C   0  0  0  0  0  0  0  0  0  0  0  0
   -0.0916    6.0259   -1.5553 C   0  0  2  0  0  0  0  0  0  0  0  0
   -1.2410    6.5539   -2.2158 O   0  0  0  0  0  0  0  0  0  0  0  0
    0.7000    7.1647   -0.8084 C   0  0  1  0  0  0  0  0  0  0  0  0
    1.4002    8.1648   -1.7901 C   0  0  2  0  0  0  0  0  0  0  0  0
    2.1427    7.4664   -2.9574 C   0  0  1  0  0  0  0  0  0  0  0  0
    3.4323    6.9617   -2.5218 O   0  0  0  0  0  0  0  0  0  0  0  0
    1.3207    6.4207   -3.5489 O   0  0  0  0  0  0  0  0  0  0  0  0
    2.3170    9.0131   -1.1038 O   0  0  0  0  0  0  0  0  0  0  0  0
   -0.2185    7.8933    0.1211 N   0  3  0  0  0  0  0  0  0  0  0  0
    0.3956    8.5485    1.2939 C   0  0  0  0  0  0  0  0  0  0  0  0
   -0.5799    4.8982   -0.6130 C   0  0  0  0  0  0  0  0  0  0  0  0
  1  8  1  0  0  0  0
  1  9  1  1  0  0  0
  1  2  1  0  0  0  0
  2  3  1  0  0  0  0
  3  5  1  0  0  0  0
  3  4  1  6  0  0  0
  5  7  1  0  0  0  0
  5  6  1  6  0  0  0
  7  8  1  0  0  0  0
  9 10  1  0  0  0  0
 11 12  1  0  0  0  0
 11 18  1  0  0  0  0
 11 19  1  6  0  0  0
 12 13  1  0  0  0  0
 13 15  1  0  0  0  0
 13 14  1  6  0  0  0
 15 16  1  0  0  0  0
 15 26  1  1  0  0  0
 16 18  1  0  0  0  0
 16 17  1  6  0  0  0
 18  4  1  1  0  0  0
 20 21  1  0  0  0  0
 20 27  1  0  0  0  0
 21 31  1  1  0  0  0
 21 23  1  0  0  0  0
 21 22  1  0  0  0  0
 23 24  1  0  0  0  0
 23 29  1  6  0  0  0
 24 25  1  0  0  0  0
 24 28  1  1  0  0  0
 25 27  1  0  0  0  0
 25 26  1  1  0  0  0
 29 30  1  0  0  0  0
M  CHG  5   6   1  10   1  14   1  19   1  29   1
M  END
>  <CHROM.1>
175.29206849,60.13076388,43.52505705,-177.22592702,67.24472239,-91.84418100
-177.87668890,107.37633146,-67.62952819,-177.18071338,-85.09669008,-67.26271171
-167.97356382,4.13146323,5.43780920,-2.11957869,0.24510716,-0.50334754,2.37978904

>  <Name>
1byj cryst

>  <RI>
0

>  <Rbt.Current_Directory>
/home/itssahil/PROJECTS/Mol_Feturizer/New_Systems/rnas/1byj

>  <Rbt.Executable>
rbdock ($Id: //depot/dev/client3/rdock/2013.1/src/exe/rbdock.cxx#4 $)

>  <Rbt.Library>
libRbt.so (2013.1, Build901 2013/11/27)

>  <Rbt.Parameter_File>
/export/apps/rDock/src/rDock_2013.1_src/data/scripts/dock_solv.prm

>  <Rbt.Receptor>
prm/pocket_docking_4.prm

>  <SCORE>
-43.2083

>  <SCORE.INTER>
-38.5087

>  <SCORE.INTER.CONST>
1

>  <SCORE.INTER.POLAR>
-6.00596

>  <SCORE.INTER.ROT>
6

>  <SCORE.INTER.SOLV>
21.9993

>  <SCORE.INTER.VDW>
-20.5857

>  <SCORE.INTER.norm>
-1.24222

>  <SCORE.INTRA>
-4.69962

>  <SCORE.INTRA.DIHEDRAL>
-5.4376

>  <SCORE.INTRA.DIHEDRAL.0>
18.4149

>  <SCORE.INTRA.POLAR>
0

>  <SCORE.INTRA.POLAR.0>
0

>  <SCORE.INTRA.REPUL>
-0.092687

>  <SCORE.INTRA.REPUL.0>
0.092687

>  <SCORE.INTRA.SOLV>
-1.72802

>  <SCORE.INTRA.SOLV.lig_0>
-120.37

>  <SCORE.INTRA.VDW>
-0.653371

>  <SCORE.INTRA.VDW.0>
-1.75542

>  <SCORE.INTRA.norm>
-0.151601

>  <SCORE.RESTR>
0

>  <SCORE.RESTR.CAVITY>
0

>  <SCORE.RESTR.norm>
0

>  <SCORE.SYSTEM>
0

>  <SCORE.SYSTEM.CONST>
0

>  <SCORE.SYSTEM.DIHEDRAL>
0

>  <SCORE.SYSTEM.SOLV>
0

>  <SCORE.SYSTEM.norm>
0

>  <SCORE.heavy>
31

>  <SCORE.norm>
-1.39382

>  <RMSD>
2.616

$$$$
1byj cryst
 OpenBabel11021811383D
libRbt.so/2013.1/901 2013/11/27
 31 33  0  0  0  0  0  0  0  0999 V2000
    5.3227    2.3386   -0.8295 C   0  0  1  0  0  0  0  0  0  0  0  0
    6.0735    3.5796   -1.0255 O   0  0  0  0  0  0  0  0  0  0  0  0
    7.1570    3.5951   -2.0024 C   0  0  2  0  0  0  0  0  0  0  0  0
    6.6454    3.4673   -3.3658 O   0  0  0  0  0  0  0  0  0  0  0  0
    8.1639    2.4514   -1.6733 C   0  0  2  0  0  0  0  0  0  0  0  0
    9.3005    2.3878   -2.6131 N   0  3  0  0  0  0  0  0  0  0  0  0
    7.4249    1.0891   -1.6262 C   0  0  0  0  0  0  0  0  0  0  0  0
    6.2676    1.1239   -0.6167 C   0  0  0  0  0  0  0  0  0  0  0  0
    4.4023    2.4862    0.3949 C   0  0  0  0  0  0  0  0  0  0  0  0
    3.3677    3.5170    0.2391 N   0  3  0  0  0  0  0  0  0  0  0  0
    7.1517    5.7130   -4.2438 C   0  0  1  0  0  0  0  0  0  0  0  0
    6.5580    7.0218   -4.8192 C   0  0  0  0  0  0  0  0  0  0  0  0
    5.5067    7.6165   -3.8442 C   0  0  1  0  0  0  0  0  0  0  0  0
    5.0067    8.9021   -4.3677 N   0  3  0  0  0  0  0  0  0  0  0  0
    4.3542    6.5979   -3.6077 C   0  0  1  0  0  0  0  0  0  0  0  0
    4.8930    5.2270   -3.1278 C   0  0  1  0  0  0  0  0  0  0  0  0
    3.7852    4.3390   -3.1110 O   0  0  0  0  0  0  0  0  0  0  0  0
    6.0434    4.6352   -4.0073 C   0  0  2  0  0  0  0  0  0  0  0  0
    8.2206    5.2119   -5.1258 N   0  3  0  0  0  0  0  0  0  0  0  0
    0.8588    5.4596   -2.6203 C   0  0  0  0  0  0  0  0  0  0  0  0
   -0.0512    6.1086   -1.5487 C   0  0  2  0  0  0  0  0  0  0  0  0
   -1.2171    6.5806   -2.2224 O   0  0  0  0  0  0  0  0  0  0  0  0
    0.7181    7.2967   -0.8573 C   0  0  1  0  0  0  0  0  0  0  0  0
    1.3878    8.2698   -1.8861 C   0  0  2  0  0  0  0  0  0  0  0  0
    2.1389    7.5395   -3.0282 C   0  0  1  0  0  0  0  0  0  0  0  0
    3.4430    7.0843   -2.5812 O   0  0  0  0  0  0  0  0  0  0  0  0
    1.3381    6.4504   -3.5681 O   0  0  0  0  0  0  0  0  0  0  0  0
    2.2888    9.1680   -1.2438 O   0  0  0  0  0  0  0  0  0  0  0  0
   -0.2112    8.0427    0.0472 N   0  3  0  0  0  0  0  0  0  0  0  0
    0.3993    8.9879    1.0042 C   0  0  0  0  0  0  0  0  0  0  0  0
   -0.5063    5.0112   -0.5553 C   0  0  0  0  0  0  0  0  0  0  0  0
  1  8  1  0  0  0  0
  1  9  1  1  0  0  0
  1  2  1  0  0  0  0
  2  3  1  0  0  0  0
  3  5  1  0  0  0  0
  3  4  1  6  0  0  0
  5  7  1  0  0  0  0
  5  6  1  6  0  0  0
  7  8  1  0  0  0  0
  9 10  1  0  0  0  0
 11 12  1  0  0  0  0
 11 18  1  0  0  0  0
 11 19  1  6  0  0  0
 12 13  1  0  0  0  0
 13 15  1  0  0  0  0
 13 14  1  6  0  0  0
 15 16  1  0  0  0  0
 15 26  1  1  0  0  0
 16 18  1  0  0  0  0
 16 17  1  6  0  0  0
 18  4  1  1  0  0  0
 20 21  1  0  0  0  0
 20 27  1  0  0  0  0
 21 31  1  1  0  0  0
 21 23  1  0  0  0  0
 21 22  1  0  0  0  0
 23 24  1  0  0  0  0
 23 29  1  6  0  0  0
 24 25  1  0  0  0  0
 24 28  1  1  0  0  0
 25 27  1  0  0  0  0
 25 26  1  1  0  0  0
 29 30  1  0  0  0  0
M  CHG  5   6   1  10   1  14   1  19   1  29   1
M  END
>  <CHROM.1>
63.71177498,77.30038091,66.92727110,-172.59584702,-175.25928807,151.13596030
-55.53182181,107.76179214,-67.49659952,61.96345859,-72.43858826,66.17195149
-169.24871058,4.05356467,5.41908188,-2.20871105,0.35397730,-0.46101240,2.55021460

>  <Name>
1byj cryst

>  <RI>
0

>  <Rbt.Current_Directory>
/home/itssahil/PROJECTS/Mol_Feturizer/New_Systems/rnas/1byj

>  <Rbt.Executable>
rbdock ($Id: //depot/dev/client3/rdock/2013.1/src/exe/rbdock.cxx#4 $)

>  <Rbt.Library>
libRbt.so (2013.1, Build901 2013/11/27)

>  <Rbt.Parameter_File>
/export/apps/rDock/src/rDock_2013.1_src/data/scripts/dock_solv.prm

>  <Rbt.Receptor>
prm/pocket_docking_4.prm

>  <SCORE>
-44.979

>  <SCORE.INTER>
-40.6106

>  <SCORE.INTER.CONST>
1

>  <SCORE.INTER.POLAR>
-6.49091

>  <SCORE.INTER.ROT>
6

>  <SCORE.INTER.SOLV>
19.4291

>  <SCORE.INTER.VDW>
-19.5137

>  <SCORE.INTER.norm>
-1.31002

>  <SCORE.INTRA>
-4.36847

>  <SCORE.INTRA.DIHEDRAL>
-6.49771

>  <SCORE.INTRA.DIHEDRAL.0>
18.4149

>  <SCORE.INTRA.POLAR>
-0.0174591

>  <SCORE.INTRA.POLAR.0>
0

>  <SCORE.INTRA.REPUL>
-0.092687

>  <SCORE.INTRA.REPUL.0>
0.092687

>  <SCORE.INTRA.SOLV>
1.5257

>  <SCORE.INTRA.SOLV.lig_0>
-120.37

>  <SCORE.INTRA.VDW>
-1.35966

>  <SCORE.INTRA.VDW.0>
-1.75542

>  <SCORE.INTRA.norm>
-0.140918

>  <SCORE.RESTR>
0

>  <SCORE.RESTR.CAVITY>
0

>  <SCORE.RESTR.norm>
0

>  <SCORE.SYSTEM>
0

>  <SCORE.SYSTEM.CONST>
0

>  <SCORE.SYSTEM.DIHEDRAL>
0

>  <SCORE.SYSTEM.SOLV>
0

>  <SCORE.SYSTEM.norm>
0

>  <SCORE.heavy>
31

>  <SCORE.norm>
-1.45094

>  <RMSD>
2.617

$$$$
1byj cryst
 OpenBabel11021811383D
libRbt.so/2013.1/901 2013/11/27
 31 33  0  0  0  0  0  0  0  0999 V2000
    5.8314    3.4069   -0.5013 C   0  0  1  0  0  0  0  0  0  0  0  0
    6.8834    4.0828   -1.2620 O   0  0  0  0  0  0  0  0  0  0  0  0
    7.4744    3.3931   -2.4038 C   0  0  2  0  0  0  0  0  0  0  0  0
    6.5129    3.2528   -3.4959 O   0  0  0  0  0  0  0  0  0  0  0  0
    8.0076    2.0017   -1.9457 C   0  0  2  0  0  0  0  0  0  0  0  0
    8.6263    1.2264   -3.0390 N   0  3  0  0  0  0  0  0  0  0  0  0
    6.8670    1.1864   -1.2835 C   0  0  0  0  0  0  0  0  0  0  0  0
    6.2438    1.9604   -0.1122 C   0  0  0  0  0  0  0  0  0  0  0  0
    5.5290    4.2094    0.7765 C   0  0  0  0  0  0  0  0  0  0  0  0
    4.3981    3.6849    1.5533 N   0  3  0  0  0  0  0  0  0  0  0  0
    6.9993    5.5848   -4.1249 C   0  0  1  0  0  0  0  0  0  0  0  0
    6.4015    6.9235   -4.6220 C   0  0  0  0  0  0  0  0  0  0  0  0
    5.2611    7.3929   -3.6793 C   0  0  1  0  0  0  0  0  0  0  0  0
    4.7537    8.7064   -4.1199 N   0  3  0  0  0  0  0  0  0  0  0  0
    4.1325    6.3229   -3.6246 C   0  0  1  0  0  0  0  0  0  0  0  0
    4.6847    4.9297   -3.2320 C   0  0  1  0  0  0  0  0  0  0  0  0
    3.6118    4.0115   -3.3802 O   0  0  0  0  0  0  0  0  0  0  0  0
    5.9169    4.4571   -4.0722 C   0  0  2  0  0  0  0  0  0  0  0  0
    8.1470    5.2004   -4.9654 N   0  3  0  0  0  0  0  0  0  0  0  0
    1.5760    4.9920   -0.6208 C   0  0  0  0  0  0  0  0  0  0  0  0
    0.3896    5.8783   -0.1686 C   0  0  2  0  0  0  0  0  0  0  0  0
   -0.8066    5.1945   -0.5396 O   0  0  0  0  0  0  0  0  0  0  0  0
    0.4802    7.2798   -0.8820 C   0  0  1  0  0  0  0  0  0  0  0  0
    0.7151    7.1634   -2.4264 C   0  0  2  0  0  0  0  0  0  0  0  0
    1.8028    6.1280   -2.8093 C   0  0  1  0  0  0  0  0  0  0  0  0
    3.1319    6.6839   -2.6300 O   0  0  0  0  0  0  0  0  0  0  0  0
    1.6275    4.8871   -2.0687 O   0  0  0  0  0  0  0  0  0  0  0  0
    1.0578    8.4232   -2.9980 O   0  0  0  0  0  0  0  0  0  0  0  0
   -0.7542    8.0746   -0.5942 N   0  3  0  0  0  0  0  0  0  0  0  0
   -0.6064    9.2446    0.2952 C   0  0  0  0  0  0  0  0  0  0  0  0
    0.4043    5.9741    1.3770 C   0  0  0  0  0  0  0  0  0  0  0  0
  1  8  1  0  0  0  0
  1  9  1  1  0  0  0
  1  2  1  0  0  0  0
  2  3  1  0  0  0  0
  3  5  1  0  0  0  0
  3  4  1  6  0  0  0
  5  7  1  0  0  0  0
  5  6  1  6  0  0  0
  7  8  1  0  0  0  0
  9 10  1  0  0  0  0
 11 12  1  0  0  0  0
 11 18  1  0  0  0  0
 11 19  1  6  0  0  0
 12 13  1  0  0  0  0
 13 15  1  0  0  0  0
 13 14  1  6  0  0  0
 15 16  1  0  0  0  0
 15 26  1  1  0  0  0
 16 18  1  0  0  0  0
 16 17  1  6  0  0  0
 18  4  1  1  0  0  0
 20 21  1  0  0  0  0
 20 27  1  0  0  0  0
 21 31  1  1  0  0  0
 21 23  1  0  0  0  0
 21 22  1  0  0  0  0
 23 24  1  0  0  0  0
 23 29  1  6  0  0  0
 24 25  1  0  0  0  0
 24 28  1  1  0  0  0
 25 27  1  0  0  0  0
 25 26  1  1  0  0  0
 29 30  1  0  0  0  0
M  CHG  5   6   1  10   1  14   1  19   1  29   1
M  END
>  <CHROM.1>
174.61289416,58.84614285,37.53526057,64.60922521,-52.97061436,140.96391044
57.07999267,156.15112513,-74.44337796,-57.47188387,-129.11237803,172.17770207
-141.85755158,4.01957088,5.22907984,-1.99522685,0.18803449,-0.52222421,2.34968829

>  <Name>
1byj cryst

>  <RI>
0

>  <Rbt.Current_Directory>
/home/itssahil/PROJECTS/Mol_Feturizer/New_Systems/rnas/1byj

>  <Rbt.Executable>
rbdock ($Id: //depot/dev/client3/rdock/2013.1/src/exe/rbdock.cxx#4 $)

>  <Rbt.Library>
libRbt.so (2013.1, Build901 2013/11/27)

>  <Rbt.Parameter_File>
/export/apps/rDock/src/rDock_2013.1_src/data/scripts/dock_solv.prm

>  <Rbt.Receptor>
prm/pocket_docking_8.prm

>  <SCORE>
-52.9906

>  <SCORE.INTER>
-47.9857

>  <SCORE.INTER.CONST>
1

>  <SCORE.INTER.POLAR>
-8.2501

>  <SCORE.INTER.ROT>
6

>  <SCORE.INTER.SOLV>
24.2662

>  <SCORE.INTER.VDW>
-20.1788

>  <SCORE.INTER.norm>
-1.54792

>  <SCORE.INTRA>
-5.00491

>  <SCORE.INTRA.DIHEDRAL>
-0.866334

>  <SCORE.INTRA.DIHEDRAL.0>
18.4149

>  <SCORE.INTRA.POLAR>
-0.97332

>  <SCORE.INTRA.POLAR.0>
0

>  <SCORE.INTRA.REPUL>
-0.092687

>  <SCORE.INTRA.REPUL.0>
0.092687

>  <SCORE.INTRA.SOLV>
-1.70775

>  <SCORE.INTRA.SOLV.lig_0>
-120.37

>  <SCORE.INTRA.VDW>
0.0548579

>  <SCORE.INTRA.VDW.0>
-1.75542

>  <SCORE.INTRA.norm>
-0.161449

>  <SCORE.RESTR>
0

>  <SCORE.RESTR.CAVITY>
0

>  <SCORE.RESTR.norm>
0

>  <SCORE.SYSTEM>
0

>  <SCORE.SYSTEM.CONST>
0

>  <SCORE.SYSTEM.DIHEDRAL>
0

>  <SCORE.SYSTEM.SOLV>
0

>  <SCORE.SYSTEM.norm>
0

>  <SCORE.heavy>
31

>  <SCORE.norm>
-1.70937

>  <RMSD>
2.619

$$$$
1byj cryst
 OpenBabel11021811383D
libRbt.so/2013.1/901 2013/11/27
 31 33  0  0  0  0  0  0  0  0999 V2000
    6.1341    2.3612   -0.5120 C   0  0  1  0  0  0  0  0  0  0  0  0
    6.8855    3.5386   -0.9492 O   0  0  0  0  0  0  0  0  0  0  0  0
    7.7456    3.4241   -2.1221 C   0  0  2  0  0  0  0  0  0  0  0  0
    6.9603    3.2386   -3.3410 O   0  0  0  0  0  0  0  0  0  0  0  0
    8.7445    2.2452   -1.9154 C   0  0  2  0  0  0  0  0  0  0  0  0
    9.6604    2.0511   -3.0567 N   0  3  0  0  0  0  0  0  0  0  0  0
    7.9685    0.9365   -1.6166 C   0  0  0  0  0  0  0  0  0  0  0  0
    7.0453    1.1077   -0.4010 C   0  0  0  0  0  0  0  0  0  0  0  0
    5.4917    2.6444    0.8574 C   0  0  0  0  0  0  0  0  0  0  0  0
    4.6819    1.5336    1.3745 N   0  3  0  0  0  0  0  0  0  0  0  0
    7.5238    5.5093   -4.1137 C   0  0  1  0  0  0  0  0  0  0  0  0
    6.9743    6.8249   -4.7169 C   0  0  0  0  0  0  0  0  0  0  0  0
    5.8228    7.3857   -3.8397 C   0  0  1  0  0  0  0  0  0  0  0  0
    5.3617    8.6779   -4.3824 N   0  3  0  0  0  0  0  0  0  0  0  0
    4.6655    6.3500   -3.7432 C   0  0  1  0  0  0  0  0  0  0  0  0
    5.1707    4.9739   -3.2418 C   0  0  1  0  0  0  0  0  0  0  0  0
    4.0781    4.0743   -3.3564 O   0  0  0  0  0  0  0  0  0  0  0  0
    6.4111    4.4147   -4.0139 C   0  0  2  0  0  0  0  0  0  0  0  0
    8.6821    5.0400   -4.8944 N   0  3  0  0  0  0  0  0  0  0  0  0
    1.2148    5.9772   -1.1571 C   0  0  0  0  0  0  0  0  0  0  0  0
    0.3820    7.2702   -0.9779 C   0  0  2  0  0  0  0  0  0  0  0  0
   -0.8860    7.0375   -1.5897 O   0  0  0  0  0  0  0  0  0  0  0  0
    1.1270    8.4738   -1.6690 C   0  0  1  0  0  0  0  0  0  0  0  0
    1.5976    8.1434   -3.1262 C   0  0  2  0  0  0  0  0  0  0  0  0
    2.2716    6.7540   -3.2573 C   0  0  1  0  0  0  0  0  0  0  0  0
    3.6497    6.8028   -2.8032 O   0  0  0  0  0  0  0  0  0  0  0  0
    1.5045    5.7326   -2.5593 O   0  0  0  0  0  0  0  0  0  0  0  0
    2.4906    9.1366   -3.6235 O   0  0  0  0  0  0  0  0  0  0  0  0
    0.2486    9.6849   -1.6599 N   0  3  0  0  0  0  0  0  0  0  0  0
    0.8465   10.9507   -2.1310 C   0  0  0  0  0  0  0  0  0  0  0  0
    0.1299    7.4911    0.5340 C   0  0  0  0  0  0  0  0  0  0  0  0
  1  8  1  0  0  0  0
  1  9  1  1  0  0  0
  1  2  1  0  0  0  0
  2  3  1  0  0  0  0
  3  5  1  0  0  0  0
  3  4  1  6  0  0  0
  5  7  1  0  0  0  0
  5  6  1  6  0  0  0
  7  8  1  0  0  0  0
  9 10  1  0  0  0  0
 11 12  1  0  0  0  0
 11 18  1  0  0  0  0
 11 19  1  6  0  0  0
 12 13  1  0  0  0  0
 13 15  1  0  0  0  0
 13 14  1  6  0  0  0
 15 16  1  0  0  0  0
 15 26  1  1  0  0  0
 16 18  1  0  0  0  0
 16 17  1  6  0  0  0
 18  4  1  1  0  0  0
 20 21  1  0  0  0  0
 20 27  1  0  0  0  0
 21 31  1  1  0  0  0
 21 23  1  0  0  0  0
 21 22  1  0  0  0  0
 23 24  1  0  0  0  0
 23 29  1  6  0  0  0
 24 25  1  0  0  0  0
 24 28  1  1  0  0  0
 25 27  1  0  0  0  0
 25 26  1  1  0  0  0
 29 30  1  0  0  0  0
M  CHG  5   6   1  10   1  14   1  19   1  29   1
M  END
>  <CHROM.1>
178.51682952,83.63494560,46.00525827,65.14996676,-31.42112587,19.73346812
-174.97681309,131.20085390,-173.03110239,-166.85482675,-65.68835736,39.41460886
-124.82165133,4.51945323,5.48766862,-2.32870171,0.52238661,-0.49547633,2.46807914

>  <Name>
1byj cryst

>  <RI>
0

>  <Rbt.Current_Directory>
/home/itssahil/PROJECTS/Mol_Feturizer/New_Systems/rnas/1byj

>  <Rbt.Executable>
rbdock ($Id: //depot/dev/client3/rdock/2013.1/src/exe/rbdock.cxx#4 $)

>  <Rbt.Library>
libRbt.so (2013.1, Build901 2013/11/27)

>  <Rbt.Parameter_File>
/export/apps/rDock/src/rDock_2013.1_src/data/scripts/dock_solv.prm

>  <Rbt.Receptor>
prm/pocket_docking_3.prm

>  <SCORE>
-47.8831

>  <SCORE.INTER>
-50.3493

>  <SCORE.INTER.CONST>
1

>  <SCORE.INTER.POLAR>
-8.25753

>  <SCORE.INTER.ROT>
6

>  <SCORE.INTER.SOLV>
21.8054

>  <SCORE.INTER.VDW>
-20.9096

>  <SCORE.INTER.norm>
-1.62417

>  <SCORE.INTRA>
2.46615

>  <SCORE.INTRA.DIHEDRAL>
6.47287

>  <SCORE.INTRA.DIHEDRAL.0>
18.4149

>  <SCORE.INTRA.POLAR>
-0.469725

>  <SCORE.INTRA.POLAR.0>
0

>  <SCORE.INTRA.REPUL>
-0.092687

>  <SCORE.INTRA.REPUL.0>
0.092687

>  <SCORE.INTRA.SOLV>
2.32483

>  <SCORE.INTRA.SOLV.lig_0>
-120.37

>  <SCORE.INTRA.VDW>
0.127797

>  <SCORE.INTRA.VDW.0>
-1.75542

>  <SCORE.INTRA.norm>
0.0795532

>  <SCORE.RESTR>
0

>  <SCORE.RESTR.CAVITY>
0

>  <SCORE.RESTR.norm>
0

>  <SCORE.SYSTEM>
0

>  <SCORE.SYSTEM.CONST>
0

>  <SCORE.SYSTEM.DIHEDRAL>
0

>  <SCORE.SYSTEM.SOLV>
0

>  <SCORE.SYSTEM.norm>
0

>  <SCORE.heavy>
31

>  <SCORE.norm>
-1.54462

>  <RMSD>
2.621

$$$$
1byj cryst
 OpenBabel11021811383D
libRbt.so/2013.1/901 2013/11/27
 31 33  0  0  0  0  0  0  0  0999 V2000
    5.4220    3.1111   -0.5234 C   0  0  1  0  0  0  0  0  0  0  0  0
    6.4378    4.0231   -1.0511 O   0  0  0  0  0  0  0  0  0  0  0  0
    7.2847    3.5679   -2.1484 C   0  0  2  0  0  0  0  0  0  0  0  0
    6.5165    3.4079   -3.3817 O   0  0  0  0  0  0  0  0  0  0  0  0
    7.9782    2.2315   -1.7439 C   0  0  2  0  0  0  0  0  0  0  0  0
    8.8601    1.6910   -2.7971 N   0  3  0  0  0  0  0  0  0  0  0  0
    6.9126    1.1804   -1.3394 C   0  0  0  0  0  0  0  0  0  0  0  0
    6.0160    1.7100   -0.2102 C   0  0  0  0  0  0  0  0  0  0  0  0
    4.8195    3.7057    0.7617 C   0  0  0  0  0  0  0  0  0  0  0  0
    3.7155    2.9148    1.3210 N   0  3  0  0  0  0  0  0  0  0  0  0
    7.0494    5.6715   -4.1955 C   0  0  1  0  0  0  0  0  0  0  0  0
    6.4729    6.9953   -4.7540 C   0  0  0  0  0  0  0  0  0  0  0  0
    5.4009    7.5708   -3.7900 C   0  0  1  0  0  0  0  0  0  0  0  0
    4.9167    8.8698   -4.2950 N   0  3  0  0  0  0  0  0  0  0  0  0
    4.2404    6.5508   -3.6040 C   0  0  1  0  0  0  0  0  0  0  0  0
    4.7640    5.1674   -3.1436 C   0  0  1  0  0  0  0  0  0  0  0  0
    3.6536    4.2830   -3.1731 O   0  0  0  0  0  0  0  0  0  0  0  0
    5.9329    4.5922   -4.0098 C   0  0  2  0  0  0  0  0  0  0  0  0
    8.1370    5.1874   -5.0639 N   0  3  0  0  0  0  0  0  0  0  0  0
    1.4839    4.9682   -1.2458 C   0  0  0  0  0  0  0  0  0  0  0  0
    0.4904    5.7971   -0.3951 C   0  0  2  0  0  0  0  0  0  0  0  0
   -0.8171    5.5230   -0.8963 O   0  0  0  0  0  0  0  0  0  0  0  0
    0.8347    7.3283   -0.5304 C   0  0  1  0  0  0  0  0  0  0  0  0
    1.0258    7.7807   -2.0180 C   0  0  2  0  0  0  0  0  0  0  0  0
    1.8951    6.8065   -2.8529 C   0  0  1  0  0  0  0  0  0  0  0  0
    3.3069    7.0164   -2.5879 O   0  0  0  0  0  0  0  0  0  0  0  0
    1.4981    5.4247   -2.6247 O   0  0  0  0  0  0  0  0  0  0  0  0
    1.5927    9.0860   -2.0971 O   0  0  0  0  0  0  0  0  0  0  0  0
   -0.2249    8.1460    0.1381 N   0  3  0  0  0  0  0  0  0  0  0  0
    0.0954    8.6997    1.4695 C   0  0  0  0  0  0  0  0  0  0  0  0
    0.5406    5.2833    1.0650 C   0  0  0  0  0  0  0  0  0  0  0  0
  1  8  1  0  0  0  0
  1  9  1  1  0  0  0
  1  2  1  0  0  0  0
  2  3  1  0  0  0  0
  3  5  1  0  0  0  0
  3  4  1  6  0  0  0
  5  7  1  0  0  0  0
  5  6  1  6  0  0  0
  7  8  1  0  0  0  0
  9 10  1  0  0  0  0
 11 12  1  0  0  0  0
 11 18  1  0  0  0  0
 11 19  1  6  0  0  0
 12 13  1  0  0  0  0
 13 15  1  0  0  0  0
 13 14  1  6  0  0  0
 15 16  1  0  0  0  0
 15 26  1  1  0  0  0
 16 18  1  0  0  0  0
 16 17  1  6  0  0  0
 18  4  1  1  0  0  0
 20 21  1  0  0  0  0
 20 27  1  0  0  0  0
 21 31  1  1  0  0  0
 21 23  1  0  0  0  0
 21 22  1  0  0  0  0
 23 24  1  0  0  0  0
 23 29  1  6  0  0  0
 24 25  1  0  0  0  0
 24 28  1  1  0  0  0
 25 27  1  0  0  0  0
 25 26  1  1  0  0  0
 29 30  1  0  0  0  0
M  CHG  5   6   1  10   1  14   1  19   1  29   1
M  END
>  <CHROM.1>
175.69243215,65.57528615,52.16754570,59.52663527,-51.71145055,150.02145996
-174.22113522,139.94746016,-171.58948276,173.65350187,-136.47848510,58.41388898
-158.44865714,4.05373119,5.30873160,-1.92598454,0.20878182,-0.54476040,2.44365088

>  <Name>
1byj cryst

>  <RI>
0

>  <Rbt.Current_Directory>
/home/itssahil/PROJECTS/Mol_Feturizer/New_Systems/rnas/1byj

>  <Rbt.Executable>
rbdock ($Id: //depot/dev/client3/rdock/2013.1/src/exe/rbdock.cxx#4 $)

>  <Rbt.Library>
libRbt.so (2013.1, Build901 2013/11/27)

>  <Rbt.Parameter_File>
/export/apps/rDock/src/rDock_2013.1_src/data/scripts/dock_solv.prm

>  <Rbt.Receptor>
prm/pocket_docking_8.prm

>  <SCORE>
-44.2312

>  <SCORE.INTER>
-40.4636

>  <SCORE.INTER.CONST>
1

>  <SCORE.INTER.POLAR>
-6.70646

>  <SCORE.INTER.ROT>
6

>  <SCORE.INTER.SOLV>
19.7454

>  <SCORE.INTER.VDW>
-18.8027

>  <SCORE.INTER.norm>
-1.30528

>  <SCORE.INTRA>
-3.76766

>  <SCORE.INTRA.DIHEDRAL>
-4.7196

>  <SCORE.INTRA.DIHEDRAL.0>
18.4149

>  <SCORE.INTRA.POLAR>
0

>  <SCORE.INTRA.POLAR.0>
0

>  <SCORE.INTRA.REPUL>
-0.092687

>  <SCORE.INTRA.REPUL.0>
0.092687

>  <SCORE.INTRA.SOLV>
-0.368617

>  <SCORE.INTRA.SOLV.lig_0>
-120.37

>  <SCORE.INTRA.VDW>
-0.760114

>  <SCORE.INTRA.VDW.0>
-1.75542

>  <SCORE.INTRA.norm>
-0.121537

>  <SCORE.RESTR>
0

>  <SCORE.RESTR.CAVITY>
0

>  <SCORE.RESTR.norm>
0

>  <SCORE.SYSTEM>
0

>  <SCORE.SYSTEM.CONST>
0

>  <SCORE.SYSTEM.DIHEDRAL>
0

>  <SCORE.SYSTEM.SOLV>
0

>  <SCORE.SYSTEM.norm>
0

>  <SCORE.heavy>
31

>  <SCORE.norm>
-1.42681

>  <RMSD>
2.633

$$$$
1byj cryst
 OpenBabel11021811383D
libRbt.so/2013.1/901 2013/11/27
 31 33  0  0  0  0  0  0  0  0999 V2000
    5.6844    3.4498   -0.5335 C   0  0  1  0  0  0  0  0  0  0  0  0
    6.7803    4.1523   -1.2025 O   0  0  0  0  0  0  0  0  0  0  0  0
    7.4441    3.5029   -2.3279 C   0  0  2  0  0  0  0  0  0  0  0  0
    6.5538    3.3998   -3.4826 O   0  0  0  0  0  0  0  0  0  0  0  0
    7.9514    2.0968   -1.8853 C   0  0  2  0  0  0  0  0  0  0  0  0
    8.6400    1.3603   -2.9634 N   0  3  0  0  0  0  0  0  0  0  0  0
    6.7737    1.2584   -1.3249 C   0  0  0  0  0  0  0  0  0  0  0  0
    6.0756    1.9909   -0.1693 C   0  0  0  0  0  0  0  0  0  0  0  0
    5.2997    4.2073    0.7496 C   0  0  0  0  0  0  0  0  0  0  0  0
    4.1377    3.6415    1.4473 N   0  3  0  0  0  0  0  0  0  0  0  0
    7.1451    5.6758   -4.2179 C   0  0  1  0  0  0  0  0  0  0  0  0
    6.6022    7.0360   -4.7197 C   0  0  0  0  0  0  0  0  0  0  0  0
    5.5585    7.6062   -3.7220 C   0  0  1  0  0  0  0  0  0  0  0  0
    5.1079    8.9369   -4.1723 N   0  3  0  0  0  0  0  0  0  0  0  0
    4.3702    6.6146   -3.5601 C   0  0  1  0  0  0  0  0  0  0  0  0
    4.8573    5.1999   -3.1579 C   0  0  1  0  0  0  0  0  0  0  0  0
    3.7208    4.3503   -3.2069 O   0  0  0  0  0  0  0  0  0  0  0  0
    5.9989    4.6236   -4.0590 C   0  0  2  0  0  0  0  0  0  0  0  0
    8.2081    5.1929   -5.1169 N   0  3  0  0  0  0  0  0  0  0  0  0
    0.8773    5.4520   -2.6676 C   0  0  0  0  0  0  0  0  0  0  0  0
   -0.0401    6.0392   -1.5671 C   0  0  2  0  0  0  0  0  0  0  0  0
   -1.2007    6.5506   -2.2211 O   0  0  0  0  0  0  0  0  0  0  0  0
    0.7249    7.1847   -0.8028 C   0  0  1  0  0  0  0  0  0  0  0  0
    1.4029    8.2147   -1.7690 C   0  0  2  0  0  0  0  0  0  0  0  0
    2.1619    7.5504   -2.9457 C   0  0  1  0  0  0  0  0  0  0  0  0
    3.4624    7.0689   -2.5160 O   0  0  0  0  0  0  0  0  0  0  0  0
    1.3644    6.4952   -3.5533 O   0  0  0  0  0  0  0  0  0  0  0  0
    2.2997    9.0734   -1.0694 O   0  0  0  0  0  0  0  0  0  0  0  0
   -0.2106    7.8785    0.1362 N   0  3  0  0  0  0  0  0  0  0  0  0
    0.3940    8.7592    1.1564 C   0  0  0  0  0  0  0  0  0  0  0  0
   -0.5033    4.8871   -0.6419 C   0  0  0  0  0  0  0  0  0  0  0  0
  1  8  1  0  0  0  0
  1  9  1  1  0  0  0
  1  2  1  0  0  0  0
  2  3  1  0  0  0  0
  3  5  1  0  0  0  0
  3  4  1  6  0  0  0
  5  7  1  0  0  0  0
  5  6  1  6  0  0  0
  7  8  1  0  0  0  0
  9 10  1  0  0  0  0
 11 12  1  0  0  0  0
 11 18  1  0  0  0  0
 11 19  1  6  0  0  0
 12 13  1  0  0  0  0
 13 15  1  0  0  0  0
 13 14  1  6  0  0  0
 15 16  1  0  0  0  0
 15 26  1  1  0  0  0
 16 18  1  0  0  0  0
 16 17  1  6  0  0  0
 18  4  1  1  0  0  0
 20 21  1  0  0  0  0
 20 27  1  0  0  0  0
 21 31  1  1  0  0  0
 21 23  1  0  0  0  0
 21 22  1  0  0  0  0
 23 24  1  0  0  0  0
 23 29  1  1  0  0  0
 24 25  1  0  0  0  0
 24 28  1  1  0  0  0
 25 27  1  0  0  0  0
 25 26  1  1  0  0  0
 29 30  1  0  0  0  0
M  CHG  5   6   1  10   1  14   1  19   1  29   1
M  END
>  <CHROM.1>
175.60931527,59.25011349,46.41451780,-178.36968701,-53.45214695,27.78004320
60.65265232,109.83010190,-173.49259855,60.50373191,-72.84045741,65.37794980
-170.51963107,4.10103987,5.47311836,-2.12916782,0.26940005,-0.50329470,2.42740159

>  <Name>
1byj cryst

>  <RI>
0

>  <Rbt.Current_Directory>
/home/itssahil/PROJECTS/Mol_Feturizer/New_Systems/rnas/1byj

>  <Rbt.Executable>
rbdock ($Id: //depot/dev/client3/rdock/2013.1/src/exe/rbdock.cxx#4 $)

>  <Rbt.Library>
libRbt.so (2013.1, Build901 2013/11/27)

>  <Rbt.Parameter_File>
/export/apps/rDock/src/rDock_2013.1_src/data/scripts/dock_solv.prm

>  <Rbt.Receptor>
prm/pocket_docking_8.prm

>  <SCORE>
-44.9246

>  <SCORE.INTER>
-38.688

>  <SCORE.INTER.CONST>
1

>  <SCORE.INTER.POLAR>
-5.99212

>  <SCORE.INTER.ROT>
6

>  <SCORE.INTER.SOLV>
21.7749

>  <SCORE.INTER.VDW>
-20.6766

>  <SCORE.INTER.norm>
-1.248

>  <SCORE.INTRA>
-6.23663

>  <SCORE.INTRA.DIHEDRAL>
-7.03761

>  <SCORE.INTRA.DIHEDRAL.0>
18.4149

>  <SCORE.INTRA.POLAR>
-0.0125147

>  <SCORE.INTRA.POLAR.0>
0

>  <SCORE.INTRA.REPUL>
-0.092687

>  <SCORE.INTRA.REPUL.0>
0.092687

>  <SCORE.INTRA.SOLV>
-2.75612

>  <SCORE.INTRA.SOLV.lig_0>
-120.37

>  <SCORE.INTRA.VDW>
-0.833786

>  <SCORE.INTRA.VDW.0>
-1.75542

>  <SCORE.INTRA.norm>
-0.201182

>  <SCORE.RESTR>
0

>  <SCORE.RESTR.CAVITY>
0

>  <SCORE.RESTR.norm>
0

>  <SCORE.SYSTEM>
0

>  <SCORE.SYSTEM.CONST>
0

>  <SCORE.SYSTEM.DIHEDRAL>
0

>  <SCORE.SYSTEM.SOLV>
0

>  <SCORE.SYSTEM.norm>
0

>  <SCORE.heavy>
31

>  <SCORE.norm>
-1.44918

>  <RMSD>
2.638

$$$$
1byj cryst
 OpenBabel11021811383D
libRbt.so/2013.1/901 2013/11/27
 31 33  0  0  0  0  0  0  0  0999 V2000
    7.5598    2.1297   -0.8656 C   0  0  1  0  0  0  0  0  0  0  0  0
    8.0365    3.3702   -1.4789 O   0  0  0  0  0  0  0  0  0  0  0  0
    8.2933    3.3872   -2.9150 C   0  0  2  0  0  0  0  0  0  0  0  0
    7.0527    3.2644   -3.6783 O   0  0  0  0  0  0  0  0  0  0  0  0
    9.2870    2.2410   -3.2743 C   0  0  2  0  0  0  0  0  0  0  0  0
    9.6082    2.1787   -4.7137 N   0  3  0  0  0  0  0  0  0  0  0  0
    8.7280    0.8797   -2.7860 C   0  0  0  0  0  0  0  0  0  0  0  0
    8.4330    0.9129   -1.2789 C   0  0  0  0  0  0  0  0  0  0  0  0
    7.5842    2.2748    0.6662 C   0  0  0  0  0  0  0  0  0  0  0  0
    6.7674    3.3866    1.1703 N   0  3  0  0  0  0  0  0  0  0  0  0
    7.4723    5.6205   -4.2641 C   0  0  1  0  0  0  0  0  0  0  0  0
    6.8296    6.9652   -4.6828 C   0  0  0  0  0  0  0  0  0  0  0  0
    5.7435    7.3908   -3.6585 C   0  0  1  0  0  0  0  0  0  0  0  0
    5.1948    8.7098   -4.0271 N   0  3  0  0  0  0  0  0  0  0  0  0
    4.6330    6.3044   -3.5680 C   0  0  1  0  0  0  0  0  0  0  0  0
    5.2245    4.9077   -3.2526 C   0  0  1  0  0  0  0  0  0  0  0  0
    4.1554    3.9799   -3.3632 O   0  0  0  0  0  0  0  0  0  0  0  0
    6.4084    4.4772   -4.1802 C   0  0  2  0  0  0  0  0  0  0  0  0
    8.5708    5.2769   -5.1843 N   0  3  0  0  0  0  0  0  0  0  0  0
    0.8975    5.4505   -2.8827 C   0  0  0  0  0  0  0  0  0  0  0  0
    0.0459    6.0370   -1.7301 C   0  0  2  0  0  0  0  0  0  0  0  0
   -1.0036    6.7943   -2.3311 O   0  0  0  0  0  0  0  0  0  0  0  0
    0.9512    6.9528   -0.8228 C   0  0  1  0  0  0  0  0  0  0  0  0
    1.8061    7.9736   -1.6480 C   0  0  2  0  0  0  0  0  0  0  0  0
    2.4920    7.3449   -2.8874 C   0  0  1  0  0  0  0  0  0  0  0  0
    3.6911    6.6219   -2.5038 O   0  0  0  0  0  0  0  0  0  0  0  0
    1.5633    6.5040   -3.6287 O   0  0  0  0  0  0  0  0  0  0  0  0
    2.8004    8.5955   -0.8381 O   0  0  0  0  0  0  0  0  0  0  0  0
    0.1028    7.6658    0.1823 N   0  3  0  0  0  0  0  0  0  0  0  0
    0.7208    7.9647    1.4902 C   0  0  0  0  0  0  0  0  0  0  0  0
   -0.6140    4.8682   -0.9578 C   0  0  0  0  0  0  0  0  0  0  0  0
  1  8  1  0  0  0  0
  1  9  1  1  0  0  0
  1  2  1  0  0  0  0
  2  3  1  0  0  0  0
  3  5  1  0  0  0  0
  3  4  1  6  0  0  0
  5  7  1  0  0  0  0
  5  6  1  6  0  0  0
  7  8  1  0  0  0  0
  9 10  1  0  0  0  0
 11 12  1  0  0  0  0
 11 18  1  0  0  0  0
 11 19  1  6  0  0  0
 12 13  1  0  0  0  0
 13 15  1  0  0  0  0
 13 14  1  6  0  0  0
 15 16  1  0  0  0  0
 15 26  1  1  0  0  0
 16 18  1  0  0  0  0
 16 17  1  6  0  0  0
 18  4  1  1  0  0  0
 20 21  1  0  0  0  0
 20 27  1  0  0  0  0
 21 31  1  1  0  0  0
 21 23  1  0  0  0  0
 21 22  1  0  0  0  0
 23 24  1  0  0  0  0
 23 29  1  1  0  0  0
 24 25  1  0  0  0  0
 24 28  1  1  0  0  0
 25 27  1  0  0  0  0
 25 26  1  1  0  0  0
 29 30  1  0  0  0  0
M  CHG  5   6   1  10   1  14   1  19   1  29   1
M  END
>  <CHROM.1>
58.49420931,96.62926039,21.93954508,-46.21879616,172.36602409,130.12805360
-175.11912870,94.67575631,-69.18722756,-68.75395679,-90.47095364,-65.70418183
-163.19959291,4.78902415,5.20435783,-2.37875950,0.19422219,-0.50780756,2.28670043

>  <Name>
1byj cryst

>  <RI>
0

>  <Rbt.Current_Directory>
/home/itssahil/PROJECTS/Mol_Feturizer/New_Systems/rnas/1byj

>  <Rbt.Executable>
rbdock ($Id: //depot/dev/client3/rdock/2013.1/src/exe/rbdock.cxx#4 $)

>  <Rbt.Library>
libRbt.so (2013.1, Build901 2013/11/27)

>  <Rbt.Parameter_File>
/export/apps/rDock/src/rDock_2013.1_src/data/scripts/dock_solv.prm

>  <Rbt.Receptor>
prm/pocket_docking_5.prm

>  <SCORE>
-48.7419

>  <SCORE.INTER>
-51.6306

>  <SCORE.INTER.CONST>
1

>  <SCORE.INTER.POLAR>
-7.88104

>  <SCORE.INTER.ROT>
6

>  <SCORE.INTER.SOLV>
21.361

>  <SCORE.INTER.VDW>
-22.8706

>  <SCORE.INTER.norm>
-1.6655

>  <SCORE.INTRA>
2.88867

>  <SCORE.INTRA.DIHEDRAL>
4.32619

>  <SCORE.INTRA.DIHEDRAL.0>
18.4149

>  <SCORE.INTRA.POLAR>
0

>  <SCORE.INTRA.POLAR.0>
0

>  <SCORE.INTRA.REPUL>
-0.092687

>  <SCORE.INTRA.REPUL.0>
0.092687

>  <SCORE.INTRA.SOLV>
2.54962

>  <SCORE.INTRA.SOLV.lig_0>
-120.37

>  <SCORE.INTRA.VDW>
-0.0857984

>  <SCORE.INTRA.VDW.0>
-1.75542

>  <SCORE.INTRA.norm>
0.093183

>  <SCORE.RESTR>
0

>  <SCORE.RESTR.CAVITY>
0

>  <SCORE.RESTR.norm>
0

>  <SCORE.SYSTEM>
0

>  <SCORE.SYSTEM.CONST>
0

>  <SCORE.SYSTEM.DIHEDRAL>
0

>  <SCORE.SYSTEM.SOLV>
0

>  <SCORE.SYSTEM.norm>
0

>  <SCORE.heavy>
31

>  <SCORE.norm>
-1.57232

>  <RMSD>
2.641

$$$$
1byj cryst
 OpenBabel11021811383D
libRbt.so/2013.1/901 2013/11/27
 31 33  0  0  0  0  0  0  0  0999 V2000
    7.8017    2.0148   -0.8513 C   0  0  1  0  0  0  0  0  0  0  0  0
    8.2612    3.2667   -1.4545 O   0  0  0  0  0  0  0  0  0  0  0  0
    8.4545    3.3174   -2.8998 C   0  0  2  0  0  0  0  0  0  0  0  0
    7.1805    3.2225   -3.6102 O   0  0  0  0  0  0  0  0  0  0  0  0
    9.4219    2.1733   -3.3306 C   0  0  2  0  0  0  0  0  0  0  0  0
    9.6788    2.1443   -4.7840 N   0  3  0  0  0  0  0  0  0  0  0  0
    8.8737    0.8043   -2.8515 C   0  0  0  0  0  0  0  0  0  0  0  0
    8.6457    0.8024   -1.3324 C   0  0  0  0  0  0  0  0  0  0  0  0
    7.8948    2.1217    0.6810 C   0  0  0  0  0  0  0  0  0  0  0  0
    9.2335    2.4747    1.1714 N   0  3  0  0  0  0  0  0  0  0  0  0
    7.7044    5.5403   -4.2612 C   0  0  1  0  0  0  0  0  0  0  0  0
    7.1266    6.8871   -4.7600 C   0  0  0  0  0  0  0  0  0  0  0  0
    6.0075    7.3850   -3.8063 C   0  0  1  0  0  0  0  0  0  0  0  0
    5.5204    8.7053   -4.2496 N   0  3  0  0  0  0  0  0  0  0  0  0
    4.8591    6.3378   -3.7301 C   0  0  1  0  0  0  0  0  0  0  0  0
    5.3889    4.9366   -3.3350 C   0  0  1  0  0  0  0  0  0  0  0  0
    4.2965    4.0387   -3.4633 O   0  0  0  0  0  0  0  0  0  0  0  0
    6.6009    4.4345   -4.1872 C   0  0  2  0  0  0  0  0  0  0  0  0
    8.8336    5.1279   -5.1134 N   0  3  0  0  0  0  0  0  0  0  0  0
    1.6655    5.9156   -0.7845 C   0  0  0  0  0  0  0  0  0  0  0  0
    0.7210    7.1399   -0.7042 C   0  0  2  0  0  0  0  0  0  0  0  0
   -0.5578    6.7110   -1.1700 O   0  0  0  0  0  0  0  0  0  0  0  0
    1.2880    8.2997   -1.6068 C   0  0  1  0  0  0  0  0  0  0  0  0
    1.6829    7.8162   -3.0435 C   0  0  2  0  0  0  0  0  0  0  0  0
    2.4832    6.4890   -3.0502 C   0  0  1  0  0  0  0  0  0  0  0  0
    3.8784    6.7249   -2.7256 O   0  0  0  0  0  0  0  0  0  0  0  0
    1.8763    5.5079   -2.1626 O   0  0  0  0  0  0  0  0  0  0  0  0
    2.4321    8.8087   -3.7399 O   0  0  0  0  0  0  0  0  0  0  0  0
    0.2941    9.4157   -1.6799 N   0  3  0  0  0  0  0  0  0  0  0  0
    0.7443   10.6746   -2.3079 C   0  0  0  0  0  0  0  0  0  0  0  0
    0.5579    7.5426    0.7822 C   0  0  0  0  0  0  0  0  0  0  0  0
  1  8  1  0  0  0  0
  1  9  1  1  0  0  0
  1  2  1  0  0  0  0
  2  3  1  0  0  0  0
  3  5  1  0  0  0  0
  3  4  1  6  0  0  0
  5  7  1  0  0  0  0
  5  6  1  6  0  0  0
  7  8  1  0  0  0  0
  9 10  1  0  0  0  0
 11 12  1  0  0  0  0
 11 18  1  0  0  0  0
 11 19  1  6  0  0  0
 12 13  1  0  0  0  0
 13 15  1  0  0  0  0
 13 14  1  6  0  0  0
 15 16  1  0  0  0  0
 15 26  1  1  0  0  0
 16 18  1  0  0  0  0
 16 17  1  6  0  0  0
 18  4  1  1  0  0  0
 20 21  1  0  0  0  0
 20 27  1  0  0  0  0
 21 31  1  1  0  0  0
 21 23  1  0  0  0  0
 21 22  1  0  0  0  0
 23 24  1  0  0  0  0
 23 29  1  6  0  0  0
 24 25  1  0  0  0  0
 24 28  1  1  0  0  0
 25 27  1  0  0  0  0
 25 26  1  1  0  0  0
 29 30  1  0  0  0  0
M  CHG  5   6   1  10   1  14   1  19   1  29   1
M  END
>  <CHROM.1>
-55.53358303,103.57390897,16.18465000,71.34367360,-24.52791668,14.41433182
-37.84826102,140.96447725,179.89670699,55.85967355,-68.30399804,49.27671887
-120.06862208,5.12055679,5.39608795,-2.53333406,0.35197080,-0.54466652,2.29816068

>  <Name>
1byj cryst

>  <RI>
0

>  <Rbt.Current_Directory>
/home/itssahil/PROJECTS/Mol_Feturizer/New_Systems/rnas/1byj

>  <Rbt.Executable>
rbdock ($Id: //depot/dev/client3/rdock/2013.1/src/exe/rbdock.cxx#4 $)

>  <Rbt.Library>
libRbt.so (2013.1, Build901 2013/11/27)

>  <Rbt.Parameter_File>
/export/apps/rDock/src/rDock_2013.1_src/data/scripts/dock_solv.prm

>  <Rbt.Receptor>
prm/pocket_docking_7.prm

>  <SCORE>
-49.5764

>  <SCORE.INTER>
-60.9691

>  <SCORE.INTER.CONST>
1

>  <SCORE.INTER.POLAR>
-9.18086

>  <SCORE.INTER.ROT>
6

>  <SCORE.INTER.SOLV>
28.3051

>  <SCORE.INTER.VDW>
-27.0783

>  <SCORE.INTER.norm>
-1.96675

>  <SCORE.INTRA>
11.3928

>  <SCORE.INTRA.DIHEDRAL>
13.8106

>  <SCORE.INTRA.DIHEDRAL.0>
18.4149

>  <SCORE.INTRA.POLAR>
0

>  <SCORE.INTRA.POLAR.0>
0

>  <SCORE.INTRA.REPUL>
-0.0691253

>  <SCORE.INTRA.REPUL.0>
0.092687

>  <SCORE.INTRA.SOLV>
5.88851

>  <SCORE.INTRA.SOLV.lig_0>
-120.37

>  <SCORE.INTRA.VDW>
1.88884

>  <SCORE.INTRA.VDW.0>
-1.75542

>  <SCORE.INTRA.norm>
0.367509

>  <SCORE.RESTR>
0

>  <SCORE.RESTR.CAVITY>
0

>  <SCORE.RESTR.norm>
0

>  <SCORE.SYSTEM>
0

>  <SCORE.SYSTEM.CONST>
0

>  <SCORE.SYSTEM.DIHEDRAL>
0

>  <SCORE.SYSTEM.SOLV>
0

>  <SCORE.SYSTEM.norm>
0

>  <SCORE.heavy>
31

>  <SCORE.norm>
-1.59924

>  <RMSD>
2.641

$$$$
1byj cryst
 OpenBabel11021811383D
libRbt.so/2013.1/901 2013/11/27
 31 33  0  0  0  0  0  0  0  0999 V2000
    7.5359    2.2322   -0.8087 C   0  0  1  0  0  0  0  0  0  0  0  0
    7.9688    3.4579   -1.4814 O   0  0  0  0  0  0  0  0  0  0  0  0
    8.2770    3.4025   -2.9063 C   0  0  2  0  0  0  0  0  0  0  0  0
    7.0736    3.1661   -3.7018 O   0  0  0  0  0  0  0  0  0  0  0  0
    9.3423    2.2930   -3.1603 C   0  0  2  0  0  0  0  0  0  0  0  0
    9.7192    2.1619   -4.5815 N   0  3  0  0  0  0  0  0  0  0  0  0
    8.8382    0.9349   -2.6075 C   0  0  0  0  0  0  0  0  0  0  0  0
    8.4866    1.0425   -1.1161 C   0  0  0  0  0  0  0  0  0  0  0  0
    7.4960    2.4703    0.7111 C   0  0  0  0  0  0  0  0  0  0  0  0
    6.4752    3.4380    1.1339 N   0  3  0  0  0  0  0  0  0  0  0  0
    7.2142    5.5632   -4.2537 C   0  0  1  0  0  0  0  0  0  0  0  0
    6.4139    6.8399   -4.6087 C   0  0  0  0  0  0  0  0  0  0  0  0
    5.3444    7.1308   -3.5218 C   0  0  1  0  0  0  0  0  0  0  0  0
    4.6428    8.3911   -3.8321 N   0  3  0  0  0  0  0  0  0  0  0  0
    4.3594    5.9322   -3.4006 C   0  0  1  0  0  0  0  0  0  0  0  0
    5.1090    4.6002   -3.1473 C   0  0  1  0  0  0  0  0  0  0  0  0
    4.1380    3.5671   -3.2255 O   0  0  0  0  0  0  0  0  0  0  0  0
    6.2811    4.3130   -4.1428 C   0  0  2  0  0  0  0  0  0  0  0  0
    8.2930    5.3534   -5.2354 N   0  3  0  0  0  0  0  0  0  0  0  0
    1.0401    4.5484   -1.2697 C   0  0  0  0  0  0  0  0  0  0  0  0
    0.2667    5.5226   -0.3476 C   0  0  2  0  0  0  0  0  0  0  0  0
   -1.0304    5.6942   -0.9169 O   0  0  0  0  0  0  0  0  0  0  0  0
    1.0345    6.8961   -0.2741 C   0  0  1  0  0  0  0  0  0  0  0  0
    1.4396    7.4440   -1.6846 C   0  0  2  0  0  0  0  0  0  0  0  0
    2.0523    6.3653   -2.6135 C   0  0  1  0  0  0  0  0  0  0  0  0
    3.4464    6.1301   -2.2836 O   0  0  0  0  0  0  0  0  0  0  0  0
    1.2701    5.1382   -2.5771 O   0  0  0  0  0  0  0  0  0  0  0  0
    2.3536    8.5324   -1.5783 O   0  0  0  0  0  0  0  0  0  0  0  0
    0.2061    7.8997    0.4641 N   0  3  0  0  0  0  0  0  0  0  0  0
    0.8445    8.5871    1.6052 C   0  0  0  0  0  0  0  0  0  0  0  0
    0.0773    4.8505    1.0347 C   0  0  0  0  0  0  0  0  0  0  0  0
  1  8  1  0  0  0  0
  1  9  1  1  0  0  0
  1  2  1  0  0  0  0
  2  3  1  0  0  0  0
  3  5  1  0  0  0  0
  3  4  1  6  0  0  0
  5  7  1  0  0  0  0
  5  6  1  6  0  0  0
  7  8  1  0  0  0  0
  9 10  1  0  0  0  0
 11 12  1  0  0  0  0
 11 18  1  0  0  0  0
 11 19  1  6  0  0  0
 12 13  1  0  0  0  0
 13 15  1  0  0  0  0
 13 14  1  6  0  0  0
 15 16  1  0  0  0  0
 15 26  1  1  0  0  0
 16 18  1  0  0  0  0
 16 17  1  6  0  0  0
 18  4  1  1  0  0  0
 20 21  1  0  0  0  0
 20 27  1  0  0  0  0
 21 31  1  1  0  0  0
 21 23  1  0  0  0  0
 21 22  1  0  0  0  0
 23 24  1  0  0  0  0
 23 29  1  6  0  0  0
 24 25  1  0  0  0  0
 24 28  1  1  0  0  0
 25 27  1  0  0  0  0
 25 26  1  1  0  0  0
 29 30  1  0  0  0  0
M  CHG  5   6   1  10   1  14   1  19   1  29   1
M  END
>  <CHROM.1>
66.20956821,88.20540986,26.78583438,-165.36007859,-66.83625226,16.05273480
179.41197861,111.55250492,-62.04559422,173.32910637,-112.41816799,-61.74549333
-140.29090909,4.68604970,4.99271985,-2.07316553,0.10662041,-0.53311081,2.31807265

>  <Name>
1byj cryst

>  <RI>
0

>  <Rbt.Current_Directory>
/home/itssahil/PROJECTS/Mol_Feturizer/New_Systems/rnas/1byj

>  <Rbt.Executable>
rbdock ($Id: //depot/dev/client3/rdock/2013.1/src/exe/rbdock.cxx#4 $)

>  <Rbt.Library>
libRbt.so (2013.1, Build901 2013/11/27)

>  <Rbt.Parameter_File>
/export/apps/rDock/src/rDock_2013.1_src/data/scripts/dock_solv.prm

>  <Rbt.Receptor>
prm/pocket_docking_8.prm

>  <SCORE>
-47.5892

>  <SCORE.INTER>
-49.3282

>  <SCORE.INTER.CONST>
1

>  <SCORE.INTER.POLAR>
-8.19841

>  <SCORE.INTER.ROT>
6

>  <SCORE.INTER.SOLV>
20.6254

>  <SCORE.INTER.VDW>
-20.0326

>  <SCORE.INTER.norm>
-1.59123

>  <SCORE.INTRA>
1.73899

>  <SCORE.INTRA.DIHEDRAL>
8.84309

>  <SCORE.INTRA.DIHEDRAL.0>
18.4149

>  <SCORE.INTRA.POLAR>
-0.937007

>  <SCORE.INTRA.POLAR.0>
0

>  <SCORE.INTRA.REPUL>
-0.092687

>  <SCORE.INTRA.REPUL.0>
0.092687

>  <SCORE.INTRA.SOLV>
2.42715

>  <SCORE.INTRA.SOLV.lig_0>
-120.37

>  <SCORE.INTRA.VDW>
-0.246874

>  <SCORE.INTRA.VDW.0>
-1.75542

>  <SCORE.INTRA.norm>
0.0560964

>  <SCORE.RESTR>
0

>  <SCORE.RESTR.CAVITY>
0

>  <SCORE.RESTR.norm>
0

>  <SCORE.SYSTEM>
0

>  <SCORE.SYSTEM.CONST>
0

>  <SCORE.SYSTEM.DIHEDRAL>
0

>  <SCORE.SYSTEM.SOLV>
0

>  <SCORE.SYSTEM.norm>
0

>  <SCORE.heavy>
31

>  <SCORE.norm>
-1.53513

>  <RMSD>
2.641

$$$$
1byj cryst
 OpenBabel11021811383D
libRbt.so/2013.1/901 2013/11/27
 31 33  0  0  0  0  0  0  0  0999 V2000
    9.4477    1.9363   -3.1837 C   0  0  1  0  0  0  0  0  0  0  0  0
    8.0713    2.0281   -3.6728 O   0  0  0  0  0  0  0  0  0  0  0  0
    7.0223    2.4259   -2.7401 C   0  0  2  0  0  0  0  0  0  0  0  0
    7.1720    3.8227   -2.3360 O   0  0  0  0  0  0  0  0  0  0  0  0
    7.0479    1.4794   -1.5016 C   0  0  2  0  0  0  0  0  0  0  0  0
    6.0165    1.8062   -0.4975 N   0  3  0  0  0  0  0  0  0  0  0  0
    8.4561    1.4901   -0.8528 C   0  0  0  0  0  0  0  0  0  0  0  0
    9.5371    1.1052   -1.8741 C   0  0  0  0  0  0  0  0  0  0  0  0
   10.3303    1.2820   -4.2612 C   0  0  0  0  0  0  0  0  0  0  0  0
    9.5919    0.8642   -5.4601 N   0  3  0  0  0  0  0  0  0  0  0  0
    7.5702    5.6376   -3.9539 C   0  0  1  0  0  0  0  0  0  0  0  0
    6.9388    6.8256   -4.7198 C   0  0  0  0  0  0  0  0  0  0  0  0
    6.2823    7.8239   -3.7287 C   0  0  1  0  0  0  0  0  0  0  0  0
    5.7536    8.9881   -4.4649 N   0  3  0  0  0  0  0  0  0  0  0  0
    5.1761    7.1103   -2.8988 C   0  0  1  0  0  0  0  0  0  0  0  0
    5.7216    5.8470   -2.1869 C   0  0  1  0  0  0  0  0  0  0  0  0
    4.6022    5.1916   -1.6094 O   0  0  0  0  0  0  0  0  0  0  0  0
    6.5013    4.8605   -3.1176 C   0  0  2  0  0  0  0  0  0  0  0  0
    8.2791    4.7502   -4.8927 N   0  3  0  0  0  0  0  0  0  0  0  0
    1.6249    7.7504   -2.0915 C   0  0  0  0  0  0  0  0  0  0  0  0
    1.0541    8.6692   -0.9836 C   0  0  2  0  0  0  0  0  0  0  0  0
    0.2727    9.6704   -1.6340 O   0  0  0  0  0  0  0  0  0  0  0  0
    2.2415    9.3186   -0.1775 C   0  0  1  0  0  0  0  0  0  0  0  0
    3.3384    9.9431   -1.1054 C   0  0  2  0  0  0  0  0  0  0  0  0
    3.7349    9.0303   -2.2934 C   0  0  1  0  0  0  0  0  0  0  0  0
    4.6594    7.9962   -1.8649 O   0  0  0  0  0  0  0  0  0  0  0  0
    2.5564    8.4725   -2.9405 O   0  0  0  0  0  0  0  0  0  0  0  0
    4.5129   10.2787   -0.3711 O   0  0  0  0  0  0  0  0  0  0  0  0
    1.7072   10.3438    0.7722 N   0  3  0  0  0  0  0  0  0  0  0  0
    2.5862   10.7459    1.8891 C   0  0  0  0  0  0  0  0  0  0  0  0
    0.0930    7.8384   -0.0981 C   0  0  0  0  0  0  0  0  0  0  0  0
  1  8  1  0  0  0  0
  1  9  1  6  0  0  0
  1  2  1  0  0  0  0
  2  3  1  0  0  0  0
  3  5  1  0  0  0  0
  3  4  1  1  0  0  0
  5  7  1  0  0  0  0
  5  6  1  1  0  0  0
  7  8  1  0  0  0  0
  9 10  1  0  0  0  0
 11 12  1  0  0  0  0
 11 18  1  0  0  0  0
 11 19  1  6  0  0  0
 12 13  1  0  0  0  0
 13 15  1  0  0  0  0
 13 14  1  6  0  0  0
 15 16  1  0  0  0  0
 15 26  1  1  0  0  0
 16 18  1  0  0  0  0
 16 17  1  6  0  0  0
 18  4  1  1  0  0  0
 20 21  1  0  0  0  0
 20 27  1  0  0  0  0
 21 31  1  1  0  0  0
 21 23  1  0  0  0  0
 21 22  1  0  0  0  0
 23 24  1  0  0  0  0
 23 29  1  1  0  0  0
 24 25  1  0  0  0  0
 24 28  1  1  0  0  0
 25 27  1  0  0  0  0
 25 26  1  1  0  0  0
 29 30  1  0  0  0  0
M  CHG  5   6   1  10   1  14   1  19   1  29   1
M  END
>  <CHROM.1>
-2.54491712,90.40577790,-106.83999151,66.98643862,-52.01507970,-40.33796662
-172.67862830,76.88638555,63.37694434,174.93426996,-77.63583654,69.86389611
-176.61076685,5.39621773,5.99196558,-2.22756657,0.49161327,-0.76485970,2.55404472

>  <Name>
1byj cryst

>  <RI>
0

>  <Rbt.Current_Directory>
/home/itssahil/PROJECTS/Mol_Feturizer/New_Systems/rnas/1byj

>  <Rbt.Executable>
rbdock ($Id: //depot/dev/client3/rdock/2013.1/src/exe/rbdock.cxx#4 $)

>  <Rbt.Library>
libRbt.so (2013.1, Build901 2013/11/27)

>  <Rbt.Parameter_File>
/export/apps/rDock/src/rDock_2013.1_src/data/scripts/dock_solv.prm

>  <Rbt.Receptor>
prm/pocket_docking_7.prm

>  <SCORE>
-40.5018

>  <SCORE.INTER>
-39.0482

>  <SCORE.INTER.CONST>
1

>  <SCORE.INTER.POLAR>
-5.38698

>  <SCORE.INTER.ROT>
6

>  <SCORE.INTER.SOLV>
25.9757

>  <SCORE.INTER.VDW>
-24.3341

>  <SCORE.INTER.norm>
-1.25962

>  <SCORE.INTRA>
-1.4535

>  <SCORE.INTRA.DIHEDRAL>
1.27793

>  <SCORE.INTRA.DIHEDRAL.0>
18.4149

>  <SCORE.INTRA.POLAR>
-0.598427

>  <SCORE.INTRA.POLAR.0>
0

>  <SCORE.INTRA.REPUL>
-0.092687

>  <SCORE.INTRA.REPUL.0>
0.092687

>  <SCORE.INTRA.SOLV>
2.67261

>  <SCORE.INTRA.SOLV.lig_0>
-120.37

>  <SCORE.INTRA.VDW>
-0.930688

>  <SCORE.INTRA.VDW.0>
-1.75542

>  <SCORE.INTRA.norm>
-0.0468872

>  <SCORE.RESTR>
0

>  <SCORE.RESTR.CAVITY>
0

>  <SCORE.RESTR.norm>
0

>  <SCORE.SYSTEM>
0

>  <SCORE.SYSTEM.CONST>
0

>  <SCORE.SYSTEM.DIHEDRAL>
0

>  <SCORE.SYSTEM.SOLV>
0

>  <SCORE.SYSTEM.norm>
0

>  <SCORE.heavy>
31

>  <SCORE.norm>
-1.30651

>  <RMSD>
2.642

$$$$
1byj cryst
 OpenBabel11021811383D
libRbt.so/2013.1/901 2013/11/27
 31 33  0  0  0  0  0  0  0  0999 V2000
    5.5656    3.5307   -0.9186 C   0  0  1  0  0  0  0  0  0  0  0  0
    6.8387    4.1611   -1.2704 O   0  0  0  0  0  0  0  0  0  0  0  0
    7.7411    3.4579   -2.1759 C   0  0  2  0  0  0  0  0  0  0  0  0
    7.1877    3.3844   -3.5269 O   0  0  0  0  0  0  0  0  0  0  0  0
    8.0305    2.0338   -1.6116 C   0  0  2  0  0  0  0  0  0  0  0  0
    8.9392    1.2430   -2.4648 N   0  3  0  0  0  0  0  0  0  0  0  0
    6.7000    1.2703   -1.3862 C   0  0  0  0  0  0  0  0  0  0  0  0
    5.7612    2.0589   -0.4609 C   0  0  0  0  0  0  0  0  0  0  0  0
    4.8956    4.3293    0.2134 C   0  0  0  0  0  0  0  0  0  0  0  0
    4.5894    5.7210   -0.1426 N   0  3  0  0  0  0  0  0  0  0  0  0
    7.6253    5.7647   -3.9883 C   0  0  1  0  0  0  0  0  0  0  0  0
    7.0234    7.0978   -4.4954 C   0  0  0  0  0  0  0  0  0  0  0  0
    5.7553    7.4668   -3.6795 C   0  0  1  0  0  0  0  0  0  0  0  0
    5.2375    8.7761   -4.1207 N   0  3  0  0  0  0  0  0  0  0  0  0
    4.6849    6.3448   -3.8105 C   0  0  1  0  0  0  0  0  0  0  0  0
    5.2571    4.9605   -3.4151 C   0  0  1  0  0  0  0  0  0  0  0  0
    4.2585    4.0027   -3.7337 O   0  0  0  0  0  0  0  0  0  0  0  0
    6.6039    4.5875   -4.1181 C   0  0  2  0  0  0  0  0  0  0  0  0
    8.8839    5.4758   -4.6982 N   0  3  0  0  0  0  0  0  0  0  0  0
    0.8620    5.2762   -2.3924 C   0  0  0  0  0  0  0  0  0  0  0  0
   -0.0061    6.3628   -1.7118 C   0  0  2  0  0  0  0  0  0  0  0  0
   -1.1313    6.5889   -2.5596 O   0  0  0  0  0  0  0  0  0  0  0  0
    0.8415    7.6794   -1.5399 C   0  0  1  0  0  0  0  0  0  0  0  0
    1.5850    8.1013   -2.8526 C   0  0  2  0  0  0  0  0  0  0  0  0
    2.2893    6.9217   -3.5698 C   0  0  1  0  0  0  0  0  0  0  0  0
    3.5550    6.6094   -2.9309 O   0  0  0  0  0  0  0  0  0  0  0  0
    1.4164    5.7592   -3.6451 O   0  0  0  0  0  0  0  0  0  0  0  0
    2.5437    9.1258   -2.6025 O   0  0  0  0  0  0  0  0  0  0  0  0
   -0.0379    8.7871   -1.0520 N   0  3  0  0  0  0  0  0  0  0  0  0
   -0.3442    8.8135    0.3927 C   0  0  0  0  0  0  0  0  0  0  0  0
   -0.5441    5.8000   -0.3732 C   0  0  0  0  0  0  0  0  0  0  0  0
  1  8  1  0  0  0  0
  1  9  1  1  0  0  0
  1  2  1  0  0  0  0
  2  3  1  0  0  0  0
  3  5  1  0  0  0  0
  3  4  1  6  0  0  0
  5  7  1  0  0  0  0
  5  6  1  6  0  0  0
  7  8  1  0  0  0  0
  9 10  1  0  0  0  0
 11 12  1  0  0  0  0
 11 18  1  0  0  0  0
 11 19  1  6  0  0  0
 12 13  1  0  0  0  0
 13 15  1  0  0  0  0
 13 14  1  6  0  0  0
 15 16  1  0  0  0  0
 15 26  1  1  0  0  0
 16 18  1  0  0  0  0
 16 17  1  6  0  0  0
 18  4  1  1  0  0  0
 20 21  1  0  0  0  0
 20 27  1  0  0  0  0
 21 31  1  1  0  0  0
 21 23  1  0  0  0  0
 21 22  1  0  0  0  0
 23 24  1  0  0  0  0
 23 29  1  6  0  0  0
 24 25  1  0  0  0  0
 24 28  1  1  0  0  0
 25 27  1  0  0  0  0
 25 26  1  1  0  0  0
 29 30  1  0  0  0  0
M  CHG  5   6   1  10   1  14   1  19   1  29   1
M  END
>  <CHROM.1>
60.92752625,45.80831294,51.17470112,-61.96693039,46.06162326,-39.29331013
-54.33718470,112.75628310,-172.64254983,-128.58926016,-158.77814467,-63.33830356
-136.98653335,4.26836633,5.56150547,-2.41719163,0.37316774,-0.40340312,2.56300356

>  <Name>
1byj cryst

>  <RI>
0

>  <Rbt.Current_Directory>
/home/itssahil/PROJECTS/Mol_Feturizer/New_Systems/rnas/1byj

>  <Rbt.Executable>
rbdock ($Id: //depot/dev/client3/rdock/2013.1/src/exe/rbdock.cxx#4 $)

>  <Rbt.Library>
libRbt.so (2013.1, Build901 2013/11/27)

>  <Rbt.Parameter_File>
/export/apps/rDock/src/rDock_2013.1_src/data/scripts/dock_solv.prm

>  <Rbt.Receptor>
prm/pocket_docking_4.prm

>  <SCORE>
-41.0748

>  <SCORE.INTER>
-37.1964

>  <SCORE.INTER.CONST>
1

>  <SCORE.INTER.POLAR>
-5.69338

>  <SCORE.INTER.ROT>
6

>  <SCORE.INTER.SOLV>
20.8387

>  <SCORE.INTER.VDW>
-20.3659

>  <SCORE.INTER.norm>
-1.19989

>  <SCORE.INTRA>
-3.87834

>  <SCORE.INTRA.DIHEDRAL>
5.60033

>  <SCORE.INTRA.DIHEDRAL.0>
18.4149

>  <SCORE.INTRA.POLAR>
-2.32888

>  <SCORE.INTRA.POLAR.0>
0

>  <SCORE.INTRA.REPUL>
-0.0814038

>  <SCORE.INTRA.REPUL.0>
0.092687

>  <SCORE.INTRA.SOLV>
3.29719

>  <SCORE.INTRA.SOLV.lig_0>
-120.37

>  <SCORE.INTRA.VDW>
-0.00188197

>  <SCORE.INTRA.VDW.0>
-1.75542

>  <SCORE.INTRA.norm>
-0.125108

>  <SCORE.RESTR>
0

>  <SCORE.RESTR.CAVITY>
0

>  <SCORE.RESTR.norm>
0

>  <SCORE.SYSTEM>
0

>  <SCORE.SYSTEM.CONST>
0

>  <SCORE.SYSTEM.DIHEDRAL>
0

>  <SCORE.SYSTEM.SOLV>
0

>  <SCORE.SYSTEM.norm>
0

>  <SCORE.heavy>
31

>  <SCORE.norm>
-1.32499

>  <RMSD>
2.643

$$$$
1byj cryst
 OpenBabel11021811383D
libRbt.so/2013.1/901 2013/11/27
 31 33  0  0  0  0  0  0  0  0999 V2000
    9.3806    1.7599   -3.1984 C   0  0  1  0  0  0  0  0  0  0  0  0
    8.0880    2.2056   -3.7203 O   0  0  0  0  0  0  0  0  0  0  0  0
    7.2456    3.0474   -2.8775 C   0  0  2  0  0  0  0  0  0  0  0  0
    7.8378    4.3702   -2.6867 O   0  0  0  0  0  0  0  0  0  0  0  0
    7.0115    2.3368   -1.5098 C   0  0  2  0  0  0  0  0  0  0  0  0
    6.1658    3.1172   -0.5853 N   0  3  0  0  0  0  0  0  0  0  0  0
    8.3714    2.0009   -0.8450 C   0  0  0  0  0  0  0  0  0  0  0  0
    9.2453    1.1479   -1.7767 C   0  0  0  0  0  0  0  0  0  0  0  0
    9.9802    0.7083   -4.1485 C   0  0  0  0  0  0  0  0  0  0  0  0
   10.2104    1.2029   -5.5122 N   0  3  0  0  0  0  0  0  0  0  0  0
    8.4530    6.5807   -3.5842 C   0  0  1  0  0  0  0  0  0  0  0  0
    7.9463    7.8453   -4.3195 C   0  0  0  0  0  0  0  0  0  0  0  0
    6.7367    8.4631   -3.5678 C   0  0  1  0  0  0  0  0  0  0  0  0
    6.3140    9.7093   -4.2351 N   0  3  0  0  0  0  0  0  0  0  0  0
    5.5757    7.4311   -3.4753 C   0  0  1  0  0  0  0  0  0  0  0  0
    6.0452    6.0985   -2.8399 C   0  0  1  0  0  0  0  0  0  0  0  0
    4.9635    5.1870   -2.9629 O   0  0  0  0  0  0  0  0  0  0  0  0
    7.3363    5.4906   -3.4810 C   0  0  2  0  0  0  0  0  0  0  0  0
    9.6627    6.0614   -4.2462 N   0  3  0  0  0  0  0  0  0  0  0  0
    1.4450    7.9241   -2.5795 C   0  0  0  0  0  0  0  0  0  0  0  0
    1.0432    9.1375   -1.7055 C   0  0  2  0  0  0  0  0  0  0  0  0
    0.2748   10.0105   -2.5323 O   0  0  0  0  0  0  0  0  0  0  0  0
    2.3416    9.8587   -1.1808 C   0  0  1  0  0  0  0  0  0  0  0  0
    3.3877   10.1313   -2.3145 C   0  0  2  0  0  0  0  0  0  0  0  0
    3.6094    8.9194   -3.2547 C   0  0  1  0  0  0  0  0  0  0  0  0
    4.4971    7.9465   -2.6437 O   0  0  0  0  0  0  0  0  0  0  0  0
    2.3407    8.3254   -3.6503 O   0  0  0  0  0  0  0  0  0  0  0  0
    4.6453   10.5332   -1.7778 O   0  0  0  0  0  0  0  0  0  0  0  0
    1.9687   11.1319   -0.4893 N   0  3  0  0  0  0  0  0  0  0  0  0
    1.7880   11.0715    0.9755 C   0  0  0  0  0  0  0  0  0  0  0  0
    0.1139    8.6432   -0.5696 C   0  0  0  0  0  0  0  0  0  0  0  0
  1  8  1  0  0  0  0
  1  9  1  6  0  0  0
  1  2  1  0  0  0  0
  2  3  1  0  0  0  0
  3  5  1  0  0  0  0
  3  4  1  1  0  0  0
  5  7  1  0  0  0  0
  5  6  1  1  0  0  0
  7  8  1  0  0  0  0
  9 10  1  0  0  0  0
 11 12  1  0  0  0  0
 11 18  1  0  0  0  0
 11 19  1  6  0  0  0
 12 13  1  0  0  0  0
 13 15  1  0  0  0  0
 13 14  1  6  0  0  0
 15 16  1  0  0  0  0
 15 26  1  1  0  0  0
 16 18  1  0  0  0  0
 16 17  1  6  0  0  0
 18  4  1  1  0  0  0
 20 21  1  0  0  0  0
 20 27  1  0  0  0  0
 21 31  1  1  0  0  0
 21 23  1  0  0  0  0
 21 22  1  0  0  0  0
 23 24  1  0  0  0  0
 23 29  1  6  0  0  0
 24 25  1  0  0  0  0
 24 28  1  1  0  0  0
 25 27  1  0  0  0  0
 25 26  1  1  0  0  0
 29 30  1  0  0  0  0
M  CHG  5   6   1  10   1  14   1  19   1  29   1
M  END
>  <CHROM.1>
60.15262584,100.63728669,-155.65946775,63.90279632,-48.47638363,89.88087851
76.84115861,78.16270821,71.32405789,62.04732218,-145.01001351,-58.08578839
-132.97921752,5.60420362,6.42438754,-2.63739233,0.68888667,-0.53046430,2.80389196

>  <Name>
1byj cryst

>  <RI>
0

>  <Rbt.Current_Directory>
/home/itssahil/PROJECTS/Mol_Feturizer/New_Systems/rnas/1byj

>  <Rbt.Executable>
rbdock ($Id: //depot/dev/client3/rdock/2013.1/src/exe/rbdock.cxx#4 $)

>  <Rbt.Library>
libRbt.so (2013.1, Build901 2013/11/27)

>  <Rbt.Parameter_File>
/export/apps/rDock/src/rDock_2013.1_src/data/scripts/dock_solv.prm

>  <Rbt.Receptor>
prm/pocket_docking_6.prm

>  <SCORE>
-57.3255

>  <SCORE.INTER>
-53.6851

>  <SCORE.INTER.CONST>
1

>  <SCORE.INTER.POLAR>
-7.48655

>  <SCORE.INTER.ROT>
6

>  <SCORE.INTER.SOLV>
26.9316

>  <SCORE.INTER.VDW>
-27.4121

>  <SCORE.INTER.norm>
-1.73178

>  <SCORE.INTRA>
-3.64038

>  <SCORE.INTRA.DIHEDRAL>
3.37096

>  <SCORE.INTRA.DIHEDRAL.0>
18.4149

>  <SCORE.INTRA.POLAR>
-1.28485

>  <SCORE.INTRA.POLAR.0>
0

>  <SCORE.INTRA.REPUL>
-0.092687

>  <SCORE.INTRA.REPUL.0>
0.092687

>  <SCORE.INTRA.SOLV>
0.3882

>  <SCORE.INTRA.SOLV.lig_0>
-120.37

>  <SCORE.INTRA.VDW>
-0.688049

>  <SCORE.INTRA.VDW.0>
-1.75542

>  <SCORE.INTRA.norm>
-0.117432

>  <SCORE.RESTR>
0

>  <SCORE.RESTR.CAVITY>
0

>  <SCORE.RESTR.norm>
0

>  <SCORE.SYSTEM>
0

>  <SCORE.SYSTEM.CONST>
0

>  <SCORE.SYSTEM.DIHEDRAL>
0

>  <SCORE.SYSTEM.SOLV>
0

>  <SCORE.SYSTEM.norm>
0

>  <SCORE.heavy>
31

>  <SCORE.norm>
-1.84921

>  <RMSD>
2.649

$$$$
1byj cryst
 OpenBabel11021811383D
libRbt.so/2013.1/901 2013/11/27
 31 33  0  0  0  0  0  0  0  0999 V2000
    6.3283    2.4988   -0.3314 C   0  0  1  0  0  0  0  0  0  0  0  0
    7.0800    3.6251   -0.8870 O   0  0  0  0  0  0  0  0  0  0  0  0
    7.8622    3.4138   -2.1003 C   0  0  2  0  0  0  0  0  0  0  0  0
    6.9981    3.1761   -3.2552 O   0  0  0  0  0  0  0  0  0  0  0  0
    8.8425    2.2217   -1.8803 C   0  0  2  0  0  0  0  0  0  0  0  0
    9.6804    1.9314   -3.0605 N   0  3  0  0  0  0  0  0  0  0  0  0
    8.0544    0.9567   -1.4529 C   0  0  0  0  0  0  0  0  0  0  0  0
    7.2133    1.2290   -0.1967 C   0  0  0  0  0  0  0  0  0  0  0  0
    5.7797    2.8843    1.0537 C   0  0  0  0  0  0  0  0  0  0  0  0
    4.8115    3.9883    1.0226 N   0  3  0  0  0  0  0  0  0  0  0  0
    7.1986    5.4731   -4.1234 C   0  0  1  0  0  0  0  0  0  0  0  0
    6.4287    6.7282   -4.6017 C   0  0  0  0  0  0  0  0  0  0  0  0
    5.4340    7.2047   -3.5094 C   0  0  1  0  0  0  0  0  0  0  0  0
    4.7644    8.4448   -3.9464 N   0  3  0  0  0  0  0  0  0  0  0  0
    4.4124    6.0774   -3.1821 C   0  0  1  0  0  0  0  0  0  0  0  0
    5.1238    4.7568   -2.7946 C   0  0  1  0  0  0  0  0  0  0  0  0
    4.1113    3.7671   -2.6871 O   0  0  0  0  0  0  0  0  0  0  0  0
    6.2263    4.2910   -3.8020 C   0  0  2  0  0  0  0  0  0  0  0  0
    8.2116    5.0900   -5.1226 N   0  3  0  0  0  0  0  0  0  0  0  0
    0.6941    5.5999   -2.6038 C   0  0  0  0  0  0  0  0  0  0  0  0
   -0.1232    6.1011   -1.3879 C   0  0  2  0  0  0  0  0  0  0  0  0
   -1.0923    7.0214   -1.8879 O   0  0  0  0  0  0  0  0  0  0  0  0
    0.8423    6.8043   -0.3610 C   0  0  1  0  0  0  0  0  0  0  0  0
    1.7970    7.8461   -1.0372 C   0  0  2  0  0  0  0  0  0  0  0  0
    2.4471    7.3295   -2.3458 C   0  0  1  0  0  0  0  0  0  0  0  0
    3.5719    6.4587   -2.0558 O   0  0  0  0  0  0  0  0  0  0  0  0
    1.4619    6.6802   -3.1983 O   0  0  0  0  0  0  0  0  0  0  0  0
    2.8274    8.2643   -0.1457 O   0  0  0  0  0  0  0  0  0  0  0  0
    0.0418    7.4495    0.7258 N   0  3  0  0  0  0  0  0  0  0  0  0
    0.7572    7.7949    1.9711 C   0  0  0  0  0  0  0  0  0  0  0  0
   -0.8956    4.9030   -0.7829 C   0  0  0  0  0  0  0  0  0  0  0  0
  1  8  1  0  0  0  0
  1  9  1  1  0  0  0
  1  2  1  0  0  0  0
  2  3  1  0  0  0  0
  3  5  1  0  0  0  0
  3  4  1  6  0  0  0
  5  7  1  0  0  0  0
  5  6  1  6  0  0  0
  7  8  1  0  0  0  0
  9 10  1  0  0  0  0
 11 12  1  0  0  0  0
 11 18  1  0  0  0  0
 11 19  1  6  0  0  0
 12 13  1  0  0  0  0
 13 15  1  0  0  0  0
 13 14  1  6  0  0  0
 15 16  1  0  0  0  0
 15 26  1  1  0  0  0
 16 18  1  0  0  0  0
 16 17  1  6  0  0  0
 18  4  1  1  0  0  0
 20 21  1  0  0  0  0
 20 27  1  0  0  0  0
 21 31  1  1  0  0  0
 21 23  1  0  0  0  0
 21 22  1  0  0  0  0
 23 24  1  0  0  0  0
 23 29  1  1  0  0  0
 24 25  1  0  0  0  0
 24 28  1  1  0  0  0
 25 27  1  0  0  0  0
 25 26  1  1  0  0  0
 29 30  1  0  0  0  0
M  CHG  5   6   1  10   1  14   1  19   1  29   1
M  END
>  <CHROM.1>
63.71223146,71.53834459,54.11630626,-65.54682965,-178.87523291,-82.54686253
-55.41912555,81.31774779,65.81801171,-60.50415671,-76.95230982,65.56195719
-170.15813074,4.40104057,5.18538275,-1.87204320,0.17299800,-0.51401958,2.26878269

>  <Name>
1byj cryst

>  <RI>
0

>  <Rbt.Current_Directory>
/home/itssahil/PROJECTS/Mol_Feturizer/New_Systems/rnas/1byj

>  <Rbt.Executable>
rbdock ($Id: //depot/dev/client3/rdock/2013.1/src/exe/rbdock.cxx#4 $)

>  <Rbt.Library>
libRbt.so (2013.1, Build901 2013/11/27)

>  <Rbt.Parameter_File>
/export/apps/rDock/src/rDock_2013.1_src/data/scripts/dock_solv.prm

>  <Rbt.Receptor>
prm/pocket_docking_5.prm

>  <SCORE>
-42.6175

>  <SCORE.INTER>
-34.5508

>  <SCORE.INTER.CONST>
1

>  <SCORE.INTER.POLAR>
-5.3492

>  <SCORE.INTER.ROT>
6

>  <SCORE.INTER.SOLV>
17.5732

>  <SCORE.INTER.VDW>
-18.661

>  <SCORE.INTER.norm>
-1.11454

>  <SCORE.INTRA>
-8.06669

>  <SCORE.INTRA.DIHEDRAL>
-12.3893

>  <SCORE.INTRA.DIHEDRAL.0>
18.4149

>  <SCORE.INTRA.POLAR>
-0.0136228

>  <SCORE.INTRA.POLAR.0>
0

>  <SCORE.INTRA.REPUL>
-0.092687

>  <SCORE.INTRA.REPUL.0>
0.092687

>  <SCORE.INTRA.SOLV>
0.315556

>  <SCORE.INTRA.SOLV.lig_0>
-120.37

>  <SCORE.INTRA.VDW>
-1.52007

>  <SCORE.INTRA.VDW.0>
-1.75542

>  <SCORE.INTRA.norm>
-0.260216

>  <SCORE.RESTR>
0

>  <SCORE.RESTR.CAVITY>
0

>  <SCORE.RESTR.norm>
0

>  <SCORE.SYSTEM>
0

>  <SCORE.SYSTEM.CONST>
0

>  <SCORE.SYSTEM.DIHEDRAL>
0

>  <SCORE.SYSTEM.SOLV>
0

>  <SCORE.SYSTEM.norm>
0

>  <SCORE.heavy>
31

>  <SCORE.norm>
-1.37476

>  <RMSD>
2.651

$$$$
1byj cryst
 OpenBabel11021811383D
libRbt.so/2013.1/901 2013/11/27
 31 33  0  0  0  0  0  0  0  0999 V2000
    7.8144    2.2214   -0.5616 C   0  0  1  0  0  0  0  0  0  0  0  0
    8.1606    3.4594   -1.2613 O   0  0  0  0  0  0  0  0  0  0  0  0
    8.3678    3.4128   -2.7048 C   0  0  2  0  0  0  0  0  0  0  0  0
    7.1185    3.1394   -3.4126 O   0  0  0  0  0  0  0  0  0  0  0  0
    9.4457    2.3363   -3.0360 C   0  0  2  0  0  0  0  0  0  0  0  0
    9.7239    2.2162   -4.4807 N   0  3  0  0  0  0  0  0  0  0  0  0
    9.0240    0.9637   -2.4511 C   0  0  0  0  0  0  0  0  0  0  0  0
    8.7767    1.0612   -0.9382 C   0  0  0  0  0  0  0  0  0  0  0  0
    7.8760    2.4588    0.9576 C   0  0  0  0  0  0  0  0  0  0  0  0
    7.4586    1.2996    1.7571 N   0  3  0  0  0  0  0  0  0  0  0  0
    7.2550    5.4814   -4.1657 C   0  0  1  0  0  0  0  0  0  0  0  0
    6.4505    6.7427   -4.5636 C   0  0  0  0  0  0  0  0  0  0  0  0
    5.4697    7.1423   -3.4286 C   0  0  1  0  0  0  0  0  0  0  0  0
    4.7667    8.3887   -3.7878 N   0  3  0  0  0  0  0  0  0  0  0  0
    4.4779    5.9786   -3.1391 C   0  0  1  0  0  0  0  0  0  0  0  0
    5.2233    4.6552   -2.8342 C   0  0  1  0  0  0  0  0  0  0  0  0
    4.2331    3.6404   -2.7573 O   0  0  0  0  0  0  0  0  0  0  0  0
    6.3134    4.2644   -3.8860 C   0  0  2  0  0  0  0  0  0  0  0  0
    8.2542    5.1708   -5.2033 N   0  3  0  0  0  0  0  0  0  0  0  0
    1.6418    4.1861   -1.0465 C   0  0  0  0  0  0  0  0  0  0  0  0
    0.7974    4.8836    0.0482 C   0  0  2  0  0  0  0  0  0  0  0  0
   -0.5538    4.8927   -0.4103 O   0  0  0  0  0  0  0  0  0  0  0  0
    1.3276    6.3511    0.2639 C   0  0  1  0  0  0  0  0  0  0  0  0
    1.5137    7.1355   -1.0793 C   0  0  2  0  0  0  0  0  0  0  0  0
    2.2171    6.3083   -2.1851 C   0  0  1  0  0  0  0  0  0  0  0  0
    3.6539    6.2845   -1.9781 O   0  0  0  0  0  0  0  0  0  0  0  0
    1.6574    4.9673   -2.2710 O   0  0  0  0  0  0  0  0  0  0  0  0
    2.2381    8.3465   -0.8797 O   0  0  0  0  0  0  0  0  0  0  0  0
    0.4088    7.0908    1.1843 N   0  3  0  0  0  0  0  0  0  0  0  0
    0.6193    8.5470    1.3144 C   0  0  0  0  0  0  0  0  0  0  0  0
    0.8416    4.0198    1.3328 C   0  0  0  0  0  0  0  0  0  0  0  0
  1  8  1  0  0  0  0
  1  9  1  1  0  0  0
  1  2  1  0  0  0  0
  2  3  1  0  0  0  0
  3  5  1  0  0  0  0
  3  4  1  6  0  0  0
  5  7  1  0  0  0  0
  5  6  1  6  0  0  0
  7  8  1  0  0  0  0
  9 10  1  0  0  0  0
 11 12  1  0  0  0  0
 11 18  1  0  0  0  0
 11 19  1  6  0  0  0
 12 13  1  0  0  0  0
 13 15  1  0  0  0  0
 13 14  1  6  0  0  0
 15 16  1  0  0  0  0
 15 26  1  1  0  0  0
 16 18  1  0  0  0  0
 16 17  1  6  0  0  0
 18  4  1  1  0  0  0
 20 21  1  0  0  0  0
 20 27  1  0  0  0  0
 21 31  1  1  0  0  0
 21 23  1  0  0  0  0
 21 22  1  0  0  0  0
 23 24  1  0  0  0  0
 23 29  1  1  0  0  0
 24 25  1  0  0  0  0
 24 28  1  1  0  0  0
 25 27  1  0  0  0  0
 25 26  1  1  0  0  0
 29 30  1  0  0  0  0
M  CHG  5   6   1  10   1  14   1  19   1  29   1
M  END
>  <CHROM.1>
176.17998914,92.93212485,28.02913112,-156.90312691,-175.47455658,31.56789607
172.06125589,121.25403675,66.85153744,57.48395911,-48.62335092,66.84809695
-158.71550854,4.90414881,4.74851837,-1.79175399,0.09820228,-0.52687712,2.32322410

>  <Name>
1byj cryst

>  <RI>
0

>  <Rbt.Current_Directory>
/home/itssahil/PROJECTS/Mol_Feturizer/New_Systems/rnas/1byj

>  <Rbt.Executable>
rbdock ($Id: //depot/dev/client3/rdock/2013.1/src/exe/rbdock.cxx#4 $)

>  <Rbt.Library>
libRbt.so (2013.1, Build901 2013/11/27)

>  <Rbt.Parameter_File>
/export/apps/rDock/src/rDock_2013.1_src/data/scripts/dock_solv.prm

>  <Rbt.Receptor>
prm/pocket_docking_3.prm

>  <SCORE>
-41.4557

>  <SCORE.INTER>
-45.4456

>  <SCORE.INTER.CONST>
1

>  <SCORE.INTER.POLAR>
-7.52328

>  <SCORE.INTER.ROT>
6

>  <SCORE.INTER.SOLV>
23.9118

>  <SCORE.INTER.VDW>
-20.79

>  <SCORE.INTER.norm>
-1.46599

>  <SCORE.INTRA>
3.79886

>  <SCORE.INTRA.DIHEDRAL>
3.00438

>  <SCORE.INTRA.DIHEDRAL.0>
18.4149

>  <SCORE.INTRA.POLAR>
-0.0651986

>  <SCORE.INTRA.POLAR.0>
0

>  <SCORE.INTRA.REPUL>
-0.092687

>  <SCORE.INTRA.REPUL.0>
0.092687

>  <SCORE.INTRA.SOLV>
1.50562

>  <SCORE.INTRA.SOLV.lig_0>
-120.37

>  <SCORE.INTRA.VDW>
2.22896

>  <SCORE.INTRA.VDW.0>
-1.75542

>  <SCORE.INTRA.norm>
0.122544

>  <SCORE.RESTR>
0.191049

>  <SCORE.RESTR.CAVITY>
0.191049

>  <SCORE.RESTR.norm>
0.00616286

>  <SCORE.SYSTEM>
0

>  <SCORE.SYSTEM.CONST>
0

>  <SCORE.SYSTEM.DIHEDRAL>
0

>  <SCORE.SYSTEM.SOLV>
0

>  <SCORE.SYSTEM.norm>
0

>  <SCORE.heavy>
31

>  <SCORE.norm>
-1.33728

>  <RMSD>
2.658

$$$$
1byj cryst
 OpenBabel11021811383D
libRbt.so/2013.1/901 2013/11/27
 31 33  0  0  0  0  0  0  0  0999 V2000
    7.8216    2.2266   -0.5532 C   0  0  1  0  0  0  0  0  0  0  0  0
    8.1389    3.4744   -1.2491 O   0  0  0  0  0  0  0  0  0  0  0  0
    8.3250    3.4410   -2.6958 C   0  0  2  0  0  0  0  0  0  0  0  0
    7.0693    3.1541   -3.3869 O   0  0  0  0  0  0  0  0  0  0  0  0
    9.4135    2.3830   -3.0509 C   0  0  2  0  0  0  0  0  0  0  0  0
    9.6717    2.2771   -4.5004 N   0  3  0  0  0  0  0  0  0  0  0  0
    9.0210    1.0002   -2.4696 C   0  0  0  0  0  0  0  0  0  0  0  0
    8.7951    1.0834   -0.9525 C   0  0  0  0  0  0  0  0  0  0  0  0
    7.9025    2.4543    0.9666 C   0  0  0  0  0  0  0  0  0  0  0  0
    7.4726    1.2981    1.7638 N   0  3  0  0  0  0  0  0  0  0  0  0
    7.1780    5.4881   -4.1684 C   0  0  1  0  0  0  0  0  0  0  0  0
    6.3589    6.7415   -4.5618 C   0  0  0  0  0  0  0  0  0  0  0  0
    5.4019    7.1491   -3.4095 C   0  0  1  0  0  0  0  0  0  0  0  0
    4.6851    8.3883   -3.7664 N   0  3  0  0  0  0  0  0  0  0  0  0
    4.4222    5.9843   -3.0852 C   0  0  1  0  0  0  0  0  0  0  0  0
    5.1805    4.6676   -2.7826 C   0  0  1  0  0  0  0  0  0  0  0  0
    4.1971    3.6493   -2.6724 O   0  0  0  0  0  0  0  0  0  0  0  0
    6.2486    4.2701   -3.8543 C   0  0  2  0  0  0  0  0  0  0  0  0
    8.1551    5.1706   -5.2246 N   0  3  0  0  0  0  0  0  0  0  0  0
    0.8088    5.1214   -2.0226 C   0  0  0  0  0  0  0  0  0  0  0  0
    0.0855    5.6629   -0.7652 C   0  0  2  0  0  0  0  0  0  0  0  0
   -1.0257    6.4325   -1.2225 O   0  0  0  0  0  0  0  0  0  0  0  0
    1.0809    6.5540    0.0694 C   0  0  1  0  0  0  0  0  0  0  0  0
    1.8377    7.6081   -0.8083 C   0  0  2  0  0  0  0  0  0  0  0  0
    2.3868    7.0262   -2.1356 C   0  0  1  0  0  0  0  0  0  0  0  0
    3.6230    6.2993   -1.9093 O   0  0  0  0  0  0  0  0  0  0  0  0
    1.3860    6.2042   -2.8001 O   0  0  0  0  0  0  0  0  0  0  0  0
    2.9119    8.2094   -0.0904 O   0  0  0  0  0  0  0  0  0  0  0  0
    0.3443    7.2268    1.1844 N   0  3  0  0  0  0  0  0  0  0  0  0
    1.0683    7.3953    2.4609 C   0  0  0  0  0  0  0  0  0  0  0  0
   -0.4825    4.4641    0.0338 C   0  0  0  0  0  0  0  0  0  0  0  0
  1  8  1  0  0  0  0
  1  9  1  1  0  0  0
  1  2  1  0  0  0  0
  2  3  1  0  0  0  0
  3  5  1  0  0  0  0
  3  4  1  6  0  0  0
  5  7  1  0  0  0  0
  5  6  1  6  0  0  0
  7  8  1  0  0  0  0
  9 10  1  0  0  0  0
 11 12  1  0  0  0  0
 11 18  1  0  0  0  0
 11 19  1  6  0  0  0
 12 13  1  0  0  0  0
 13 15  1  0  0  0  0
 13 14  1  6  0  0  0
 15 16  1  0  0  0  0
 15 26  1  1  0  0  0
 16 18  1  0  0  0  0
 16 17  1  6  0  0  0
 18  4  1  1  0  0  0
 20 21  1  0  0  0  0
 20 27  1  0  0  0  0
 21 31  1  1  0  0  0
 21 23  1  0  0  0  0
 21 22  1  0  0  0  0
 23 24  1  0  0  0  0
 23 29  1  1  0  0  0
 24 25  1  0  0  0  0
 24 28  1  1  0  0  0
 25 27  1  0  0  0  0
 25 26  1  1  0  0  0
 29 30  1  0  0  0  0
M  CHG  5   6   1  10   1  14   1  19   1  29   1
M  END
>  <CHROM.1>
174.29020904,93.66176198,28.76556395,-154.28324219,64.00556713,31.77419446
-62.59443224,87.97992138,68.11930624,176.92292393,-94.90605416,-61.98949457
-165.24125825,4.80412915,4.93057926,-1.85243229,0.08104437,-0.52665751,2.19429655

>  <Name>
1byj cryst

>  <RI>
0

>  <Rbt.Current_Directory>
/home/itssahil/PROJECTS/Mol_Feturizer/New_Systems/rnas/1byj

>  <Rbt.Executable>
rbdock ($Id: //depot/dev/client3/rdock/2013.1/src/exe/rbdock.cxx#4 $)

>  <Rbt.Library>
libRbt.so (2013.1, Build901 2013/11/27)

>  <Rbt.Parameter_File>
/export/apps/rDock/src/rDock_2013.1_src/data/scripts/dock_solv.prm

>  <Rbt.Receptor>
prm/pocket_docking_6.prm

>  <SCORE>
-49.4244

>  <SCORE.INTER>
-50.8613

>  <SCORE.INTER.CONST>
1

>  <SCORE.INTER.POLAR>
-8.20757

>  <SCORE.INTER.ROT>
6

>  <SCORE.INTER.SOLV>
25.0641

>  <SCORE.INTER.VDW>
-22.5037

>  <SCORE.INTER.norm>
-1.64069

>  <SCORE.INTRA>
1.43693

>  <SCORE.INTRA.DIHEDRAL>
0.143997

>  <SCORE.INTRA.DIHEDRAL.0>
18.4149

>  <SCORE.INTRA.POLAR>
-0.00343229

>  <SCORE.INTRA.POLAR.0>
0

>  <SCORE.INTRA.REPUL>
-0.092687

>  <SCORE.INTRA.REPUL.0>
0.092687

>  <SCORE.INTRA.SOLV>
2.81824

>  <SCORE.INTRA.SOLV.lig_0>
-120.37

>  <SCORE.INTRA.VDW>
0.430915

>  <SCORE.INTRA.VDW.0>
-1.75542

>  <SCORE.INTRA.norm>
0.0463525

>  <SCORE.RESTR>
0

>  <SCORE.RESTR.CAVITY>
0

>  <SCORE.RESTR.norm>
0

>  <SCORE.SYSTEM>
0

>  <SCORE.SYSTEM.CONST>
0

>  <SCORE.SYSTEM.DIHEDRAL>
0

>  <SCORE.SYSTEM.SOLV>
0

>  <SCORE.SYSTEM.norm>
0

>  <SCORE.heavy>
31

>  <SCORE.norm>
-1.59433

>  <RMSD>
2.663

$$$$
1byj cryst
 OpenBabel11021811383D
libRbt.so/2013.1/901 2013/11/27
 31 33  0  0  0  0  0  0  0  0999 V2000
    5.7557    3.5182   -0.4830 C   0  0  1  0  0  0  0  0  0  0  0  0
    6.8384    4.1415   -1.2455 O   0  0  0  0  0  0  0  0  0  0  0  0
    7.4366    3.3966   -2.3482 C   0  0  2  0  0  0  0  0  0  0  0  0
    6.4948    3.2370   -3.4546 O   0  0  0  0  0  0  0  0  0  0  0  0
    7.9281    2.0117   -1.8277 C   0  0  2  0  0  0  0  0  0  0  0  0
    8.5510    1.1825   -2.8782 N   0  3  0  0  0  0  0  0  0  0  0  0
    6.7556    1.2474   -1.1605 C   0  0  0  0  0  0  0  0  0  0  0  0
    6.1265    2.0784   -0.0321 C   0  0  0  0  0  0  0  0  0  0  0  0
    5.4457    4.3744    0.7575 C   0  0  0  0  0  0  0  0  0  0  0  0
    5.2754    5.8037    0.4649 N   0  3  0  0  0  0  0  0  0  0  0  0
    6.9436    5.5608   -4.1394 C   0  0  1  0  0  0  0  0  0  0  0  0
    6.3201    6.8874   -4.6373 C   0  0  0  0  0  0  0  0  0  0  0  0
    5.2108    7.3661   -3.6625 C   0  0  1  0  0  0  0  0  0  0  0  0
    4.6797    8.6690   -4.1067 N   0  3  0  0  0  0  0  0  0  0  0  0
    4.0917    6.2906   -3.5499 C   0  0  1  0  0  0  0  0  0  0  0  0
    4.6664    4.9075   -3.1540 C   0  0  1  0  0  0  0  0  0  0  0  0
    3.5948    3.9808   -3.2486 O   0  0  0  0  0  0  0  0  0  0  0  0
    5.8710    4.4280   -4.0294 C   0  0  2  0  0  0  0  0  0  0  0  0
    8.0633    5.1689   -5.0136 N   0  3  0  0  0  0  0  0  0  0  0  0
    1.7596    5.1918   -0.2259 C   0  0  0  0  0  0  0  0  0  0  0  0
    0.5203    6.0484    0.1320 C   0  0  2  0  0  0  0  0  0  0  0  0
   -0.6286    5.2304   -0.0849 O   0  0  0  0  0  0  0  0  0  0  0  0
    0.4824    7.3261   -0.7887 C   0  0  1  0  0  0  0  0  0  0  0  0
    0.6842    6.9905   -2.3055 C   0  0  2  0  0  0  0  0  0  0  0  0
    1.8386    5.9904   -2.5683 C   0  0  1  0  0  0  0  0  0  0  0  0
    3.1247    6.6626   -2.5265 O   0  0  0  0  0  0  0  0  0  0  0  0
    1.7803    4.8691   -1.6419 O   0  0  0  0  0  0  0  0  0  0  0  0
    0.9124    8.1687   -3.0742 O   0  0  0  0  0  0  0  0  0  0  0  0
   -0.8020    8.0638   -0.5776 N   0  3  0  0  0  0  0  0  0  0  0  0
   -0.7582    9.2480    0.3042 C   0  0  0  0  0  0  0  0  0  0  0  0
    0.5689    6.3821    1.6434 C   0  0  0  0  0  0  0  0  0  0  0  0
  1  8  1  0  0  0  0
  1  9  1  1  0  0  0
  1  2  1  0  0  0  0
  2  3  1  0  0  0  0
  3  5  1  0  0  0  0
  3  4  1  6  0  0  0
  5  7  1  0  0  0  0
  5  6  1  6  0  0  0
  7  8  1  0  0  0  0
  9 10  1  0  0  0  0
 11 12  1  0  0  0  0
 11 18  1  0  0  0  0
 11 19  1  6  0  0  0
 12 13  1  0  0  0  0
 13 15  1  0  0  0  0
 13 14  1  6  0  0  0
 15 16  1  0  0  0  0
 15 26  1  1  0  0  0
 16 18  1  0  0  0  0
 16 17  1  6  0  0  0
 18  4  1  1  0  0  0
 20 21  1  0  0  0  0
 20 27  1  0  0  0  0
 21 31  1  1  0  0  0
 21 23  1  0  0  0  0
 21 22  1  0  0  0  0
 23 24  1  0  0  0  0
 23 29  1  6  0  0  0
 24 25  1  0  0  0  0
 24 28  1  6  0  0  0
 25 27  1  0  0  0  0
 25 26  1  1  0  0  0
 29 30  1  0  0  0  0
M  CHG  5   6   1  10   1  14   1  19   1  29   1
M  END
>  <CHROM.1>
48.95087722,54.84438925,40.98478275,-176.89144920,173.68783156,27.95671704
-57.32259999,162.35662534,-78.21764987,-59.38213680,-138.82424278,-66.85531997
-137.81578336,4.03074944,5.32446646,-1.93180872,0.15953051,-0.54190858,2.33183288

>  <Name>
1byj cryst

>  <RI>
0

>  <Rbt.Current_Directory>
/home/itssahil/PROJECTS/Mol_Feturizer/New_Systems/rnas/1byj

>  <Rbt.Executable>
rbdock ($Id: //depot/dev/client3/rdock/2013.1/src/exe/rbdock.cxx#4 $)

>  <Rbt.Library>
libRbt.so (2013.1, Build901 2013/11/27)

>  <Rbt.Parameter_File>
/export/apps/rDock/src/rDock_2013.1_src/data/scripts/dock_solv.prm

>  <Rbt.Receptor>
prm/pocket_docking_4.prm

>  <SCORE>
-49.3844

>  <SCORE.INTER>
-43.614

>  <SCORE.INTER.CONST>
1

>  <SCORE.INTER.POLAR>
-7.43893

>  <SCORE.INTER.ROT>
6

>  <SCORE.INTER.SOLV>
24.6612

>  <SCORE.INTER.VDW>
-20.1

>  <SCORE.INTER.norm>
-1.4069

>  <SCORE.INTRA>
-5.77033

>  <SCORE.INTRA.DIHEDRAL>
-2.25689

>  <SCORE.INTRA.DIHEDRAL.0>
18.4149

>  <SCORE.INTRA.POLAR>
-1.01176

>  <SCORE.INTRA.POLAR.0>
0

>  <SCORE.INTRA.REPUL>
-0.092687

>  <SCORE.INTRA.REPUL.0>
0.092687

>  <SCORE.INTRA.SOLV>
0.25562

>  <SCORE.INTRA.SOLV.lig_0>
-120.37

>  <SCORE.INTRA.VDW>
-0.866262

>  <SCORE.INTRA.VDW.0>
-1.75542

>  <SCORE.INTRA.norm>
-0.18614

>  <SCORE.RESTR>
0

>  <SCORE.RESTR.CAVITY>
0

>  <SCORE.RESTR.norm>
0

>  <SCORE.SYSTEM>
0

>  <SCORE.SYSTEM.CONST>
0

>  <SCORE.SYSTEM.DIHEDRAL>
0

>  <SCORE.SYSTEM.SOLV>
0

>  <SCORE.SYSTEM.norm>
0

>  <SCORE.heavy>
31

>  <SCORE.norm>
-1.59304

>  <RMSD>
2.665

$$$$
1byj cryst
 OpenBabel11021811383D
libRbt.so/2013.1/901 2013/11/27
 31 33  0  0  0  0  0  0  0  0999 V2000
    8.3597    2.0757   -1.5527 C   0  0  1  0  0  0  0  0  0  0  0  0
    7.1963    1.3990   -0.9776 O   0  0  0  0  0  0  0  0  0  0  0  0
    6.8636    1.6463    0.4212 C   0  0  2  0  0  0  0  0  0  0  0  0
    6.4021    3.0185    0.6233 O   0  0  0  0  0  0  0  0  0  0  0  0
    8.1075    1.3380    1.3090 C   0  0  2  0  0  0  0  0  0  0  0  0
    7.8654    1.5605    2.7480 N   0  3  0  0  0  0  0  0  0  0  0  0
    9.3230    2.1729    0.8301 C   0  0  0  0  0  0  0  0  0  0  0  0
    9.6179    1.9161   -0.6554 C   0  0  0  0  0  0  0  0  0  0  0  0
    8.6530    1.4925   -2.9462 C   0  0  0  0  0  0  0  0  0  0  0  0
    9.7679    2.1485   -3.6418 N   0  3  0  0  0  0  0  0  0  0  0  0
    6.6488    5.3195   -0.2223 C   0  0  1  0  0  0  0  0  0  0  0  0
    6.3280    6.2942   -1.3814 C   0  0  0  0  0  0  0  0  0  0  0  0
    4.7993    6.3370   -1.6482 C   0  0  1  0  0  0  0  0  0  0  0  0
    4.5007    7.3266   -2.7011 N   0  3  0  0  0  0  0  0  0  0  0  0
    4.2772    4.9188   -2.0191 C   0  0  1  0  0  0  0  0  0  0  0  0
    4.6579    3.8706   -0.9437 C   0  0  1  0  0  0  0  0  0  0  0  0
    4.2859    2.6026   -1.4635 O   0  0  0  0  0  0  0  0  0  0  0  0
    6.1708    3.8659   -0.5456 C   0  0  2  0  0  0  0  0  0  0  0  0
    8.0879    5.3633    0.0916 N   0  3  0  0  0  0  0  0  0  0  0  0
    2.3628    7.3489   -0.3347 C   0  0  0  0  0  0  0  0  0  0  0  0
    0.8490    7.6563   -0.4415 C   0  0  2  0  0  0  0  0  0  0  0  0
    0.3029    7.5222    0.8699 O   0  0  0  0  0  0  0  0  0  0  0  0
    0.1761    6.6379   -1.4373 C   0  0  1  0  0  0  0  0  0  0  0  0
    0.5668    5.1496   -1.1434 C   0  0  2  0  0  0  0  0  0  0  0  0
    2.0805    4.9495   -0.8775 C   0  0  1  0  0  0  0  0  0  0  0  0
    2.8247    4.9186   -2.1236 O   0  0  0  0  0  0  0  0  0  0  0  0
    2.5896    5.9627    0.0354 O   0  0  0  0  0  0  0  0  0  0  0  0
    0.1683    4.2866   -2.2052 O   0  0  0  0  0  0  0  0  0  0  0  0
   -1.3099    6.8092   -1.4085 N   0  3  0  0  0  0  0  0  0  0  0  0
   -2.0963    6.0058   -2.3666 C   0  0  0  0  0  0  0  0  0  0  0  0
    0.6729    9.1356   -0.8643 C   0  0  0  0  0  0  0  0  0  0  0  0
  1  8  1  0  0  0  0
  1  9  1  6  0  0  0
  1  2  1  0  0  0  0
  2  3  1  0  0  0  0
  3  5  1  0  0  0  0
  3  4  1  6  0  0  0
  5  7  1  0  0  0  0
  5  6  1  1  0  0  0
  7  8  1  0  0  0  0
  9 10  1  0  0  0  0
 11 12  1  0  0  0  0
 11 18  1  0  0  0  0
 11 19  1  6  0  0  0
 12 13  1  0  0  0  0
 13 15  1  0  0  0  0
 13 14  1  6  0  0  0
 15 16  1  0  0  0  0
 15 26  1  1  0  0  0
 16 18  1  0  0  0  0
 16 17  1  6  0  0  0
 18  4  1  1  0  0  0
 20 21  1  0  0  0  0
 20 27  1  0  0  0  0
 21 31  1  6  0  0  0
 21 23  1  0  0  0  0
 21 22  1  0  0  0  0
 23 24  1  0  0  0  0
 23 29  1  1  0  0  0
 24 25  1  0  0  0  0
 24 28  1  6  0  0  0
 25 27  1  0  0  0  0
 25 26  1  6  0  0  0
 29 30  1  0  0  0  0
M  CHG  5   6   1  10   1  14   1  19   1  29   1
M  END
>  <CHROM.1>
177.23745746,7.74558781,-141.44876432,-67.12881713,-24.07544250,-67.52213913
-56.37549950,-75.43112412,33.32296183,-75.84871000,-63.74472145,-114.51265198
171.90196849,4.53815341,4.54983265,-0.87585395,-0.27739557,0.43857118,-1.12348629

>  <Name>
1byj cryst

>  <RI>
0

>  <Rbt.Current_Directory>
/home/itssahil/PROJECTS/Mol_Feturizer/New_Systems/rnas/1byj

>  <Rbt.Executable>
rbdock ($Id: //depot/dev/client3/rdock/2013.1/src/exe/rbdock.cxx#4 $)

>  <Rbt.Library>
libRbt.so (2013.1, Build901 2013/11/27)

>  <Rbt.Parameter_File>
/export/apps/rDock/src/rDock_2013.1_src/data/scripts/dock_solv.prm

>  <Rbt.Receptor>
prm/pocket_docking_3.prm

>  <SCORE>
-20.5443

>  <SCORE.INTER>
-25.5332

>  <SCORE.INTER.CONST>
1

>  <SCORE.INTER.POLAR>
-3.4702

>  <SCORE.INTER.ROT>
6

>  <SCORE.INTER.SOLV>
19.518

>  <SCORE.INTER.VDW>
-19.5608

>  <SCORE.INTER.norm>
-0.82365

>  <SCORE.INTRA>
4.98883

>  <SCORE.INTRA.DIHEDRAL>
8.98431

>  <SCORE.INTRA.DIHEDRAL.0>
18.4149

>  <SCORE.INTRA.POLAR>
0

>  <SCORE.INTRA.POLAR.0>
0

>  <SCORE.INTRA.REPUL>
-0.092687

>  <SCORE.INTRA.REPUL.0>
0.092687

>  <SCORE.INTRA.SOLV>
0.197013

>  <SCORE.INTRA.SOLV.lig_0>
-120.37

>  <SCORE.INTRA.VDW>
0.861606

>  <SCORE.INTRA.VDW.0>
-1.75542

>  <SCORE.INTRA.norm>
0.16093

>  <SCORE.RESTR>
0

>  <SCORE.RESTR.CAVITY>
0

>  <SCORE.RESTR.norm>
0

>  <SCORE.SYSTEM>
0

>  <SCORE.SYSTEM.CONST>
0

>  <SCORE.SYSTEM.DIHEDRAL>
0

>  <SCORE.SYSTEM.SOLV>
0

>  <SCORE.SYSTEM.norm>
0

>  <SCORE.heavy>
31

>  <SCORE.norm>
-0.66272

>  <RMSD>
2.666

$$$$
1byj cryst
 OpenBabel11021811383D
libRbt.so/2013.1/901 2013/11/27
 31 33  0  0  0  0  0  0  0  0999 V2000
    9.2824    1.8739   -3.4149 C   0  0  1  0  0  0  0  0  0  0  0  0
    7.8360    2.0418   -3.5621 O   0  0  0  0  0  0  0  0  0  0  0  0
    7.0859    2.6418   -2.4639 C   0  0  2  0  0  0  0  0  0  0  0  0
    7.4236    4.0544   -2.2987 O   0  0  0  0  0  0  0  0  0  0  0  0
    7.3631    1.8435   -1.1539 C   0  0  2  0  0  0  0  0  0  0  0  0
    6.6434    2.3796    0.0182 N   0  3  0  0  0  0  0  0  0  0  0  0
    8.8874    1.7918   -0.8747 C   0  0  0  0  0  0  0  0  0  0  0  0
    9.6467    1.1915   -2.0675 C   0  0  0  0  0  0  0  0  0  0  0  0
    9.8185    1.0200   -4.5774 C   0  0  0  0  0  0  0  0  0  0  0  0
   11.2843    0.9929   -4.6675 N   0  3  0  0  0  0  0  0  0  0  0  0
    7.8753    6.2921   -3.2255 C   0  0  1  0  0  0  0  0  0  0  0  0
    7.3891    7.3908   -4.2018 C   0  0  0  0  0  0  0  0  0  0  0  0
    5.9259    7.7962   -3.8789 C   0  0  1  0  0  0  0  0  0  0  0  0
    5.5024    8.8970   -4.7653 N   0  3  0  0  0  0  0  0  0  0  0  0
    4.9862    6.5614   -3.9965 C   0  0  1  0  0  0  0  0  0  0  0  0
    5.4780    5.3835   -3.1186 C   0  0  1  0  0  0  0  0  0  0  0  0
    4.6540    4.2710   -3.4336 O   0  0  0  0  0  0  0  0  0  0  0  0
    6.9844    5.0098   -3.3147 C   0  0  2  0  0  0  0  0  0  0  0  0
    9.2956    5.9879   -3.4733 N   0  3  0  0  0  0  0  0  0  0  0  0
    2.9876    9.6291   -2.3559 C   0  0  0  0  0  0  0  0  0  0  0  0
    1.5579    9.4935   -1.7771 C   0  0  2  0  0  0  0  0  0  0  0  0
    1.6517    9.7341   -0.3737 O   0  0  0  0  0  0  0  0  0  0  0  0
    1.0115    8.0441   -2.0635 C   0  0  1  0  0  0  0  0  0  0  0  0
    2.0313    6.9204   -1.6743 C   0  0  2  0  0  0  0  0  0  0  0  0
    3.4796    7.2118   -2.1425 C   0  0  1  0  0  0  0  0  0  0  0  0
    3.6411    6.8968   -3.5505 O   0  0  0  0  0  0  0  0  0  0  0  0
    3.8591    8.5853   -1.8452 O   0  0  0  0  0  0  0  0  0  0  0  0
    1.6292    5.6520   -2.1847 O   0  0  0  0  0  0  0  0  0  0  0  0
   -0.2902    7.8447   -1.3534 N   0  3  0  0  0  0  0  0  0  0  0  0
   -0.9840    6.5593   -1.5732 C   0  0  0  0  0  0  0  0  0  0  0  0
    0.6725   10.6131   -2.3777 C   0  0  0  0  0  0  0  0  0  0  0  0
  1  8  1  0  0  0  0
  1  9  1  6  0  0  0
  1  2  1  0  0  0  0
  2  3  1  0  0  0  0
  3  5  1  0  0  0  0
  3  4  1  1  0  0  0
  5  7  1  0  0  0  0
  5  6  1  1  0  0  0
  7  8  1  0  0  0  0
  9 10  1  0  0  0  0
 11 12  1  0  0  0  0
 11 18  1  0  0  0  0
 11 19  1  6  0  0  0
 12 13  1  0  0  0  0
 13 15  1  0  0  0  0
 13 14  1  6  0  0  0
 15 16  1  0  0  0  0
 15 26  1  1  0  0  0
 16 18  1  0  0  0  0
 16 17  1  6  0  0  0
 18  4  1  1  0  0  0
 20 21  1  0  0  0  0
 20 27  1  0  0  0  0
 21 31  1  6  0  0  0
 21 23  1  0  0  0  0
 21 22  1  0  0  0  0
 23 24  1  0  0  0  0
 23 29  1  1  0  0  0
 24 25  1  0  0  0  0
 24 28  1  6  0  0  0
 25 27  1  0  0  0  0
 25 26  1  6  0  0  0
 29 30  1  0  0  0  0
M  CHG  5   6   1  10   1  14   1  19   1  29   1
M  END
>  <CHROM.1>
169.37892769,70.23426414,-159.07954694,-178.42783867,48.55851696,-50.25085513
-118.45387728,-66.26154489,73.88567296,54.86041351,-62.19778389,-174.25995558
-154.33701055,5.30547879,5.63251422,-2.63426669,0.58790502,-0.41209869,2.76683101

>  <Name>
1byj cryst

>  <RI>
0

>  <Rbt.Current_Directory>
/home/itssahil/PROJECTS/Mol_Feturizer/New_Systems/rnas/1byj

>  <Rbt.Executable>
rbdock ($Id: //depot/dev/client3/rdock/2013.1/src/exe/rbdock.cxx#4 $)

>  <Rbt.Library>
libRbt.so (2013.1, Build901 2013/11/27)

>  <Rbt.Parameter_File>
/export/apps/rDock/src/rDock_2013.1_src/data/scripts/dock_solv.prm

>  <Rbt.Receptor>
prm/pocket_docking_3.prm

>  <SCORE>
-46.9519

>  <SCORE.INTER>
-42.8645

>  <SCORE.INTER.CONST>
1

>  <SCORE.INTER.POLAR>
-5.42545

>  <SCORE.INTER.ROT>
6

>  <SCORE.INTER.SOLV>
29.752

>  <SCORE.INTER.VDW>
-28.0088

>  <SCORE.INTER.norm>
-1.38272

>  <SCORE.INTRA>
-4.15813

>  <SCORE.INTRA.DIHEDRAL>
-6.91737

>  <SCORE.INTRA.DIHEDRAL.0>
18.4149

>  <SCORE.INTRA.POLAR>
-0.00157718

>  <SCORE.INTRA.POLAR.0>
0

>  <SCORE.INTRA.REPUL>
-0.092687

>  <SCORE.INTRA.REPUL.0>
0.092687

>  <SCORE.INTRA.SOLV>
-2.89331

>  <SCORE.INTRA.SOLV.lig_0>
-120.37

>  <SCORE.INTRA.VDW>
1.21601

>  <SCORE.INTRA.VDW.0>
-1.75542

>  <SCORE.INTRA.norm>
-0.134133

>  <SCORE.RESTR>
0.0707348

>  <SCORE.RESTR.CAVITY>
0.0707348

>  <SCORE.RESTR.norm>
0.00228177

>  <SCORE.SYSTEM>
0

>  <SCORE.SYSTEM.CONST>
0

>  <SCORE.SYSTEM.DIHEDRAL>
0

>  <SCORE.SYSTEM.SOLV>
0

>  <SCORE.SYSTEM.norm>
0

>  <SCORE.heavy>
31

>  <SCORE.norm>
-1.51458

>  <RMSD>
2.667

$$$$
1byj cryst
 OpenBabel11021811383D
libRbt.so/2013.1/901 2013/11/27
 31 33  0  0  0  0  0  0  0  0999 V2000
    7.6339    2.0565   -0.8517 C   0  0  1  0  0  0  0  0  0  0  0  0
    8.1488    3.2876   -1.4528 O   0  0  0  0  0  0  0  0  0  0  0  0
    8.4636    3.2921   -2.8774 C   0  0  2  0  0  0  0  0  0  0  0  0
    7.2537    3.1777   -3.6896 O   0  0  0  0  0  0  0  0  0  0  0  0
    9.4582    2.1327   -3.1890 C   0  0  2  0  0  0  0  0  0  0  0  0
    9.8367    2.0573   -4.6138 N   0  3  0  0  0  0  0  0  0  0  0  0
    8.8648    0.7809   -2.7152 C   0  0  0  0  0  0  0  0  0  0  0  0
    8.5094    0.8275   -1.2215 C   0  0  0  0  0  0  0  0  0  0  0  0
    7.5978    2.2116    0.6789 C   0  0  0  0  0  0  0  0  0  0  0  0
    6.7027    3.2781    1.1467 N   0  3  0  0  0  0  0  0  0  0  0  0
    7.7452    5.5158   -4.2916 C   0  0  1  0  0  0  0  0  0  0  0  0
    7.1496    6.8630   -4.7678 C   0  0  0  0  0  0  0  0  0  0  0  0
    6.0166    7.3245   -3.8123 C   0  0  1  0  0  0  0  0  0  0  0  0
    5.5116    8.6454   -4.2330 N   0  3  0  0  0  0  0  0  0  0  0  0
    4.8842    6.2581   -3.7646 C   0  0  1  0  0  0  0  0  0  0  0  0
    5.4335    4.8579   -3.3933 C   0  0  1  0  0  0  0  0  0  0  0  0
    4.3562    3.9457   -3.5468 O   0  0  0  0  0  0  0  0  0  0  0  0
    6.6588    4.3916   -4.2468 C   0  0  2  0  0  0  0  0  0  0  0  0
    8.8864    5.1379   -5.1438 N   0  3  0  0  0  0  0  0  0  0  0  0
    1.1051    5.5820   -2.0509 C   0  0  0  0  0  0  0  0  0  0  0  0
    0.4522    6.7083   -1.2126 C   0  0  2  0  0  0  0  0  0  0  0  0
   -0.7050    7.1417   -1.9264 O   0  0  0  0  0  0  0  0  0  0  0  0
    1.4777    7.8906   -1.0338 C   0  0  1  0  0  0  0  0  0  0  0  0
    2.1496    8.3236   -2.3810 C   0  0  2  0  0  0  0  0  0  0  0  0
    2.6253    7.1288   -3.2458 C   0  0  1  0  0  0  0  0  0  0  0  0
    3.8910    6.6100   -2.7594 O   0  0  0  0  0  0  0  0  0  0  0  0
    1.6038    6.0941   -3.3154 O   0  0  0  0  0  0  0  0  0  0  0  0
    3.2533    9.1968   -2.1560 O   0  0  0  0  0  0  0  0  0  0  0  0
    0.7990    9.0550   -0.3842 N   0  3  0  0  0  0  0  0  0  0  0  0
    0.7769    9.0801    1.0926 C   0  0  0  0  0  0  0  0  0  0  0  0
   -0.0332    6.1083    0.1299 C   0  0  0  0  0  0  0  0  0  0  0  0
  1  8  1  0  0  0  0
  1  9  1  1  0  0  0
  1  2  1  0  0  0  0
  2  3  1  0  0  0  0
  3  5  1  0  0  0  0
  3  4  1  6  0  0  0
  5  7  1  0  0  0  0
  5  6  1  6  0  0  0
  7  8  1  0  0  0  0
  9 10  1  0  0  0  0
 11 12  1  0  0  0  0
 11 18  1  0  0  0  0
 11 19  1  6  0  0  0
 12 13  1  0  0  0  0
 13 15  1  0  0  0  0
 13 14  1  6  0  0  0
 15 16  1  0  0  0  0
 15 26  1  1  0  0  0
 16 18  1  0  0  0  0
 16 17  1  6  0  0  0
 18  4  1  1  0  0  0
 20 21  1  0  0  0  0
 20 27  1  0  0  0  0
 21 31  1  1  0  0  0
 21 23  1  0  0  0  0
 21 22  1  0  0  0  0
 23 24  1  0  0  0  0
 23 29  1  6  0  0  0
 24 25  1  0  0  0  0
 24 28  1  1  0  0  0
 25 27  1  0  0  0  0
 25 26  1  1  0  0  0
 29 30  1  0  0  0  0
M  CHG  5   6   1  10   1  14   1  19   1  29   1
M  END
>  <CHROM.1>
62.39737180,97.82697230,21.06009238,-166.71306378,61.99430812,135.05467544
-172.63622620,105.32432314,-61.89049043,-63.18722152,-151.45425735,49.05621817
-138.04164325,5.03345251,5.35038847,-2.42885479,0.27447131,-0.56368016,2.33227711

>  <Name>
1byj cryst

>  <RI>
0

>  <Rbt.Current_Directory>
/home/itssahil/PROJECTS/Mol_Feturizer/New_Systems/rnas/1byj

>  <Rbt.Executable>
rbdock ($Id: //depot/dev/client3/rdock/2013.1/src/exe/rbdock.cxx#4 $)

>  <Rbt.Library>
libRbt.so (2013.1, Build901 2013/11/27)

>  <Rbt.Parameter_File>
/export/apps/rDock/src/rDock_2013.1_src/data/scripts/dock_solv.prm

>  <Rbt.Receptor>
prm/pocket_docking_3.prm

>  <SCORE>
-43.1082

>  <SCORE.INTER>
-45.8183

>  <SCORE.INTER.CONST>
1

>  <SCORE.INTER.POLAR>
-6.86014

>  <SCORE.INTER.ROT>
6

>  <SCORE.INTER.SOLV>
20.5221

>  <SCORE.INTER.VDW>
-22.1191

>  <SCORE.INTER.norm>
-1.47801

>  <SCORE.INTRA>
2.62147

>  <SCORE.INTRA.DIHEDRAL>
9.7319

>  <SCORE.INTRA.DIHEDRAL.0>
18.4149

>  <SCORE.INTRA.POLAR>
-0.982146

>  <SCORE.INTRA.POLAR.0>
0

>  <SCORE.INTRA.REPUL>
-0.092687

>  <SCORE.INTRA.REPUL.0>
0.092687

>  <SCORE.INTRA.SOLV>
3.57815

>  <SCORE.INTRA.SOLV.lig_0>
-120.37

>  <SCORE.INTRA.VDW>
-0.230825

>  <SCORE.INTRA.VDW.0>
-1.75542

>  <SCORE.INTRA.norm>
0.0845635

>  <SCORE.RESTR>
0.0886677

>  <SCORE.RESTR.CAVITY>
0.0886677

>  <SCORE.RESTR.norm>
0.00286025

>  <SCORE.SYSTEM>
0

>  <SCORE.SYSTEM.CONST>
0

>  <SCORE.SYSTEM.DIHEDRAL>
0

>  <SCORE.SYSTEM.SOLV>
0

>  <SCORE.SYSTEM.norm>
0

>  <SCORE.heavy>
31

>  <SCORE.norm>
-1.39059

>  <RMSD>
2.667

$$$$
1byj cryst
 OpenBabel11021811383D
libRbt.so/2013.1/901 2013/11/27
 31 33  0  0  0  0  0  0  0  0999 V2000
    6.1409    3.4116   -0.5321 C   0  0  1  0  0  0  0  0  0  0  0  0
    7.1661    4.0429   -1.3643 O   0  0  0  0  0  0  0  0  0  0  0  0
    7.6638    3.3203   -2.5300 C   0  0  2  0  0  0  0  0  0  0  0  0
    6.6336    3.1992   -3.5600 O   0  0  0  0  0  0  0  0  0  0  0  0
    8.1783    1.9174   -2.0856 C   0  0  2  0  0  0  0  0  0  0  0  0
    8.7037    1.1090   -3.2034 N   0  3  0  0  0  0  0  0  0  0  0  0
    7.0541    1.1486   -1.3445 C   0  0  0  0  0  0  0  0  0  0  0  0
    6.5288    1.9569   -0.1486 C   0  0  0  0  0  0  0  0  0  0  0  0
    5.9431    4.2389    0.7503 C   0  0  0  0  0  0  0  0  0  0  0  0
    7.1896    4.5170    1.4757 N   0  3  0  0  0  0  0  0  0  0  0  0
    7.0730    5.5474   -4.1628 C   0  0  1  0  0  0  0  0  0  0  0  0
    6.4417    6.8939   -4.5929 C   0  0  0  0  0  0  0  0  0  0  0  0
    5.3570    7.3358   -3.5741 C   0  0  1  0  0  0  0  0  0  0  0  0
    4.8195    8.6563   -3.9538 N   0  3  0  0  0  0  0  0  0  0  0  0
    4.2378    6.2589   -3.4777 C   0  0  1  0  0  0  0  0  0  0  0  0
    4.8176    4.8600   -3.1504 C   0  0  1  0  0  0  0  0  0  0  0  0
    3.7414    3.9399   -3.2562 O   0  0  0  0  0  0  0  0  0  0  0  0
    5.9999    4.4132   -4.0723 C   0  0  2  0  0  0  0  0  0  0  0  0
    8.1706    5.1882   -5.0780 N   0  3  0  0  0  0  0  0  0  0  0  0
    0.9772    6.3057   -0.4533 C   0  0  0  0  0  0  0  0  0  0  0  0
    0.2048    7.6454   -0.5309 C   0  0  2  0  0  0  0  0  0  0  0  0
   -1.1156    7.3401   -0.9773 O   0  0  0  0  0  0  0  0  0  0  0  0
    0.9305    8.6113   -1.5417 C   0  0  1  0  0  0  0  0  0  0  0  0
    1.2701    7.9217   -2.9066 C   0  0  2  0  0  0  0  0  0  0  0  0
    1.8850    6.5080   -2.7481 C   0  0  1  0  0  0  0  0  0  0  0  0
    3.2963    6.5919   -2.4179 O   0  0  0  0  0  0  0  0  0  0  0  0
    1.1438    5.7216   -1.7727 O   0  0  0  0  0  0  0  0  0  0  0  0
    2.1521    8.7217   -3.6897 O   0  0  0  0  0  0  0  0  0  0  0  0
    0.0962    9.8337   -1.7610 N   0  3  0  0  0  0  0  0  0  0  0  0
    0.7187   10.9454   -2.5084 C   0  0  0  0  0  0  0  0  0  0  0  0
    0.0837    8.2304    0.8979 C   0  0  0  0  0  0  0  0  0  0  0  0
  1  8  1  0  0  0  0
  1  9  1  1  0  0  0
  1  2  1  0  0  0  0
  2  3  1  0  0  0  0
  3  5  1  0  0  0  0
  3  4  1  6  0  0  0
  5  7  1  0  0  0  0
  5  6  1  6  0  0  0
  7  8  1  0  0  0  0
  9 10  1  0  0  0  0
 11 12  1  0  0  0  0
 11 18  1  0  0  0  0
 11 19  1  6  0  0  0
 12 13  1  0  0  0  0
 13 15  1  0  0  0  0
 13 14  1  6  0  0  0
 15 16  1  0  0  0  0
 15 26  1  1  0  0  0
 16 18  1  0  0  0  0
 16 17  1  6  0  0  0
 18  4  1  1  0  0  0
 20 21  1  0  0  0  0
 20 27  1  0  0  0  0
 21 31  1  1  0  0  0
 21 23  1  0  0  0  0
 21 22  1  0  0  0  0
 23 24  1  0  0  0  0
 23 29  1  6  0  0  0
 24 25  1  0  0  0  0
 24 28  1  1  0  0  0
 25 27  1  0  0  0  0
 25 26  1  1  0  0  0
 29 30  1  0  0  0  0
M  CHG  5   6   1  10   1  14   1  19   1  29   1
M  END
>  <CHROM.1>
-52.13843837,56.09380878,37.12086834,66.34881020,54.05079648,146.92915195
38.96554862,132.68744513,-171.12675112,-163.30901162,-68.52008306,-161.72688286
-106.03269746,4.30401441,5.70414990,-2.21352806,0.35406274,-0.59270455,2.26221386

>  <Name>
1byj cryst

>  <RI>
0

>  <Rbt.Current_Directory>
/home/itssahil/PROJECTS/Mol_Feturizer/New_Systems/rnas/1byj

>  <Rbt.Executable>
rbdock ($Id: //depot/dev/client3/rdock/2013.1/src/exe/rbdock.cxx#4 $)

>  <Rbt.Library>
libRbt.so (2013.1, Build901 2013/11/27)

>  <Rbt.Parameter_File>
/export/apps/rDock/src/rDock_2013.1_src/data/scripts/dock_solv.prm

>  <Rbt.Receptor>
prm/pocket_docking_3.prm

>  <SCORE>
-54.2314

>  <SCORE.INTER>
-51.8532

>  <SCORE.INTER.CONST>
1

>  <SCORE.INTER.POLAR>
-8.63118

>  <SCORE.INTER.ROT>
6

>  <SCORE.INTER.SOLV>
26.6545

>  <SCORE.INTER.VDW>
-22.283

>  <SCORE.INTER.norm>
-1.67268

>  <SCORE.INTRA>
-2.37824

>  <SCORE.INTRA.DIHEDRAL>
3.87436

>  <SCORE.INTRA.DIHEDRAL.0>
18.4149

>  <SCORE.INTRA.POLAR>
-1.12402

>  <SCORE.INTRA.POLAR.0>
0

>  <SCORE.INTRA.REPUL>
-0.092687

>  <SCORE.INTRA.REPUL.0>
0.092687

>  <SCORE.INTRA.SOLV>
1.52265

>  <SCORE.INTRA.SOLV.lig_0>
-120.37

>  <SCORE.INTRA.VDW>
-0.791641

>  <SCORE.INTRA.VDW.0>
-1.75542

>  <SCORE.INTRA.norm>
-0.0767175

>  <SCORE.RESTR>
0

>  <SCORE.RESTR.CAVITY>
0

>  <SCORE.RESTR.norm>
0

>  <SCORE.SYSTEM>
0

>  <SCORE.SYSTEM.CONST>
0

>  <SCORE.SYSTEM.DIHEDRAL>
0

>  <SCORE.SYSTEM.SOLV>
0

>  <SCORE.SYSTEM.norm>
0

>  <SCORE.heavy>
31

>  <SCORE.norm>
-1.7494

>  <RMSD>
2.671

$$$$
1byj cryst
 OpenBabel11021811383D
libRbt.so/2013.1/901 2013/11/27
 31 33  0  0  0  0  0  0  0  0999 V2000
    7.4226    2.0494   -0.9204 C   0  0  1  0  0  0  0  0  0  0  0  0
    7.9121    3.3106   -1.4789 O   0  0  0  0  0  0  0  0  0  0  0  0
    8.2608    3.3603   -2.8947 C   0  0  2  0  0  0  0  0  0  0  0  0
    7.0749    3.2282   -3.7392 O   0  0  0  0  0  0  0  0  0  0  0  0
    9.2991    2.2408   -3.2093 C   0  0  2  0  0  0  0  0  0  0  0  0
    9.7139    2.2127   -4.6257 N   0  3  0  0  0  0  0  0  0  0  0  0
    8.7380    0.8597   -2.7831 C   0  0  0  0  0  0  0  0  0  0  0  0
    8.3456    0.8581   -1.2980 C   0  0  0  0  0  0  0  0  0  0  0  0
    7.3448    2.1653    0.6121 C   0  0  0  0  0  0  0  0  0  0  0  0
    6.1683    2.9014    1.0929 N   0  3  0  0  0  0  0  0  0  0  0  0
    7.4646    5.5966   -4.2954 C   0  0  1  0  0  0  0  0  0  0  0  0
    6.8048    6.9381   -4.6976 C   0  0  0  0  0  0  0  0  0  0  0  0
    5.7132    7.3370   -3.6685 C   0  0  1  0  0  0  0  0  0  0  0  0
    5.1478    8.6534   -4.0208 N   0  3  0  0  0  0  0  0  0  0  0  0
    4.6166    6.2355   -3.5919 C   0  0  1  0  0  0  0  0  0  0  0  0
    5.2259    4.8426   -3.2937 C   0  0  1  0  0  0  0  0  0  0  0  0
    4.1687    3.9027   -3.4163 O   0  0  0  0  0  0  0  0  0  0  0  0
    6.4154    4.4388   -4.2261 C   0  0  2  0  0  0  0  0  0  0  0  0
    8.5676    5.2785   -5.2193 N   0  3  0  0  0  0  0  0  0  0  0  0
    1.5026    5.7525   -0.5195 C   0  0  0  0  0  0  0  0  0  0  0  0
    0.5629    6.9802   -0.4348 C   0  0  2  0  0  0  0  0  0  0  0  0
   -0.7275    6.5478   -0.8639 O   0  0  0  0  0  0  0  0  0  0  0  0
    1.1108    8.1253   -1.3675 C   0  0  1  0  0  0  0  0  0  0  0  0
    1.4704    7.6199   -2.8060 C   0  0  2  0  0  0  0  0  0  0  0  0
    2.2674    6.2907   -2.8122 C   0  0  1  0  0  0  0  0  0  0  0  0
    3.6705    6.5277   -2.5243 O   0  0  0  0  0  0  0  0  0  0  0  0
    1.6796    5.3242   -1.8961 O   0  0  0  0  0  0  0  0  0  0  0  0
    2.2051    8.6001   -3.5345 O   0  0  0  0  0  0  0  0  0  0  0  0
    0.1179    9.2426   -1.4335 N   0  3  0  0  0  0  0  0  0  0  0  0
    0.6155   10.5559   -1.8912 C   0  0  0  0  0  0  0  0  0  0  0  0
    0.4360    7.4051    1.0490 C   0  0  0  0  0  0  0  0  0  0  0  0
  1  8  1  0  0  0  0
  1  9  1  1  0  0  0
  1  2  1  0  0  0  0
  2  3  1  0  0  0  0
  3  5  1  0  0  0  0
  3  4  1  6  0  0  0
  5  7  1  0  0  0  0
  5  6  1  6  0  0  0
  7  8  1  0  0  0  0
  9 10  1  0  0  0  0
 11 12  1  0  0  0  0
 11 18  1  0  0  0  0
 11 19  1  6  0  0  0
 12 13  1  0  0  0  0
 13 15  1  0  0  0  0
 13 14  1  6  0  0  0
 15 16  1  0  0  0  0
 15 26  1  1  0  0  0
 16 18  1  0  0  0  0
 16 17  1  6  0  0  0
 18  4  1  1  0  0  0
 20 21  1  0  0  0  0
 20 27  1  0  0  0  0
 21 31  1  1  0  0  0
 21 23  1  0  0  0  0
 21 22  1  0  0  0  0
 23 24  1  0  0  0  0
 23 29  1  6  0  0  0
 24 25  1  0  0  0  0
 24 28  1  1  0  0  0
 25 27  1  0  0  0  0
 25 26  1  1  0  0  0
 29 30  1  0  0  0  0
M  CHG  5   6   1  10   1  14   1  19   1  29   1
M  END
>  <CHROM.1>
78.41883248,94.77014608,26.20649547,78.38966990,-43.90519851,140.22378196
-75.74151124,138.75039083,-173.27881568,-171.98166444,-77.79744223,-72.25342232
-114.71705559,4.79237984,5.35775720,-2.41836171,0.32184374,-0.55736605,2.36892934

>  <Name>
1byj cryst

>  <RI>
0

>  <Rbt.Current_Directory>
/home/itssahil/PROJECTS/Mol_Feturizer/New_Systems/rnas/1byj

>  <Rbt.Executable>
rbdock ($Id: //depot/dev/client3/rdock/2013.1/src/exe/rbdock.cxx#4 $)

>  <Rbt.Library>
libRbt.so (2013.1, Build901 2013/11/27)

>  <Rbt.Parameter_File>
/export/apps/rDock/src/rDock_2013.1_src/data/scripts/dock_solv.prm

>  <Rbt.Receptor>
prm/pocket_docking_4.prm

>  <SCORE>
-49.6513

>  <SCORE.INTER>
-53.2261

>  <SCORE.INTER.CONST>
1

>  <SCORE.INTER.POLAR>
-8.30381

>  <SCORE.INTER.ROT>
6

>  <SCORE.INTER.SOLV>
23.2796

>  <SCORE.INTER.VDW>
-23.1645

>  <SCORE.INTER.norm>
-1.71697

>  <SCORE.INTRA>
3.5747

>  <SCORE.INTRA.DIHEDRAL>
11.0805

>  <SCORE.INTRA.DIHEDRAL.0>
18.4149

>  <SCORE.INTRA.POLAR>
-1.09567

>  <SCORE.INTRA.POLAR.0>
0

>  <SCORE.INTRA.REPUL>
-0.092687

>  <SCORE.INTRA.REPUL.0>
0.092687

>  <SCORE.INTRA.SOLV>
3.49566

>  <SCORE.INTRA.SOLV.lig_0>
-120.37

>  <SCORE.INTRA.VDW>
0.47531

>  <SCORE.INTRA.VDW.0>
-1.75542

>  <SCORE.INTRA.norm>
0.115313

>  <SCORE.RESTR>
0

>  <SCORE.RESTR.CAVITY>
0

>  <SCORE.RESTR.norm>
0

>  <SCORE.SYSTEM>
0

>  <SCORE.SYSTEM.CONST>
0

>  <SCORE.SYSTEM.DIHEDRAL>
0

>  <SCORE.SYSTEM.SOLV>
0

>  <SCORE.SYSTEM.norm>
0

>  <SCORE.heavy>
31

>  <SCORE.norm>
-1.60166

>  <RMSD>
2.681

$$$$
1byj cryst
 OpenBabel11021811383D
libRbt.so/2013.1/901 2013/11/27
 31 33  0  0  0  0  0  0  0  0999 V2000
    9.3627    1.7432   -3.2185 C   0  0  1  0  0  0  0  0  0  0  0  0
    8.0597    2.1924   -3.7111 O   0  0  0  0  0  0  0  0  0  0  0  0
    7.2375    3.0337   -2.8481 C   0  0  2  0  0  0  0  0  0  0  0  0
    7.8360    4.3550   -2.6671 O   0  0  0  0  0  0  0  0  0  0  0  0
    7.0319    2.3201   -1.4773 C   0  0  2  0  0  0  0  0  0  0  0  0
    6.2079    3.0998   -0.5327 N   0  3  0  0  0  0  0  0  0  0  0  0
    8.4053    1.9803   -0.8431 C   0  0  0  0  0  0  0  0  0  0  0  0
    9.2572    1.1281   -1.7957 C   0  0  0  0  0  0  0  0  0  0  0  0
    9.9395    0.6929   -4.1840 C   0  0  0  0  0  0  0  0  0  0  0  0
   10.1734    1.2002   -5.5424 N   0  3  0  0  0  0  0  0  0  0  0  0
    8.4780    6.5415   -3.6038 C   0  0  1  0  0  0  0  0  0  0  0  0
    7.9853    7.8017   -4.3559 C   0  0  0  0  0  0  0  0  0  0  0  0
    6.7900    8.4494   -3.6065 C   0  0  1  0  0  0  0  0  0  0  0  0
    6.3814    9.6910   -4.2909 N   0  3  0  0  0  0  0  0  0  0  0  0
    5.6144    7.4365   -3.4900 C   0  0  1  0  0  0  0  0  0  0  0  0
    6.0683    6.1072   -2.8364 C   0  0  1  0  0  0  0  0  0  0  0  0
    4.9723    5.2102   -2.9380 O   0  0  0  0  0  0  0  0  0  0  0  0
    7.3459    5.4700   -3.4760 C   0  0  2  0  0  0  0  0  0  0  0  0
    9.6754    5.9937   -4.2651 N   0  3  0  0  0  0  0  0  0  0  0  0
    1.4994    7.9366   -2.5298 C   0  0  0  0  0  0  0  0  0  0  0  0
    1.1048    9.1854   -1.7038 C   0  0  2  0  0  0  0  0  0  0  0  0
    0.3113   10.0133   -2.5531 O   0  0  0  0  0  0  0  0  0  0  0  0
    2.4072    9.9406   -1.2404 C   0  0  1  0  0  0  0  0  0  0  0  0
    3.4269   10.1696   -2.4074 C   0  0  2  0  0  0  0  0  0  0  0  0
    3.6400    8.9176   -3.2957 C   0  0  1  0  0  0  0  0  0  0  0  0
    4.5491    7.9811   -2.6599 O   0  0  0  0  0  0  0  0  0  0  0  0
    2.3688    8.2957   -3.6366 O   0  0  0  0  0  0  0  0  0  0  0  0
    4.6917   10.6060   -1.9165 O   0  0  0  0  0  0  0  0  0  0  0  0
    2.0372   11.2411   -0.6000 N   0  3  0  0  0  0  0  0  0  0  0  0
    1.8471   11.2373    0.8649 C   0  0  0  0  0  0  0  0  0  0  0  0
    0.2041    8.7362   -0.5270 C   0  0  0  0  0  0  0  0  0  0  0  0
  1  8  1  0  0  0  0
  1  9  1  6  0  0  0
  1  2  1  0  0  0  0
  2  3  1  0  0  0  0
  3  5  1  0  0  0  0
  3  4  1  1  0  0  0
  5  7  1  0  0  0  0
  5  6  1  1  0  0  0
  7  8  1  0  0  0  0
  9 10  1  0  0  0  0
 11 12  1  0  0  0  0
 11 18  1  0  0  0  0
 11 19  1  6  0  0  0
 12 13  1  0  0  0  0
 13 15  1  0  0  0  0
 13 14  1  6  0  0  0
 15 16  1  0  0  0  0
 15 26  1  1  0  0  0
 16 18  1  0  0  0  0
 16 17  1  6  0  0  0
 18  4  1  1  0  0  0
 20 21  1  0  0  0  0
 20 27  1  0  0  0  0
 21 31  1  1  0  0  0
 21 23  1  0  0  0  0
 21 22  1  0  0  0  0
 23 24  1  0  0  0  0
 23 29  1  6  0  0  0
 24 25  1  0  0  0  0
 24 28  1  1  0  0  0
 25 27  1  0  0  0  0
 25 26  1  1  0  0  0
 29 30  1  0  0  0  0
M  CHG  5   6   1  10   1  14   1  19   1  29   1
M  END
>  <CHROM.1>
61.64753660,98.85649102,-154.69779609,-54.21596362,-172.12802595,87.83507500
-165.71282591,80.51119067,-58.58113543,61.85135082,-146.83256017,-57.81689208
-133.00830993,5.63120120,6.43594227,-2.65399245,0.69749220,-0.53620377,2.79967137

>  <Name>
1byj cryst

>  <RI>
0

>  <Rbt.Current_Directory>
/home/itssahil/PROJECTS/Mol_Feturizer/New_Systems/rnas/1byj

>  <Rbt.Executable>
rbdock ($Id: //depot/dev/client3/rdock/2013.1/src/exe/rbdock.cxx#4 $)

>  <Rbt.Library>
libRbt.so (2013.1, Build901 2013/11/27)

>  <Rbt.Parameter_File>
/export/apps/rDock/src/rDock_2013.1_src/data/scripts/dock_solv.prm

>  <Rbt.Receptor>
prm/pocket_docking_7.prm

>  <SCORE>
-57.7277

>  <SCORE.INTER>
-53.4022

>  <SCORE.INTER.CONST>
1

>  <SCORE.INTER.POLAR>
-7.4845

>  <SCORE.INTER.ROT>
6

>  <SCORE.INTER.SOLV>
27.0677

>  <SCORE.INTER.VDW>
-27.2757

>  <SCORE.INTER.norm>
-1.72265

>  <SCORE.INTRA>
-4.32547

>  <SCORE.INTRA.DIHEDRAL>
2.38976

>  <SCORE.INTRA.DIHEDRAL.0>
18.4149

>  <SCORE.INTRA.POLAR>
-1.29972

>  <SCORE.INTRA.POLAR.0>
0

>  <SCORE.INTRA.REPUL>
-0.092687

>  <SCORE.INTRA.REPUL.0>
0.092687

>  <SCORE.INTRA.SOLV>
0.325025

>  <SCORE.INTRA.SOLV.lig_0>
-120.37

>  <SCORE.INTRA.VDW>
-0.800368

>  <SCORE.INTRA.VDW.0>
-1.75542

>  <SCORE.INTRA.norm>
-0.139531

>  <SCORE.RESTR>
0

>  <SCORE.RESTR.CAVITY>
0

>  <SCORE.RESTR.norm>
0

>  <SCORE.SYSTEM>
0

>  <SCORE.SYSTEM.CONST>
0

>  <SCORE.SYSTEM.DIHEDRAL>
0

>  <SCORE.SYSTEM.SOLV>
0

>  <SCORE.SYSTEM.norm>
0

>  <SCORE.heavy>
31

>  <SCORE.norm>
-1.86218

>  <RMSD>
2.684

$$$$
1byj cryst
 OpenBabel11021811383D
libRbt.so/2013.1/901 2013/11/27
 31 33  0  0  0  0  0  0  0  0999 V2000
    7.7453    2.1841   -0.6093 C   0  0  1  0  0  0  0  0  0  0  0  0
    8.1036    3.4353   -1.2789 O   0  0  0  0  0  0  0  0  0  0  0  0
    8.3411    3.4154   -2.7183 C   0  0  2  0  0  0  0  0  0  0  0  0
    7.1074    3.1530   -3.4571 O   0  0  0  0  0  0  0  0  0  0  0  0
    9.4277    2.3469   -3.0465 C   0  0  2  0  0  0  0  0  0  0  0  0
    9.7364    2.2536   -4.4870 N   0  3  0  0  0  0  0  0  0  0  0  0
    8.9967    0.9631   -2.4956 C   0  0  0  0  0  0  0  0  0  0  0  0
    8.7175    1.0325   -0.9867 C   0  0  0  0  0  0  0  0  0  0  0  0
    7.7746    2.3939    0.9150 C   0  0  0  0  0  0  0  0  0  0  0  0
    7.3107    1.2312    1.6833 N   0  3  0  0  0  0  0  0  0  0  0  0
    7.2807    5.4972   -4.1954 C   0  0  1  0  0  0  0  0  0  0  0  0
    6.4961    6.7653   -4.6113 C   0  0  0  0  0  0  0  0  0  0  0  0
    5.4846    7.1662   -3.5041 C   0  0  1  0  0  0  0  0  0  0  0  0
    4.8002    8.4185   -3.8785 N   0  3  0  0  0  0  0  0  0  0  0  0
    4.4774    6.0076   -3.2494 C   0  0  1  0  0  0  0  0  0  0  0  0
    5.2052    4.6782   -2.9283 C   0  0  1  0  0  0  0  0  0  0  0  0
    4.2070    3.6694   -2.8853 O   0  0  0  0  0  0  0  0  0  0  0  0
    6.3236    4.2851   -3.9491 C   0  0  2  0  0  0  0  0  0  0  0  0
    8.3083    5.1848   -5.2042 N   0  3  0  0  0  0  0  0  0  0  0  0
    2.4158    5.2880    0.4986 C   0  0  0  0  0  0  0  0  0  0  0  0
    1.0877    6.0651    0.6715 C   0  0  2  0  0  0  0  0  0  0  0  0
    0.0374    5.0993    0.6775 O   0  0  0  0  0  0  0  0  0  0  0  0
    0.9133    7.0777   -0.5225 C   0  0  1  0  0  0  0  0  0  0  0  0
    1.1584    6.4177   -1.9220 C   0  0  2  0  0  0  0  0  0  0  0  0
    2.4175    5.5152   -1.9671 C   0  0  1  0  0  0  0  0  0  0  0  0
    3.6212    6.3138   -2.1119 O   0  0  0  0  0  0  0  0  0  0  0  0
    2.4789    4.6446   -0.8022 O   0  0  0  0  0  0  0  0  0  0  0  0
    1.2587    7.3990   -2.9507 O   0  0  0  0  0  0  0  0  0  0  0  0
   -0.4457    7.7004   -0.4633 N   0  3  0  0  0  0  0  0  0  0  0  0
   -0.5124    9.1739   -0.5432 C   0  0  0  0  0  0  0  0  0  0  0  0
    1.0918    6.7492    2.0608 C   0  0  0  0  0  0  0  0  0  0  0  0
  1  8  1  0  0  0  0
  1  9  1  1  0  0  0
  1  2  1  0  0  0  0
  2  3  1  0  0  0  0
  3  5  1  0  0  0  0
  3  4  1  6  0  0  0
  5  7  1  0  0  0  0
  5  6  1  6  0  0  0
  7  8  1  0  0  0  0
  9 10  1  0  0  0  0
 11 12  1  0  0  0  0
 11 18  1  0  0  0  0
 11 19  1  6  0  0  0
 12 13  1  0  0  0  0
 13 15  1  0  0  0  0
 13 14  1  6  0  0  0
 15 16  1  0  0  0  0
 15 26  1  1  0  0  0
 16 18  1  0  0  0  0
 16 17  1  6  0  0  0
 18  4  1  1  0  0  0
 20 21  1  0  0  0  0
 20 27  1  0  0  0  0
 21 31  1  1  0  0  0
 21 23  1  0  0  0  0
 21 22  1  0  0  0  0
 23 24  1  0  0  0  0
 23 29  1  6  0  0  0
 24 25  1  0  0  0  0
 24 28  1  6  0  0  0
 25 27  1  0  0  0  0
 25 26  1  1  0  0  0
 29 30  1  0  0  0  0
M  CHG  5   6   1  10   1  14   1  19   1  29   1
M  END
>  <CHROM.1>
174.71813936,94.10684721,27.65992002,-162.24894475,69.56062531,151.20519244
67.66352719,164.15048123,80.33377540,-177.23475563,-109.39622929,67.03011710
-123.66722816,4.86015741,4.89137508,-1.88593149,0.11674330,-0.54536224,2.22296554

>  <Name>
1byj cryst

>  <RI>
0

>  <Rbt.Current_Directory>
/home/itssahil/PROJECTS/Mol_Feturizer/New_Systems/rnas/1byj

>  <Rbt.Executable>
rbdock ($Id: //depot/dev/client3/rdock/2013.1/src/exe/rbdock.cxx#4 $)

>  <Rbt.Library>
libRbt.so (2013.1, Build901 2013/11/27)

>  <Rbt.Parameter_File>
/export/apps/rDock/src/rDock_2013.1_src/data/scripts/dock_solv.prm

>  <Rbt.Receptor>
prm/pocket_docking_5.prm

>  <SCORE>
-47.4028

>  <SCORE.INTER>
-52.2331

>  <SCORE.INTER.CONST>
1

>  <SCORE.INTER.POLAR>
-8.28242

>  <SCORE.INTER.ROT>
6

>  <SCORE.INTER.SOLV>
25.9871

>  <SCORE.INTER.VDW>
-23.4764

>  <SCORE.INTER.norm>
-1.68494

>  <SCORE.INTRA>
4.8303

>  <SCORE.INTRA.DIHEDRAL>
6.8186

>  <SCORE.INTRA.DIHEDRAL.0>
18.4149

>  <SCORE.INTRA.POLAR>
-0.0107988

>  <SCORE.INTRA.POLAR.0>
0

>  <SCORE.INTRA.REPUL>
-0.092687

>  <SCORE.INTRA.REPUL.0>
0.092687

>  <SCORE.INTRA.SOLV>
2.36102

>  <SCORE.INTRA.SOLV.lig_0>
-120.37

>  <SCORE.INTRA.VDW>
0.740637

>  <SCORE.INTRA.VDW.0>
-1.75542

>  <SCORE.INTRA.norm>
0.155816

>  <SCORE.RESTR>
0

>  <SCORE.RESTR.CAVITY>
0

>  <SCORE.RESTR.norm>
0

>  <SCORE.SYSTEM>
0

>  <SCORE.SYSTEM.CONST>
0

>  <SCORE.SYSTEM.DIHEDRAL>
0

>  <SCORE.SYSTEM.SOLV>
0

>  <SCORE.SYSTEM.norm>
0

>  <SCORE.heavy>
31

>  <SCORE.norm>
-1.52912

>  <RMSD>
2.703

$$$$
1byj cryst
 OpenBabel11021811383D
libRbt.so/2013.1/901 2013/11/27
 31 33  0  0  0  0  0  0  0  0999 V2000
    7.6751    2.2838   -0.8617 C   0  0  1  0  0  0  0  0  0  0  0  0
    8.1153    3.4867   -1.5699 O   0  0  0  0  0  0  0  0  0  0  0  0
    8.3157    3.4151   -3.0132 C   0  0  2  0  0  0  0  0  0  0  0  0
    7.0476    3.2353   -3.7177 O   0  0  0  0  0  0  0  0  0  0  0  0
    9.3059    2.2559   -3.3390 C   0  0  2  0  0  0  0  0  0  0  0  0
    9.5713    2.1054   -4.7833 N   0  3  0  0  0  0  0  0  0  0  0  0
    8.7798    0.9239   -2.7447 C   0  0  0  0  0  0  0  0  0  0  0  0
    8.5435    1.0499   -1.2321 C   0  0  0  0  0  0  0  0  0  0  0  0
    7.7577    2.5253    0.6558 C   0  0  0  0  0  0  0  0  0  0  0  0
    8.9024    3.3500    1.0643 N   0  3  0  0  0  0  0  0  0  0  0  0
    7.3198    5.6100   -4.3153 C   0  0  1  0  0  0  0  0  0  0  0  0
    6.5904    6.9241   -4.6864 C   0  0  0  0  0  0  0  0  0  0  0  0
    5.5507    7.2956   -3.5952 C   0  0  1  0  0  0  0  0  0  0  0  0
    4.9193    8.5883   -3.9222 N   0  3  0  0  0  0  0  0  0  0  0  0
    4.4998    6.1580   -3.4427 C   0  0  1  0  0  0  0  0  0  0  0  0
    5.1743    4.7898   -3.1718 C   0  0  1  0  0  0  0  0  0  0  0  0
    4.1449    3.8131   -3.2217 O   0  0  0  0  0  0  0  0  0  0  0  0
    6.3177    4.4178   -4.1725 C   0  0  2  0  0  0  0  0  0  0  0  0
    8.3745    5.3208   -5.3029 N   0  3  0  0  0  0  0  0  0  0  0  0
    2.5109    5.2402    0.2669 C   0  0  0  0  0  0  0  0  0  0  0  0
    1.1521    5.9457    0.4981 C   0  0  2  0  0  0  0  0  0  0  0  0
    0.1483    4.9317    0.4838 O   0  0  0  0  0  0  0  0  0  0  0  0
    0.9053    6.9970   -0.6488 C   0  0  1  0  0  0  0  0  0  0  0  0
    1.1509    6.4073   -2.0792 C   0  0  2  0  0  0  0  0  0  0  0  0
    2.4494    5.5682   -2.1866 C   0  0  1  0  0  0  0  0  0  0  0  0
    3.6113    6.4282   -2.3211 O   0  0  0  0  0  0  0  0  0  0  0  0
    2.5762    4.6544   -1.0607 O   0  0  0  0  0  0  0  0  0  0  0  0
    1.1834    7.4336   -3.0676 O   0  0  0  0  0  0  0  0  0  0  0  0
   -0.4797    7.5516   -0.5371 N   0  3  0  0  0  0  0  0  0  0  0  0
   -0.6111    8.9279   -0.0169 C   0  0  0  0  0  0  0  0  0  0  0  0
    1.1540    6.5716    1.9145 C   0  0  0  0  0  0  0  0  0  0  0  0
  1  8  1  0  0  0  0
  1  9  1  1  0  0  0
  1  2  1  0  0  0  0
  2  3  1  0  0  0  0
  3  5  1  0  0  0  0
  3  4  1  6  0  0  0
  5  7  1  0  0  0  0
  5  6  1  6  0  0  0
  7  8  1  0  0  0  0
  9 10  1  0  0  0  0
 11 12  1  0  0  0  0
 11 18  1  0  0  0  0
 11 19  1  6  0  0  0
 12 13  1  0  0  0  0
 13 15  1  0  0  0  0
 13 14  1  6  0  0  0
 15 16  1  0  0  0  0
 15 26  1  1  0  0  0
 16 18  1  0  0  0  0
 16 17  1  6  0  0  0
 18  4  1  1  0  0  0
 20 21  1  0  0  0  0
 20 27  1  0  0  0  0
 21 31  1  1  0  0  0
 21 23  1  0  0  0  0
 21 22  1  0  0  0  0
 23 24  1  0  0  0  0
 23 29  1  6  0  0  0
 24 25  1  0  0  0  0
 24 28  1  6  0  0  0
 25 27  1  0  0  0  0
 25 26  1  1  0  0  0
 29 30  1  0  0  0  0
M  CHG  5   6   1  10   1  14   1  19   1  29   1
M  END
>  <CHROM.1>
-36.28314002,91.65983122,22.86019213,79.55268357,147.45328007,142.78657263
-176.44020365,170.39227428,-175.92570120,-58.09800017,-133.30509551,-60.14505666
-127.22661494,4.91252162,4.98751892,-2.07755359,0.05308706,-0.53325927,2.17635041

>  <Name>
1byj cryst

>  <RI>
0

>  <Rbt.Current_Directory>
/home/itssahil/PROJECTS/Mol_Feturizer/New_Systems/rnas/1byj

>  <Rbt.Executable>
rbdock ($Id: //depot/dev/client3/rdock/2013.1/src/exe/rbdock.cxx#4 $)

>  <Rbt.Library>
libRbt.so (2013.1, Build901 2013/11/27)

>  <Rbt.Parameter_File>
/export/apps/rDock/src/rDock_2013.1_src/data/scripts/dock_solv.prm

>  <Rbt.Receptor>
prm/pocket_docking_6.prm

>  <SCORE>
-48.0104

>  <SCORE.INTER>
-52.9997

>  <SCORE.INTER.CONST>
1

>  <SCORE.INTER.POLAR>
-8.3963

>  <SCORE.INTER.ROT>
6

>  <SCORE.INTER.SOLV>
26.3164

>  <SCORE.INTER.VDW>
-23.7176

>  <SCORE.INTER.norm>
-1.70967

>  <SCORE.INTRA>
4.9893

>  <SCORE.INTRA.DIHEDRAL>
8.34245

>  <SCORE.INTRA.DIHEDRAL.0>
18.4149

>  <SCORE.INTRA.POLAR>
-0.269268

>  <SCORE.INTRA.POLAR.0>
0

>  <SCORE.INTRA.REPUL>
-0.092687

>  <SCORE.INTRA.REPUL.0>
0.092687

>  <SCORE.INTRA.SOLV>
2.21612

>  <SCORE.INTRA.SOLV.lig_0>
-120.37

>  <SCORE.INTRA.VDW>
1.08896

>  <SCORE.INTRA.VDW.0>
-1.75542

>  <SCORE.INTRA.norm>
0.160945

>  <SCORE.RESTR>
0

>  <SCORE.RESTR.CAVITY>
0

>  <SCORE.RESTR.norm>
0

>  <SCORE.SYSTEM>
0

>  <SCORE.SYSTEM.CONST>
0

>  <SCORE.SYSTEM.DIHEDRAL>
0

>  <SCORE.SYSTEM.SOLV>
0

>  <SCORE.SYSTEM.norm>
0

>  <SCORE.heavy>
31

>  <SCORE.norm>
-1.54872

>  <RMSD>
2.707

$$$$
1byj cryst
 OpenBabel11021811383D
libRbt.so/2013.1/901 2013/11/27
 31 33  0  0  0  0  0  0  0  0999 V2000
    5.7527    2.1409   -0.3473 C   0  0  1  0  0  0  0  0  0  0  0  0
    6.4146    3.4064   -0.6671 O   0  0  0  0  0  0  0  0  0  0  0  0
    7.4006    3.4283   -1.7423 C   0  0  2  0  0  0  0  0  0  0  0  0
    6.7724    3.2102   -3.0441 O   0  0  0  0  0  0  0  0  0  0  0  0
    8.4934    2.3527   -1.4612 C   0  0  2  0  0  0  0  0  0  0  0  0
    9.5397    2.3000   -2.5012 N   0  3  0  0  0  0  0  0  0  0  0  0
    7.8359    0.9595   -1.2853 C   0  0  0  0  0  0  0  0  0  0  0  0
    6.7770    0.9857   -0.1729 C   0  0  0  0  0  0  0  0  0  0  0  0
    4.9432    2.3016    0.9515 C   0  0  0  0  0  0  0  0  0  0  0  0
    3.8644    3.2941    0.8597 N   0  3  0  0  0  0  0  0  0  0  0  0
    7.0728    5.4760   -3.9640 C   0  0  1  0  0  0  0  0  0  0  0  0
    6.3603    6.7257   -4.5359 C   0  0  0  0  0  0  0  0  0  0  0  0
    5.2953    7.2497   -3.5354 C   0  0  1  0  0  0  0  0  0  0  0  0
    4.6795    8.4844   -4.0582 N   0  3  0  0  0  0  0  0  0  0  0  0
    4.2346    6.1471   -3.2510 C   0  0  1  0  0  0  0  0  0  0  0  0
    4.8944    4.8297   -2.7720 C   0  0  1  0  0  0  0  0  0  0  0  0
    3.8612    3.8577   -2.7101 O   0  0  0  0  0  0  0  0  0  0  0  0
    6.0608    4.3178   -3.6802 C   0  0  2  0  0  0  0  0  0  0  0  0
    8.1506    5.0480   -4.8732 N   0  3  0  0  0  0  0  0  0  0  0  0
    1.0532    6.3950   -0.1647 C   0  0  0  0  0  0  0  0  0  0  0  0
    0.2730    7.7257   -0.2988 C   0  0  2  0  0  0  0  0  0  0  0  0
   -1.0571    7.3912   -0.6925 O   0  0  0  0  0  0  0  0  0  0  0  0
    0.9680    8.6341   -1.3820 C   0  0  1  0  0  0  0  0  0  0  0  0
    1.2753    7.8682   -2.7135 C   0  0  2  0  0  0  0  0  0  0  0  0
    1.9005    6.4678   -2.4902 C   0  0  1  0  0  0  0  0  0  0  0  0
    3.3194    6.5749   -2.2022 O   0  0  0  0  0  0  0  0  0  0  0  0
    1.1883    5.7366   -1.4524 O   0  0  0  0  0  0  0  0  0  0  0  0
    2.1331    8.6246   -3.5639 O   0  0  0  0  0  0  0  0  0  0  0  0
    0.1228    9.8393   -1.6493 N   0  3  0  0  0  0  0  0  0  0  0  0
    0.7161   10.9025   -2.4856 C   0  0  0  0  0  0  0  0  0  0  0  0
    0.1862    8.3915    1.0966 C   0  0  0  0  0  0  0  0  0  0  0  0
  1  8  1  0  0  0  0
  1  9  1  1  0  0  0
  1  2  1  0  0  0  0
  2  3  1  0  0  0  0
  3  5  1  0  0  0  0
  3  4  1  6  0  0  0
  5  7  1  0  0  0  0
  5  6  1  6  0  0  0
  7  8  1  0  0  0  0
  9 10  1  0  0  0  0
 11 12  1  0  0  0  0
 11 18  1  0  0  0  0
 11 19  1  6  0  0  0
 12 13  1  0  0  0  0
 13 15  1  0  0  0  0
 13 14  1  6  0  0  0
 15 16  1  0  0  0  0
 15 26  1  1  0  0  0
 16 18  1  0  0  0  0
 16 17  1  6  0  0  0
 18  4  1  1  0  0  0
 20 21  1  0  0  0  0
 20 27  1  0  0  0  0
 21 31  1  1  0  0  0
 21 23  1  0  0  0  0
 21 22  1  0  0  0  0
 23 24  1  0  0  0  0
 23 29  1  6  0  0  0
 24 25  1  0  0  0  0
 24 28  1  6  0  0  0
 25 27  1  0  0  0  0
 25 26  1  1  0  0  0
 29 30  1  0  0  0  0
M  CHG  5   6   1  10   1  14   1  19   1  29   1
M  END
>  <CHROM.1>
62.37752075,77.77087562,62.35168910,62.71920489,61.11663153,-52.84338064
41.69247837,128.80417992,-177.33923368,60.73203464,-67.96592621,-160.18674207
-107.79030274,4.18972773,5.53745093,-1.97428886,0.46939364,-0.54783800,2.41795390

>  <Name>
1byj cryst

>  <RI>
0

>  <Rbt.Current_Directory>
/home/itssahil/PROJECTS/Mol_Feturizer/New_Systems/rnas/1byj

>  <Rbt.Executable>
rbdock ($Id: //depot/dev/client3/rdock/2013.1/src/exe/rbdock.cxx#4 $)

>  <Rbt.Library>
libRbt.so (2013.1, Build901 2013/11/27)

>  <Rbt.Parameter_File>
/export/apps/rDock/src/rDock_2013.1_src/data/scripts/dock_solv.prm

>  <Rbt.Receptor>
prm/pocket_docking_4.prm

>  <SCORE>
-46.0204

>  <SCORE.INTER>
-41.4083

>  <SCORE.INTER.CONST>
1

>  <SCORE.INTER.POLAR>
-6.60077

>  <SCORE.INTER.ROT>
6

>  <SCORE.INTER.SOLV>
20.8219

>  <SCORE.INTER.VDW>
-20.1436

>  <SCORE.INTER.norm>
-1.33575

>  <SCORE.INTRA>
-4.61208

>  <SCORE.INTRA.DIHEDRAL>
-0.458258

>  <SCORE.INTRA.DIHEDRAL.0>
18.4149

>  <SCORE.INTRA.POLAR>
-1.16579

>  <SCORE.INTRA.POLAR.0>
0

>  <SCORE.INTRA.REPUL>
-0.092687

>  <SCORE.INTRA.REPUL.0>
0.092687

>  <SCORE.INTRA.SOLV>
3.2396

>  <SCORE.INTRA.SOLV.lig_0>
-120.37

>  <SCORE.INTRA.VDW>
-1.57563

>  <SCORE.INTRA.VDW.0>
-1.75542

>  <SCORE.INTRA.norm>
-0.148777

>  <SCORE.RESTR>
0

>  <SCORE.RESTR.CAVITY>
0

>  <SCORE.RESTR.norm>
0

>  <SCORE.SYSTEM>
0

>  <SCORE.SYSTEM.CONST>
0

>  <SCORE.SYSTEM.DIHEDRAL>
0

>  <SCORE.SYSTEM.SOLV>
0

>  <SCORE.SYSTEM.norm>
0

>  <SCORE.heavy>
31

>  <SCORE.norm>
-1.48453

>  <RMSD>
2.720

$$$$
1byj cryst
 OpenBabel11021811383D
libRbt.so/2013.1/901 2013/11/27
 31 33  0  0  0  0  0  0  0  0999 V2000
    9.5969    2.0019   -3.3787 C   0  0  1  0  0  0  0  0  0  0  0  0
    8.2854    2.3656   -3.9172 O   0  0  0  0  0  0  0  0  0  0  0  0
    7.4581    3.3062   -3.1691 C   0  0  2  0  0  0  0  0  0  0  0  0
    8.0414    4.6465   -3.1726 O   0  0  0  0  0  0  0  0  0  0  0  0
    7.2699    2.7817   -1.7132 C   0  0  2  0  0  0  0  0  0  0  0  0
    6.4421    3.6722   -0.8760 N   0  3  0  0  0  0  0  0  0  0  0  0
    8.6513    2.5463   -1.0496 C   0  0  0  0  0  0  0  0  0  0  0  0
    9.5078    1.5831   -1.8853 C   0  0  0  0  0  0  0  0  0  0  0  0
   10.1807    0.8377   -4.1983 C   0  0  0  0  0  0  0  0  0  0  0  0
   10.2636    1.1089   -5.6394 N   0  3  0  0  0  0  0  0  0  0  0  0
    8.1084    7.0622   -3.6526 C   0  0  1  0  0  0  0  0  0  0  0  0
    7.3692    8.2538   -4.3085 C   0  0  0  0  0  0  0  0  0  0  0  0
    5.9334    8.3859   -3.7332 C   0  0  1  0  0  0  0  0  0  0  0  0
    5.2687    9.5705   -4.3091 N   0  3  0  0  0  0  0  0  0  0  0  0
    5.1258    7.0819   -3.9954 C   0  0  1  0  0  0  0  0  0  0  0  0
    5.8649    5.8333   -3.4522 C   0  0  1  0  0  0  0  0  0  0  0  0
    5.1290    4.7022   -3.8939 O   0  0  0  0  0  0  0  0  0  0  0  0
    7.3581    5.7130   -3.9030 C   0  0  2  0  0  0  0  0  0  0  0  0
    9.5020    7.0079   -4.1284 N   0  3  0  0  0  0  0  0  0  0  0  0
    1.7380    8.6000   -1.6570 C   0  0  0  0  0  0  0  0  0  0  0  0
    1.0451    7.5016   -0.8138 C   0  0  2  0  0  0  0  0  0  0  0  0
    1.2778    7.8200    0.5576 O   0  0  0  0  0  0  0  0  0  0  0  0
    1.6589    6.0969   -1.1765 C   0  0  1  0  0  0  0  0  0  0  0  0
    3.2254    6.0965   -1.1711 C   0  0  2  0  0  0  0  0  0  0  0  0
    3.8457    7.3215   -1.8897 C   0  0  1  0  0  0  0  0  0  0  0  0
    3.8318    7.1380   -3.3298 O   0  0  0  0  0  0  0  0  0  0  0  0
    3.1803    8.5535   -1.4917 O   0  0  0  0  0  0  0  0  0  0  0  0
    3.7484    4.9067   -1.7559 O   0  0  0  0  0  0  0  0  0  0  0  0
    1.1275    5.0562   -0.2421 N   0  3  0  0  0  0  0  0  0  0  0  0
    0.1991    4.0570   -0.8091 C   0  0  0  0  0  0  0  0  0  0  0  0
   -0.4827    7.5841   -1.0526 C   0  0  0  0  0  0  0  0  0  0  0  0
  1  8  1  0  0  0  0
  1  9  1  6  0  0  0
  1  2  1  0  0  0  0
  2  3  1  0  0  0  0
  3  5  1  0  0  0  0
  3  4  1  1  0  0  0
  5  7  1  0  0  0  0
  5  6  1  1  0  0  0
  7  8  1  0  0  0  0
  9 10  1  0  0  0  0
 11 12  1  0  0  0  0
 11 18  1  0  0  0  0
 11 19  1  6  0  0  0
 12 13  1  0  0  0  0
 13 15  1  0  0  0  0
 13 14  1  6  0  0  0
 15 16  1  0  0  0  0
 15 26  1  1  0  0  0
 16 18  1  0  0  0  0
 16 17  1  6  0  0  0
 18  4  1  1  0  0  0
 20 21  1  0  0  0  0
 20 27  1  0  0  0  0
 21 31  1  6  0  0  0
 21 23  1  0  0  0  0
 21 22  1  0  0  0  0
 23 24  1  0  0  0  0
 23 29  1  1  0  0  0
 24 25  1  0  0  0  0
 24 28  1  6  0  0  0
 25 27  1  0  0  0  0
 25 26  1  6  0  0  0
 29 30  1  0  0  0  0
M  CHG  5   6   1  10   1  14   1  19   1  29   1
M  END
>  <CHROM.1>
55.35127702,111.82965928,175.20630598,175.49039958,-44.75464313,-74.09150677
106.53163981,-58.54911536,-70.86599432,-59.11355882,-128.46006209,-56.32891172
-116.84555951,5.46842920,5.45424302,-2.55782873,0.38573202,-0.46433884,2.81054560

>  <Name>
1byj cryst

>  <RI>
0

>  <Rbt.Current_Directory>
/home/itssahil/PROJECTS/Mol_Feturizer/New_Systems/rnas/1byj

>  <Rbt.Executable>
rbdock ($Id: //depot/dev/client3/rdock/2013.1/src/exe/rbdock.cxx#4 $)

>  <Rbt.Library>
libRbt.so (2013.1, Build901 2013/11/27)

>  <Rbt.Parameter_File>
/export/apps/rDock/src/rDock_2013.1_src/data/scripts/dock_solv.prm

>  <Rbt.Receptor>
prm/pocket_docking_4.prm

>  <SCORE>
-53.4568

>  <SCORE.INTER>
-48.6717

>  <SCORE.INTER.CONST>
1

>  <SCORE.INTER.POLAR>
-7.43078

>  <SCORE.INTER.ROT>
6

>  <SCORE.INTER.SOLV>
27.2715

>  <SCORE.INTER.VDW>
-24.369

>  <SCORE.INTER.norm>
-1.57006

>  <SCORE.INTRA>
-4.78503

>  <SCORE.INTRA.DIHEDRAL>
4.22446

>  <SCORE.INTRA.DIHEDRAL.0>
18.4149

>  <SCORE.INTRA.POLAR>
-1.92378

>  <SCORE.INTRA.POLAR.0>
0

>  <SCORE.INTRA.REPUL>
-0.092687

>  <SCORE.INTRA.REPUL.0>
0.092687

>  <SCORE.INTRA.SOLV>
1.66858

>  <SCORE.INTRA.SOLV.lig_0>
-120.37

>  <SCORE.INTRA.VDW>
-0.72725

>  <SCORE.INTRA.VDW.0>
-1.75542

>  <SCORE.INTRA.norm>
-0.154356

>  <SCORE.RESTR>
0

>  <SCORE.RESTR.CAVITY>
0

>  <SCORE.RESTR.norm>
0

>  <SCORE.SYSTEM>
0

>  <SCORE.SYSTEM.CONST>
0

>  <SCORE.SYSTEM.DIHEDRAL>
0

>  <SCORE.SYSTEM.SOLV>
0

>  <SCORE.SYSTEM.norm>
0

>  <SCORE.heavy>
31

>  <SCORE.norm>
-1.72441

>  <RMSD>
2.737

$$$$
1byj cryst
 OpenBabel11021811383D
libRbt.so/2013.1/901 2013/11/27
 31 33  0  0  0  0  0  0  0  0999 V2000
    9.3292    1.4636   -3.3375 C   0  0  1  0  0  0  0  0  0  0  0  0
    7.9308    1.7559   -3.6556 O   0  0  0  0  0  0  0  0  0  0  0  0
    7.1263    2.4775   -2.6754 C   0  0  2  0  0  0  0  0  0  0  0  0
    7.5792    3.8597   -2.5300 O   0  0  0  0  0  0  0  0  0  0  0  0
    7.1793    1.7249   -1.3111 C   0  0  2  0  0  0  0  0  0  0  0  0
    6.3906    2.3840   -0.2516 N   0  3  0  0  0  0  0  0  0  0  0  0
    8.6515    1.5479   -0.8579 C   0  0  0  0  0  0  0  0  0  0  0  0
    9.4754    0.8204   -1.9309 C   0  0  0  0  0  0  0  0  0  0  0  0
    9.9045    0.5059   -4.3957 C   0  0  0  0  0  0  0  0  0  0  0  0
    9.4882    0.8191   -5.7690 N   0  3  0  0  0  0  0  0  0  0  0  0
    8.1313    6.0746   -3.4572 C   0  0  1  0  0  0  0  0  0  0  0  0
    7.6781    7.2086   -4.4086 C   0  0  0  0  0  0  0  0  0  0  0  0
    6.2537    7.6975   -4.0319 C   0  0  1  0  0  0  0  0  0  0  0  0
    5.8662    8.8291   -4.8956 N   0  3  0  0  0  0  0  0  0  0  0  0
    5.2384    6.5217   -4.1247 C   0  0  1  0  0  0  0  0  0  0  0  0
    5.6892    5.3091   -3.2723 C   0  0  1  0  0  0  0  0  0  0  0  0
    4.7899    4.2503   -3.5657 O   0  0  0  0  0  0  0  0  0  0  0  0
    7.1629    4.8482   -3.5236 C   0  0  2  0  0  0  0  0  0  0  0  0
    9.5215    5.6887   -3.7566 N   0  3  0  0  0  0  0  0  0  0  0  0
    2.9523    9.4775   -2.2573 C   0  0  0  0  0  0  0  0  0  0  0  0
    1.6002    9.0983   -1.6048 C   0  0  2  0  0  0  0  0  0  0  0  0
    1.7479    9.2898   -0.1985 O   0  0  0  0  0  0  0  0  0  0  0  0
    1.2617    7.5957   -1.9349 C   0  0  1  0  0  0  0  0  0  0  0  0
    2.4628    6.6269   -1.6648 C   0  0  2  0  0  0  0  0  0  0  0  0
    3.8168    7.1579   -2.2000 C   0  0  1  0  0  0  0  0  0  0  0  0
    3.9320    6.9325   -3.6296 O   0  0  0  0  0  0  0  0  0  0  0  0
    4.0029    8.5593   -1.8534 O   0  0  0  0  0  0  0  0  0  0  0  0
    2.2247    5.3348   -2.2171 O   0  0  0  0  0  0  0  0  0  0  0  0
    0.0542    7.1677   -1.1622 N   0  3  0  0  0  0  0  0  0  0  0  0
   -0.6859    5.9946   -1.6701 C   0  0  0  0  0  0  0  0  0  0  0  0
    0.5186   10.0929   -2.0936 C   0  0  0  0  0  0  0  0  0  0  0  0
  1  8  1  0  0  0  0
  1  9  1  6  0  0  0
  1  2  1  0  0  0  0
  2  3  1  0  0  0  0
  3  5  1  0  0  0  0
  3  4  1  1  0  0  0
  5  7  1  0  0  0  0
  5  6  1  1  0  0  0
  7  8  1  0  0  0  0
  9 10  1  0  0  0  0
 11 12  1  0  0  0  0
 11 18  1  0  0  0  0
 11 19  1  6  0  0  0
 12 13  1  0  0  0  0
 13 15  1  0  0  0  0
 13 14  1  6  0  0  0
 15 16  1  0  0  0  0
 15 26  1  1  0  0  0
 16 18  1  0  0  0  0
 16 17  1  6  0  0  0
 18  4  1  1  0  0  0
 20 21  1  0  0  0  0
 20 27  1  0  0  0  0
 21 31  1  6  0  0  0
 21 23  1  0  0  0  0
 21 22  1  0  0  0  0
 23 24  1  0  0  0  0
 23 29  1  1  0  0  0
 24 25  1  0  0  0  0
 24 28  1  6  0  0  0
 25 27  1  0  0  0  0
 25 26  1  6  0  0  0
 29 30  1  0  0  0  0
M  CHG  5   6   1  10   1  14   1  19   1  29   1
M  END
>  <CHROM.1>
41.03421476,80.03979625,-160.50080523,69.26663111,133.73060337,-166.95911983
12.33440078,-70.25015429,-68.13464618,-173.33123813,-79.74339738,51.80911376
-140.54456574,5.37355920,5.39207426,-2.72287305,0.59414891,-0.46053929,2.78026902

>  <Name>
1byj cryst

>  <RI>
0

>  <Rbt.Current_Directory>
/home/itssahil/PROJECTS/Mol_Feturizer/New_Systems/rnas/1byj

>  <Rbt.Executable>
rbdock ($Id: //depot/dev/client3/rdock/2013.1/src/exe/rbdock.cxx#4 $)

>  <Rbt.Library>
libRbt.so (2013.1, Build901 2013/11/27)

>  <Rbt.Parameter_File>
/export/apps/rDock/src/rDock_2013.1_src/data/scripts/dock_solv.prm

>  <Rbt.Receptor>
prm/pocket_docking_4.prm

>  <SCORE>
-42.5947

>  <SCORE.INTER>
-39.6034

>  <SCORE.INTER.CONST>
1

>  <SCORE.INTER.POLAR>
-5.35013

>  <SCORE.INTER.ROT>
6

>  <SCORE.INTER.SOLV>
30.9481

>  <SCORE.INTER.VDW>
-26.4845

>  <SCORE.INTER.norm>
-1.27753

>  <SCORE.INTRA>
-2.99134

>  <SCORE.INTRA.DIHEDRAL>
1.28404

>  <SCORE.INTRA.DIHEDRAL.0>
18.4149

>  <SCORE.INTRA.POLAR>
-0.654568

>  <SCORE.INTRA.POLAR.0>
0

>  <SCORE.INTRA.REPUL>
-0.092687

>  <SCORE.INTRA.REPUL.0>
0.092687

>  <SCORE.INTRA.SOLV>
-1.75747

>  <SCORE.INTRA.SOLV.lig_0>
-120.37

>  <SCORE.INTRA.VDW>
-0.065667

>  <SCORE.INTRA.VDW.0>
-1.75542

>  <SCORE.INTRA.norm>
-0.096495

>  <SCORE.RESTR>
0

>  <SCORE.RESTR.CAVITY>
0

>  <SCORE.RESTR.norm>
0

>  <SCORE.SYSTEM>
0

>  <SCORE.SYSTEM.CONST>
0

>  <SCORE.SYSTEM.DIHEDRAL>
0

>  <SCORE.SYSTEM.SOLV>
0

>  <SCORE.SYSTEM.norm>
0

>  <SCORE.heavy>
31

>  <SCORE.norm>
-1.37402

>  <RMSD>
2.739

$$$$
1byj cryst
 OpenBabel11021811383D
libRbt.so/2013.1/901 2013/11/27
 31 33  0  0  0  0  0  0  0  0999 V2000
    9.7499    1.2907   -3.2192 C   0  0  1  0  0  0  0  0  0  0  0  0
    8.3068    1.0476   -3.1986 O   0  0  0  0  0  0  0  0  0  0  0  0
    7.5328    1.5259   -2.0581 C   0  0  2  0  0  0  0  0  0  0  0  0
    7.4781    2.9863   -2.0277 O   0  0  0  0  0  0  0  0  0  0  0  0
    8.1511    0.9617   -0.7429 C   0  0  2  0  0  0  0  0  0  0  0  0
    7.4313    1.3942    0.4712 N   0  3  0  0  0  0  0  0  0  0  0  0
    9.6493    1.3500   -0.6499 C   0  0  0  0  0  0  0  0  0  0  0  0
   10.4227    0.8647   -1.8852 C   0  0  0  0  0  0  0  0  0  0  0  0
   10.3839    0.5052   -4.3807 C   0  0  0  0  0  0  0  0  0  0  0  0
   10.2183    1.1467   -5.6916 N   0  3  0  0  0  0  0  0  0  0  0  0
    7.1752    4.9351   -3.5044 C   0  0  1  0  0  0  0  0  0  0  0  0
    6.1601    5.7726   -4.3198 C   0  0  0  0  0  0  0  0  0  0  0  0
    4.9976    6.2537   -3.4105 C   0  0  1  0  0  0  0  0  0  0  0  0
    4.0800    7.1143   -4.1814 N   0  3  0  0  0  0  0  0  0  0  0  0
    4.2618    5.0332   -2.7856 C   0  0  1  0  0  0  0  0  0  0  0  0
    5.2434    4.0953   -2.0393 C   0  0  1  0  0  0  0  0  0  0  0  0
    4.4996    2.9455   -1.6638 O   0  0  0  0  0  0  0  0  0  0  0  0
    6.5009    3.6748   -2.8696 C   0  0  2  0  0  0  0  0  0  0  0  0
    8.3252    4.5705   -4.3505 N   0  3  0  0  0  0  0  0  0  0  0  0
    1.1727    3.9823   -3.4583 C   0  0  0  0  0  0  0  0  0  0  0  0
   -0.0746    3.8889   -2.5456 C   0  0  2  0  0  0  0  0  0  0  0  0
   -1.1304    4.5811   -3.2105 O   0  0  0  0  0  0  0  0  0  0  0  0
    0.2436    4.5533   -1.1532 C   0  0  1  0  0  0  0  0  0  0  0  0
    0.9042    5.9671   -1.2893 C   0  0  2  0  0  0  0  0  0  0  0  0
    2.0341    6.0214   -2.3487 C   0  0  1  0  0  0  0  0  0  0  0  0
    3.2691    5.4748   -1.8160 O   0  0  0  0  0  0  0  0  0  0  0  0
    1.6303    5.3556   -3.5786 O   0  0  0  0  0  0  0  0  0  0  0  0
    1.4210    6.4234   -0.0419 O   0  0  0  0  0  0  0  0  0  0  0  0
   -1.0050    4.6308   -0.3326 N   0  3  0  0  0  0  0  0  0  0  0  0
   -1.3063    3.4783    0.5408 C   0  0  0  0  0  0  0  0  0  0  0  0
   -0.4966    2.4030   -2.4346 C   0  0  0  0  0  0  0  0  0  0  0  0
  1  8  1  0  0  0  0
  1  9  1  6  0  0  0
  1  2  1  0  0  0  0
  2  3  1  0  0  0  0
  3  5  1  0  0  0  0
  3  4  1  1  0  0  0
  5  7  1  0  0  0  0
  5  6  1  1  0  0  0
  7  8  1  0  0  0  0
  9 10  1  0  0  0  0
 11 12  1  0  0  0  0
 11 18  1  0  0  0  0
 11 19  1  6  0  0  0
 12 13  1  0  0  0  0
 13 15  1  0  0  0  0
 13 14  1  6  0  0  0
 15 16  1  0  0  0  0
 15 26  1  1  0  0  0
 16 18  1  0  0  0  0
 16 17  1  6  0  0  0
 18  4  1  1  0  0  0
 20 21  1  0  0  0  0
 20 27  1  0  0  0  0
 21 31  1  1  0  0  0
 21 23  1  0  0  0  0
 21 22  1  0  0  0  0
 23 24  1  0  0  0  0
 23 29  1  1  0  0  0
 24 25  1  0  0  0  0
 24 28  1  1  0  0  0
 25 27  1  0  0  0  0
 25 26  1  1  0  0  0
 29 30  1  0  0  0  0
M  CHG  5   6   1  10   1  14   1  19   1  29   1
M  END
>  <CHROM.1>
79.29395959,81.75204249,-138.84996407,-179.16927358,-44.59566414,179.95999139
105.52946362,76.25200946,61.77763338,61.31407942,-149.00870336,-176.78456560
159.42201555,4.72582063,3.69694214,-2.40257970,0.16084905,-0.32383393,2.40757378

>  <Name>
1byj cryst

>  <RI>
0

>  <Rbt.Current_Directory>
/home/itssahil/PROJECTS/Mol_Feturizer/New_Systems/rnas/1byj

>  <Rbt.Executable>
rbdock ($Id: //depot/dev/client3/rdock/2013.1/src/exe/rbdock.cxx#4 $)

>  <Rbt.Library>
libRbt.so (2013.1, Build901 2013/11/27)

>  <Rbt.Parameter_File>
/export/apps/rDock/src/rDock_2013.1_src/data/scripts/dock_solv.prm

>  <Rbt.Receptor>
prm/pocket_docking_5.prm

>  <SCORE>
-49.3081

>  <SCORE.INTER>
-44.507

>  <SCORE.INTER.CONST>
1

>  <SCORE.INTER.POLAR>
-5.4112

>  <SCORE.INTER.ROT>
6

>  <SCORE.INTER.SOLV>
30.9503

>  <SCORE.INTER.VDW>
-29.5508

>  <SCORE.INTER.norm>
-1.43571

>  <SCORE.INTRA>
-4.80112

>  <SCORE.INTRA.DIHEDRAL>
-0.538836

>  <SCORE.INTRA.DIHEDRAL.0>
18.4149

>  <SCORE.INTRA.POLAR>
-1.06084

>  <SCORE.INTRA.POLAR.0>
0

>  <SCORE.INTRA.REPUL>
-0.092687

>  <SCORE.INTRA.REPUL.0>
0.092687

>  <SCORE.INTRA.SOLV>
-0.540192

>  <SCORE.INTRA.SOLV.lig_0>
-120.37

>  <SCORE.INTRA.VDW>
-0.191312

>  <SCORE.INTRA.VDW.0>
-1.75542

>  <SCORE.INTRA.norm>
-0.154875

>  <SCORE.RESTR>
0

>  <SCORE.RESTR.CAVITY>
0

>  <SCORE.RESTR.norm>
0

>  <SCORE.SYSTEM>
0

>  <SCORE.SYSTEM.CONST>
0

>  <SCORE.SYSTEM.DIHEDRAL>
0

>  <SCORE.SYSTEM.SOLV>
0

>  <SCORE.SYSTEM.norm>
0

>  <SCORE.heavy>
31

>  <SCORE.norm>
-1.59059

>  <RMSD>
2.740

$$$$
1byj cryst
 OpenBabel11021811383D
libRbt.so/2013.1/901 2013/11/27
 31 33  0  0  0  0  0  0  0  0999 V2000
    7.3485    2.3324   -1.1203 C   0  0  1  0  0  0  0  0  0  0  0  0
    8.0882    3.4701   -1.6686 O   0  0  0  0  0  0  0  0  0  0  0  0
    8.4851    3.4358   -3.0722 C   0  0  2  0  0  0  0  0  0  0  0  0
    7.3236    3.5231   -3.9553 O   0  0  0  0  0  0  0  0  0  0  0  0
    9.2993    2.1347   -3.3457 C   0  0  2  0  0  0  0  0  0  0  0  0
    9.7462    2.0113   -4.7471 N   0  3  0  0  0  0  0  0  0  0  0  0
    8.4706    0.8915   -2.9313 C   0  0  0  0  0  0  0  0  0  0  0  0
    8.0378    0.9822   -1.4602 C   0  0  0  0  0  0  0  0  0  0  0  0
    7.2453    2.4789    0.4081 C   0  0  0  0  0  0  0  0  0  0  0  0
    8.5450    2.5923    1.0827 N   0  3  0  0  0  0  0  0  0  0  0  0
    7.5644    5.9594   -3.6778 C   0  0  1  0  0  0  0  0  0  0  0  0
    6.8246    7.3187   -3.6408 C   0  0  0  0  0  0  0  0  0  0  0  0
    5.6861    7.2893   -2.5859 C   0  0  1  0  0  0  0  0  0  0  0  0
    5.0409    8.6138   -2.5062 N   0  3  0  0  0  0  0  0  0  0  0  0
    4.6650    6.1654   -2.9263 C   0  0  1  0  0  0  0  0  0  0  0  0
    5.3603    4.7895   -3.0805 C   0  0  1  0  0  0  0  0  0  0  0  0
    4.3720    3.8863   -3.5532 O   0  0  0  0  0  0  0  0  0  0  0  0
    6.5946    4.7876   -4.0416 C   0  0  2  0  0  0  0  0  0  0  0  0
    8.7065    6.0304   -4.6063 N   0  3  0  0  0  0  0  0  0  0  0  0
    1.1732    6.2995   -0.1397 C   0  0  0  0  0  0  0  0  0  0  0  0
    0.3872    7.4915   -0.7390 C   0  0  2  0  0  0  0  0  0  0  0  0
   -0.8735    6.9833   -1.1733 O   0  0  0  0  0  0  0  0  0  0  0  0
    1.1953    8.0978   -1.9476 C   0  0  1  0  0  0  0  0  0  0  0  0
    1.6882    7.0078   -2.9591 C   0  0  2  0  0  0  0  0  0  0  0  0
    2.3106    5.7652   -2.2732 C   0  0  1  0  0  0  0  0  0  0  0  0
    3.6780    6.0310   -1.8641 O   0  0  0  0  0  0  0  0  0  0  0  0
    1.4874    5.3149   -1.1604 O   0  0  0  0  0  0  0  0  0  0  0  0
    2.6312    7.5433   -3.8840 O   0  0  0  0  0  0  0  0  0  0  0  0
    0.3648    9.1283   -2.6453 N   0  3  0  0  0  0  0  0  0  0  0  0
    0.5531   10.5337   -2.2317 C   0  0  0  0  0  0  0  0  0  0  0  0
    0.1069    8.5162    0.3877 C   0  0  0  0  0  0  0  0  0  0  0  0
  1  8  1  0  0  0  0
  1  9  1  1  0  0  0
  1  2  1  0  0  0  0
  2  3  1  0  0  0  0
  3  5  1  0  0  0  0
  3  4  1  6  0  0  0
  5  7  1  0  0  0  0
  5  6  1  6  0  0  0
  7  8  1  0  0  0  0
  9 10  1  0  0  0  0
 11 12  1  0  0  0  0
 11 18  1  0  0  0  0
 11 19  1  6  0  0  0
 12 13  1  0  0  0  0
 13 15  1  0  0  0  0
 13 14  1  6  0  0  0
 15 16  1  0  0  0  0
 15 26  1  1  0  0  0
 16 18  1  0  0  0  0
 16 17  1  6  0  0  0
 18  4  1  1  0  0  0
 20 21  1  0  0  0  0
 20 27  1  0  0  0  0
 21 31  1  1  0  0  0
 21 23  1  0  0  0  0
 21 22  1  0  0  0  0
 23 24  1  0  0  0  0
 23 29  1  6  0  0  0
 24 25  1  0  0  0  0
 24 28  1  6  0  0  0
 25 27  1  0  0  0  0
 25 26  1  1  0  0  0
 29 30  1  0  0  0  0
M  CHG  5   6   1  10   1  14   1  19   1  29   1
M  END
>  <CHROM.1>
-57.03758949,70.28691960,25.73914138,-60.73309250,179.72421538,-171.23234864
-139.19655973,141.42000370,178.77123927,63.17206923,-144.59620024,-83.33122940
-70.04349704,4.90296182,5.41374914,-2.33667562,0.36568891,-0.50404688,2.42109521

>  <Name>
1byj cryst

>  <RI>
0

>  <Rbt.Current_Directory>
/home/itssahil/PROJECTS/Mol_Feturizer/New_Systems/rnas/1byj

>  <Rbt.Executable>
rbdock ($Id: //depot/dev/client3/rdock/2013.1/src/exe/rbdock.cxx#4 $)

>  <Rbt.Library>
libRbt.so (2013.1, Build901 2013/11/27)

>  <Rbt.Parameter_File>
/export/apps/rDock/src/rDock_2013.1_src/data/scripts/dock_solv.prm

>  <Rbt.Receptor>
prm/pocket_docking_4.prm

>  <SCORE>
-52.6575

>  <SCORE.INTER>
-50.0328

>  <SCORE.INTER.CONST>
1

>  <SCORE.INTER.POLAR>
-7.44899

>  <SCORE.INTER.ROT>
6

>  <SCORE.INTER.SOLV>
24.9912

>  <SCORE.INTER.VDW>
-24.4556

>  <SCORE.INTER.norm>
-1.61396

>  <SCORE.INTRA>
-2.62467

>  <SCORE.INTRA.DIHEDRAL>
0.039497

>  <SCORE.INTRA.DIHEDRAL.0>
18.4149

>  <SCORE.INTRA.POLAR>
-1.27026

>  <SCORE.INTRA.POLAR.0>
0

>  <SCORE.INTRA.REPUL>
-0.092687

>  <SCORE.INTRA.REPUL.0>
0.092687

>  <SCORE.INTRA.SOLV>
2.07583

>  <SCORE.INTRA.SOLV.lig_0>
-120.37

>  <SCORE.INTRA.VDW>
1.09997

>  <SCORE.INTRA.VDW.0>
-1.75542

>  <SCORE.INTRA.norm>
-0.0846669

>  <SCORE.RESTR>
0

>  <SCORE.RESTR.CAVITY>
0

>  <SCORE.RESTR.norm>
0

>  <SCORE.SYSTEM>
0

>  <SCORE.SYSTEM.CONST>
0

>  <SCORE.SYSTEM.DIHEDRAL>
0

>  <SCORE.SYSTEM.SOLV>
0

>  <SCORE.SYSTEM.norm>
0

>  <SCORE.heavy>
31

>  <SCORE.norm>
-1.69863

>  <RMSD>
2.741

$$$$
1byj cryst
 OpenBabel11021811383D
libRbt.so/2013.1/901 2013/11/27
 31 33  0  0  0  0  0  0  0  0999 V2000
    9.4245    1.7483   -3.9994 C   0  0  1  0  0  0  0  0  0  0  0  0
    8.0199    2.1507   -3.9154 O   0  0  0  0  0  0  0  0  0  0  0  0
    7.5454    2.7839   -2.6896 C   0  0  2  0  0  0  0  0  0  0  0  0
    8.1323    4.1114   -2.5156 O   0  0  0  0  0  0  0  0  0  0  0  0
    7.8726    1.8639   -1.4744 C   0  0  2  0  0  0  0  0  0  0  0  0
    7.4280    2.4244   -0.1833 N   0  3  0  0  0  0  0  0  0  0  0  0
    9.3915    1.5547   -1.4349 C   0  0  0  0  0  0  0  0  0  0  0  0
    9.8612    0.9262   -2.7554 C   0  0  0  0  0  0  0  0  0  0  0  0
    9.6389    0.9027   -5.2671 C   0  0  0  0  0  0  0  0  0  0  0  0
   11.0510    0.7207   -5.6276 N   0  3  0  0  0  0  0  0  0  0  0  0
    8.5212    6.4038   -3.3303 C   0  0  1  0  0  0  0  0  0  0  0  0
    7.8605    7.6944   -3.8729 C   0  0  0  0  0  0  0  0  0  0  0  0
    6.7758    8.2056   -2.8870 C   0  0  1  0  0  0  0  0  0  0  0  0
    6.2097    9.4766   -3.3780 N   0  3  0  0  0  0  0  0  0  0  0  0
    5.6785    7.1212   -2.6836 C   0  0  1  0  0  0  0  0  0  0  0  0
    6.2880    5.7682   -2.2383 C   0  0  1  0  0  0  0  0  0  0  0  0
    5.2289    4.8225   -2.2507 O   0  0  0  0  0  0  0  0  0  0  0  0
    7.4711    5.2626   -3.1282 C   0  0  2  0  0  0  0  0  0  0  0  0
    9.6180    5.9845   -4.2205 N   0  3  0  0  0  0  0  0  0  0  0  0
    2.1063    8.0446   -3.1054 C   0  0  0  0  0  0  0  0  0  0  0  0
    1.1041    8.4717   -2.0050 C   0  0  2  0  0  0  0  0  0  0  0  0
    0.6753    9.7951   -2.3226 O   0  0  0  0  0  0  0  0  0  0  0  0
    1.8188    8.4341   -0.6017 C   0  0  1  0  0  0  0  0  0  0  0  0
    3.2051    9.1635   -0.6040 C   0  0  2  0  0  0  0  0  0  0  0  0
    4.0851    8.8134   -1.8308 C   0  0  1  0  0  0  0  0  0  0  0  0
    4.7394    7.5303   -1.6486 O   0  0  0  0  0  0  0  0  0  0  0  0
    3.3087    8.8585   -3.0613 O   0  0  0  0  0  0  0  0  0  0  0  0
    3.9417    8.8870    0.5843 O   0  0  0  0  0  0  0  0  0  0  0  0
    0.9175    9.0166    0.4408 N   0  3  0  0  0  0  0  0  0  0  0  0
    0.9406   10.4846    0.6029 C   0  0  0  0  0  0  0  0  0  0  0  0
   -0.1400    7.5531   -2.0850 C   0  0  0  0  0  0  0  0  0  0  0  0
  1  8  1  0  0  0  0
  1  9  1  6  0  0  0
  1  2  1  0  0  0  0
  2  3  1  0  0  0  0
  3  5  1  0  0  0  0
  3  4  1  1  0  0  0
  5  7  1  0  0  0  0
  5  6  1  1  0  0  0
  7  8  1  0  0  0  0
  9 10  1  0  0  0  0
 11 12  1  0  0  0  0
 11 18  1  0  0  0  0
 11 19  1  6  0  0  0
 12 13  1  0  0  0  0
 13 15  1  0  0  0  0
 13 14  1  6  0  0  0
 15 16  1  0  0  0  0
 15 26  1  1  0  0  0
 16 18  1  0  0  0  0
 16 17  1  6  0  0  0
 18  4  1  1  0  0  0
 20 21  1  0  0  0  0
 20 27  1  0  0  0  0
 21 31  1  1  0  0  0
 21 23  1  0  0  0  0
 21 22  1  0  0  0  0
 23 24  1  0  0  0  0
 23 29  1  1  0  0  0
 24 25  1  0  0  0  0
 24 28  1  1  0  0  0
 25 27  1  0  0  0  0
 25 26  1  1  0  0  0
 29 30  1  0  0  0  0
M  CHG  5   6   1  10   1  14   1  19   1  29   1
M  END
>  <CHROM.1>
165.87676510,87.25531033,-156.58944288,-58.42222047,61.36428093,-145.13660775
-13.76607307,55.56233383,-58.12197669,54.75643015,36.02556812,64.33774642
-175.53913841,5.75837212,5.97871310,-2.36653972,0.57290873,-0.56548549,2.76809884

>  <Name>
1byj cryst

>  <RI>
0

>  <Rbt.Current_Directory>
/home/itssahil/PROJECTS/Mol_Feturizer/New_Systems/rnas/1byj

>  <Rbt.Executable>
rbdock ($Id: //depot/dev/client3/rdock/2013.1/src/exe/rbdock.cxx#4 $)

>  <Rbt.Library>
libRbt.so (2013.1, Build901 2013/11/27)

>  <Rbt.Parameter_File>
/export/apps/rDock/src/rDock_2013.1_src/data/scripts/dock_solv.prm

>  <Rbt.Receptor>
prm/pocket_docking_7.prm

>  <SCORE>
-50.87

>  <SCORE.INTER>
-47.3756

>  <SCORE.INTER.CONST>
1

>  <SCORE.INTER.POLAR>
-6.43023

>  <SCORE.INTER.ROT>
6

>  <SCORE.INTER.SOLV>
26.024

>  <SCORE.INTER.VDW>
-26.4243

>  <SCORE.INTER.norm>
-1.52824

>  <SCORE.INTRA>
-3.49498

>  <SCORE.INTRA.DIHEDRAL>
-4.77792

>  <SCORE.INTRA.DIHEDRAL.0>
18.4149

>  <SCORE.INTRA.POLAR>
-0.976358

>  <SCORE.INTRA.POLAR.0>
0

>  <SCORE.INTRA.REPUL>
-0.092687

>  <SCORE.INTRA.REPUL.0>
0.092687

>  <SCORE.INTRA.SOLV>
-2.10836

>  <SCORE.INTRA.SOLV.lig_0>
-120.37

>  <SCORE.INTRA.VDW>
3.73121

>  <SCORE.INTRA.VDW.0>
-1.75542

>  <SCORE.INTRA.norm>
-0.112741

>  <SCORE.RESTR>
0.000566665

>  <SCORE.RESTR.CAVITY>
0.000566665

>  <SCORE.RESTR.norm>
1.82795e-05

>  <SCORE.SYSTEM>
0

>  <SCORE.SYSTEM.CONST>
0

>  <SCORE.SYSTEM.DIHEDRAL>
0

>  <SCORE.SYSTEM.SOLV>
0

>  <SCORE.SYSTEM.norm>
0

>  <SCORE.heavy>
31

>  <SCORE.norm>
-1.64097

>  <RMSD>
2.745

$$$$
1byj cryst
 OpenBabel11021811383D
libRbt.so/2013.1/901 2013/11/27
 31 33  0  0  0  0  0  0  0  0999 V2000
    9.4392    1.4740   -3.2237 C   0  0  1  0  0  0  0  0  0  0  0  0
    8.0473    1.6918   -3.6203 O   0  0  0  0  0  0  0  0  0  0  0  0
    7.1463    2.3493   -2.6798 C   0  0  2  0  0  0  0  0  0  0  0  0
    7.5093    3.7523   -2.4882 O   0  0  0  0  0  0  0  0  0  0  0  0
    7.1625    1.5773   -1.3255 C   0  0  2  0  0  0  0  0  0  0  0  0
    6.2763    2.1719   -0.3057 N   0  3  0  0  0  0  0  0  0  0  0  0
    8.6134    1.4764   -0.7879 C   0  0  0  0  0  0  0  0  0  0  0  0
    9.5395    0.8157   -1.8200 C   0  0  0  0  0  0  0  0  0  0  0  0
   10.1299    0.5691   -4.2591 C   0  0  0  0  0  0  0  0  0  0  0  0
   10.2031    1.1544   -5.6042 N   0  3  0  0  0  0  0  0  0  0  0  0
    8.1184    5.9303   -3.4657 C   0  0  1  0  0  0  0  0  0  0  0  0
    7.6941    7.0541   -4.4423 C   0  0  0  0  0  0  0  0  0  0  0  0
    6.2835    7.5886   -4.0760 C   0  0  1  0  0  0  0  0  0  0  0  0
    5.9249    8.7103   -4.9649 N   0  3  0  0  0  0  0  0  0  0  0  0
    5.2376    6.4382   -4.1417 C   0  0  1  0  0  0  0  0  0  0  0  0
    5.6573    5.2337   -3.2623 C   0  0  1  0  0  0  0  0  0  0  0  0
    4.7301    4.1926   -3.5312 O   0  0  0  0  0  0  0  0  0  0  0  0
    7.1181    4.7287   -3.5038 C   0  0  2  0  0  0  0  0  0  0  0  0
    9.4977    5.5013   -3.7570 N   0  3  0  0  0  0  0  0  0  0  0  0
    3.0155    9.5401   -2.4474 C   0  0  0  0  0  0  0  0  0  0  0  0
    1.6697    9.2243   -1.7498 C   0  0  2  0  0  0  0  0  0  0  0  0
    1.8421    9.5103   -0.3625 O   0  0  0  0  0  0  0  0  0  0  0  0
    1.3082    7.7070   -1.9702 C   0  0  1  0  0  0  0  0  0  0  0  0
    2.5019    6.7437   -1.6521 C   0  0  2  0  0  0  0  0  0  0  0  0
    3.8534    7.2191   -2.2432 C   0  0  1  0  0  0  0  0  0  0  0  0
    3.9430    6.8943   -3.6554 O   0  0  0  0  0  0  0  0  0  0  0  0
    4.0616    8.6385   -1.9970 O   0  0  0  0  0  0  0  0  0  0  0  0
    2.2397    5.4199   -2.1102 O   0  0  0  0  0  0  0  0  0  0  0  0
    0.1082    7.3489   -1.1515 N   0  3  0  0  0  0  0  0  0  0  0  0
   -0.8571    6.4065   -1.7532 C   0  0  0  0  0  0  0  0  0  0  0  0
    0.5922   10.1968   -2.2896 C   0  0  0  0  0  0  0  0  0  0  0  0
  1  8  1  0  0  0  0
  1  9  1  6  0  0  0
  1  2  1  0  0  0  0
  2  3  1  0  0  0  0
  3  5  1  0  0  0  0
  3  4  1  1  0  0  0
  5  7  1  0  0  0  0
  5  6  1  1  0  0  0
  7  8  1  0  0  0  0
  9 10  1  0  0  0  0
 11 12  1  0  0  0  0
 11 18  1  0  0  0  0
 11 19  1  6  0  0  0
 12 13  1  0  0  0  0
 13 15  1  0  0  0  0
 13 14  1  6  0  0  0
 15 16  1  0  0  0  0
 15 26  1  1  0  0  0
 16 18  1  0  0  0  0
 16 17  1  6  0  0  0
 18  4  1  1  0  0  0
 20 21  1  0  0  0  0
 20 27  1  0  0  0  0
 21 31  1  6  0  0  0
 21 23  1  0  0  0  0
 21 22  1  0  0  0  0
 23 24  1  0  0  0  0
 23 29  1  1  0  0  0
 24 25  1  0  0  0  0
 24 28  1  6  0  0  0
 25 27  1  0  0  0  0
 25 26  1  6  0  0  0
 29 30  1  0  0  0  0
M  CHG  5   6   1  10   1  14   1  19   1  29   1
M  END
>  <CHROM.1>
62.80001987,78.86757668,-153.72209279,66.50974407,-47.99449376,-165.81545893
17.33321532,-67.25819872,-172.64945611,-176.96245548,-96.12394474,-57.76643706
-140.76030256,5.42103907,5.39605244,-2.73172395,0.58541246,-0.46738110,2.73908016

>  <Name>
1byj cryst

>  <RI>
0

>  <Rbt.Current_Directory>
/home/itssahil/PROJECTS/Mol_Feturizer/New_Systems/rnas/1byj

>  <Rbt.Executable>
rbdock ($Id: //depot/dev/client3/rdock/2013.1/src/exe/rbdock.cxx#4 $)

>  <Rbt.Library>
libRbt.so (2013.1, Build901 2013/11/27)

>  <Rbt.Parameter_File>
/export/apps/rDock/src/rDock_2013.1_src/data/scripts/dock_solv.prm

>  <Rbt.Receptor>
prm/pocket_docking_5.prm

>  <SCORE>
-49.1373

>  <SCORE.INTER>
-46.9384

>  <SCORE.INTER.CONST>
1

>  <SCORE.INTER.POLAR>
-6.15964

>  <SCORE.INTER.ROT>
6

>  <SCORE.INTER.SOLV>
28.8365

>  <SCORE.INTER.VDW>
-27.9723

>  <SCORE.INTER.norm>
-1.51414

>  <SCORE.INTRA>
-2.19888

>  <SCORE.INTRA.DIHEDRAL>
-1.45305

>  <SCORE.INTRA.DIHEDRAL.0>
18.4149

>  <SCORE.INTRA.POLAR>
-0.00714582

>  <SCORE.INTRA.POLAR.0>
0

>  <SCORE.INTRA.REPUL>
-0.092687

>  <SCORE.INTRA.REPUL.0>
0.092687

>  <SCORE.INTRA.SOLV>
-1.39753

>  <SCORE.INTRA.SOLV.lig_0>
-120.37

>  <SCORE.INTRA.VDW>
-0.28586

>  <SCORE.INTRA.VDW.0>
-1.75542

>  <SCORE.INTRA.norm>
-0.0709317

>  <SCORE.RESTR>
0

>  <SCORE.RESTR.CAVITY>
0

>  <SCORE.RESTR.norm>
0

>  <SCORE.SYSTEM>
0

>  <SCORE.SYSTEM.CONST>
0

>  <SCORE.SYSTEM.DIHEDRAL>
0

>  <SCORE.SYSTEM.SOLV>
0

>  <SCORE.SYSTEM.norm>
0

>  <SCORE.heavy>
31

>  <SCORE.norm>
-1.58507

>  <RMSD>
2.753

$$$$
1byj cryst
 OpenBabel11021811383D
libRbt.so/2013.1/901 2013/11/27
 31 33  0  0  0  0  0  0  0  0999 V2000
    9.1113    1.5846   -3.7371 C   0  0  1  0  0  0  0  0  0  0  0  0
    7.6731    1.5446   -3.4687 O   0  0  0  0  0  0  0  0  0  0  0  0
    7.1910    1.9985   -2.1687 C   0  0  2  0  0  0  0  0  0  0  0  0
    7.3724    3.4401   -2.0082 O   0  0  0  0  0  0  0  0  0  0  0  0
    7.9292    1.2129   -1.0424 C   0  0  2  0  0  0  0  0  0  0  0  0
    7.5053    1.6061    0.3158 N   0  3  0  0  0  0  0  0  0  0  0  0
    9.4633    1.3757   -1.1979 C   0  0  0  0  0  0  0  0  0  0  0  0
    9.9275    0.9254   -2.5912 C   0  0  0  0  0  0  0  0  0  0  0  0
    9.4054    0.8502   -5.0571 C   0  0  0  0  0  0  0  0  0  0  0  0
   10.8227    0.8658   -5.4422 N   0  3  0  0  0  0  0  0  0  0  0  0
    7.0588    5.7959   -2.6580 C   0  0  1  0  0  0  0  0  0  0  0  0
    6.0917    6.8280   -3.2871 C   0  0  0  0  0  0  0  0  0  0  0  0
    4.7357    6.8335   -2.5314 C   0  0  1  0  0  0  0  0  0  0  0  0
    3.8529    7.8747   -3.0911 N   0  3  0  0  0  0  0  0  0  0  0  0
    4.0805    5.4232   -2.5902 C   0  0  1  0  0  0  0  0  0  0  0  0
    5.0407    4.3250   -2.0686 C   0  0  1  0  0  0  0  0  0  0  0  0
    4.4104    3.0791   -2.3266 O   0  0  0  0  0  0  0  0  0  0  0  0
    6.4674    4.3490   -2.7100 C   0  0  2  0  0  0  0  0  0  0  0  0
    8.3757    5.8708   -3.3149 N   0  3  0  0  0  0  0  0  0  0  0  0
    1.0066    3.5747   -3.3521 C   0  0  0  0  0  0  0  0  0  0  0  0
   -0.2724    3.4484   -2.4884 C   0  0  2  0  0  0  0  0  0  0  0  0
   -1.3483    3.9867   -3.2557 O   0  0  0  0  0  0  0  0  0  0  0  0
   -0.0811    4.2524   -1.1474 C   0  0  1  0  0  0  0  0  0  0  0  0
    0.4641    5.7027   -1.3788 C   0  0  2  0  0  0  0  0  0  0  0  0
    1.6369    5.7675   -2.3899 C   0  0  1  0  0  0  0  0  0  0  0  0
    2.8854    5.3784   -1.7594 O   0  0  0  0  0  0  0  0  0  0  0  0
    1.3524    4.9682   -3.5727 O   0  0  0  0  0  0  0  0  0  0  0  0
    0.8777    6.3055   -0.1554 O   0  0  0  0  0  0  0  0  0  0  0  0
   -1.3711    4.2880   -0.3905 N   0  3  0  0  0  0  0  0  0  0  0  0
   -1.5245    3.3251    0.7191 C   0  0  0  0  0  0  0  0  0  0  0  0
   -0.5728    1.9457   -2.2657 C   0  0  0  0  0  0  0  0  0  0  0  0
  1  8  1  0  0  0  0
  1  9  1  6  0  0  0
  1  2  1  0  0  0  0
  2  3  1  0  0  0  0
  3  5  1  0  0  0  0
  3  4  1  1  0  0  0
  5  7  1  0  0  0  0
  5  6  1  1  0  0  0
  7  8  1  0  0  0  0
  9 10  1  0  0  0  0
 11 12  1  0  0  0  0
 11 18  1  0  0  0  0
 11 19  1  6  0  0  0
 12 13  1  0  0  0  0
 13 15  1  0  0  0  0
 13 14  1  6  0  0  0
 15 16  1  0  0  0  0
 15 26  1  1  0  0  0
 16 18  1  0  0  0  0
 16 17  1  6  0  0  0
 18  4  1  1  0  0  0
 20 21  1  0  0  0  0
 20 27  1  0  0  0  0
 21 31  1  1  0  0  0
 21 23  1  0  0  0  0
 21 22  1  0  0  0  0
 23 24  1  0  0  0  0
 23 29  1  6  0  0  0
 24 25  1  0  0  0  0
 24 28  1  1  0  0  0
 25 27  1  0  0  0  0
 25 26  1  1  0  0  0
 29 30  1  0  0  0  0
M  CHG  5   6   1  10   1  14   1  19   1  29   1
M  END
>  <CHROM.1>
178.28499783,75.39707643,-166.75110457,-179.95540897,-64.60153812,52.19030163
-46.98077434,88.45248047,61.22202455,-73.37009686,-139.27216702,-56.37585013
-178.64611191,4.48811842,3.84112558,-2.33681889,0.24262664,-0.20465358,2.97524405

>  <Name>
1byj cryst

>  <RI>
0

>  <Rbt.Current_Directory>
/home/itssahil/PROJECTS/Mol_Feturizer/New_Systems/rnas/1byj

>  <Rbt.Executable>
rbdock ($Id: //depot/dev/client3/rdock/2013.1/src/exe/rbdock.cxx#4 $)

>  <Rbt.Library>
libRbt.so (2013.1, Build901 2013/11/27)

>  <Rbt.Parameter_File>
/export/apps/rDock/src/rDock_2013.1_src/data/scripts/dock_solv.prm

>  <Rbt.Receptor>
prm/pocket_docking_5.prm

>  <SCORE>
-52.068

>  <SCORE.INTER>
-44.2071

>  <SCORE.INTER.CONST>
1

>  <SCORE.INTER.POLAR>
-5.5775

>  <SCORE.INTER.ROT>
6

>  <SCORE.INTER.SOLV>
26.4713

>  <SCORE.INTER.VDW>
-27.3035

>  <SCORE.INTER.norm>
-1.42604

>  <SCORE.INTRA>
-7.86091

>  <SCORE.INTRA.DIHEDRAL>
-8.71547

>  <SCORE.INTRA.DIHEDRAL.0>
18.4149

>  <SCORE.INTRA.POLAR>
0

>  <SCORE.INTRA.POLAR.0>
0

>  <SCORE.INTRA.REPUL>
-0.092687

>  <SCORE.INTRA.REPUL.0>
0.092687

>  <SCORE.INTRA.SOLV>
-3.08477

>  <SCORE.INTRA.SOLV.lig_0>
-120.37

>  <SCORE.INTRA.VDW>
-1.49735

>  <SCORE.INTRA.VDW.0>
-1.75542

>  <SCORE.INTRA.norm>
-0.253578

>  <SCORE.RESTR>
0

>  <SCORE.RESTR.CAVITY>
0

>  <SCORE.RESTR.norm>
0

>  <SCORE.SYSTEM>
0

>  <SCORE.SYSTEM.CONST>
0

>  <SCORE.SYSTEM.DIHEDRAL>
0

>  <SCORE.SYSTEM.SOLV>
0

>  <SCORE.SYSTEM.norm>
0

>  <SCORE.heavy>
31

>  <SCORE.norm>
-1.67961

>  <RMSD>
2.759

$$$$
1byj cryst
 OpenBabel11021811383D
libRbt.so/2013.1/901 2013/11/27
 31 33  0  0  0  0  0  0  0  0999 V2000
    5.3899    2.3614   -0.9733 C   0  0  1  0  0  0  0  0  0  0  0  0
    6.1607    3.5958   -1.1287 O   0  0  0  0  0  0  0  0  0  0  0  0
    7.2647    3.6161   -2.0823 C   0  0  2  0  0  0  0  0  0  0  0  0
    6.7804    3.5222   -3.4583 O   0  0  0  0  0  0  0  0  0  0  0  0
    8.2495    2.4527   -1.7553 C   0  0  2  0  0  0  0  0  0  0  0  0
    9.4047    2.3924   -2.6723 N   0  3  0  0  0  0  0  0  0  0  0  0
    7.4921    1.0998   -1.7509 C   0  0  0  0  0  0  0  0  0  0  0  0
    6.3143    1.1301   -0.7653 C   0  0  0  0  0  0  0  0  0  0  0  0
    4.4459    2.4971    0.2343 C   0  0  0  0  0  0  0  0  0  0  0  0
    5.1236    2.8913    1.4764 N   0  3  0  0  0  0  0  0  0  0  0  0
    7.3189    5.7641   -4.3267 C   0  0  1  0  0  0  0  0  0  0  0  0
    6.7433    7.0885   -4.8847 C   0  0  0  0  0  0  0  0  0  0  0  0
    5.7166    7.6961   -3.8915 C   0  0  1  0  0  0  0  0  0  0  0  0
    5.2349    8.9950   -4.3991 N   0  3  0  0  0  0  0  0  0  0  0  0
    4.5476    6.6983   -3.6474 C   0  0  1  0  0  0  0  0  0  0  0  0
    5.0658    5.3136   -3.1845 C   0  0  1  0  0  0  0  0  0  0  0  0
    3.9412    4.4472   -3.1596 O   0  0  0  0  0  0  0  0  0  0  0  0
    6.1929    4.7062   -4.0834 C   0  0  2  0  0  0  0  0  0  0  0  0
    8.3661    5.2491   -5.2263 N   0  3  0  0  0  0  0  0  0  0  0  0
    0.9511    6.5604   -1.3476 C   0  0  0  0  0  0  0  0  0  0  0  0
    0.4756    7.8865   -0.7049 C   0  0  2  0  0  0  0  0  0  0  0  0
   -0.7463    8.2467   -1.3479 O   0  0  0  0  0  0  0  0  0  0  0  0
    1.5725    8.9965   -0.9204 C   0  0  1  0  0  0  0  0  0  0  0  0
    2.0726    9.0795   -2.4026 C   0  0  2  0  0  0  0  0  0  0  0  0
    2.3657    7.6947   -3.0338 C   0  0  1  0  0  0  0  0  0  0  0  0
    3.6595    7.1945   -2.6054 O   0  0  0  0  0  0  0  0  0  0  0  0
    1.2951    6.7515   -2.7459 O   0  0  0  0  0  0  0  0  0  0  0  0
    3.2381    9.8921   -2.5148 O   0  0  0  0  0  0  0  0  0  0  0  0
    1.0474   10.3215   -0.4655 N   0  3  0  0  0  0  0  0  0  0  0  0
    1.1740   10.6353    0.9724 C   0  0  0  0  0  0  0  0  0  0  0  0
    0.1513    7.6253    0.7866 C   0  0  0  0  0  0  0  0  0  0  0  0
  1  8  1  0  0  0  0
  1  9  1  1  0  0  0
  1  2  1  0  0  0  0
  2  3  1  0  0  0  0
  3  5  1  0  0  0  0
  3  4  1  6  0  0  0
  5  7  1  0  0  0  0
  5  6  1  6  0  0  0
  7  8  1  0  0  0  0
  9 10  1  0  0  0  0
 11 12  1  0  0  0  0
 11 18  1  0  0  0  0
 11 19  1  6  0  0  0
 12 13  1  0  0  0  0
 13 15  1  0  0  0  0
 13 14  1  6  0  0  0
 15 16  1  0  0  0  0
 15 26  1  1  0  0  0
 16 18  1  0  0  0  0
 16 17  1  6  0  0  0
 18  4  1  1  0  0  0
 20 21  1  0  0  0  0
 20 27  1  0  0  0  0
 21 31  1  1  0  0  0
 21 23  1  0  0  0  0
 21 22  1  0  0  0  0
 23 24  1  0  0  0  0
 23 29  1  6  0  0  0
 24 25  1  0  0  0  0
 24 28  1  1  0  0  0
 25 27  1  0  0  0  0
 25 26  1  1  0  0  0
 29 30  1  0  0  0  0
M  CHG  5   6   1  10   1  14   1  19   1  29   1
M  END
>  <CHROM.1>
-53.44918064,76.58858308,69.28739788,-173.83751597,-69.80721697,29.50150212
67.04077072,106.96458145,179.69937209,167.34431193,-154.21658964,-63.96944964
-131.32092264,4.41685963,5.90980973,-2.12627364,0.49019319,-0.63031043,2.50809696

>  <Name>
1byj cryst

>  <RI>
0

>  <Rbt.Current_Directory>
/home/itssahil/PROJECTS/Mol_Feturizer/New_Systems/rnas/1byj

>  <Rbt.Executable>
rbdock ($Id: //depot/dev/client3/rdock/2013.1/src/exe/rbdock.cxx#4 $)

>  <Rbt.Library>
libRbt.so (2013.1, Build901 2013/11/27)

>  <Rbt.Parameter_File>
/export/apps/rDock/src/rDock_2013.1_src/data/scripts/dock_solv.prm

>  <Rbt.Receptor>
prm/pocket_docking_4.prm

>  <SCORE>
-37.1431

>  <SCORE.INTER>
-33.594

>  <SCORE.INTER.CONST>
1

>  <SCORE.INTER.POLAR>
-5.50528

>  <SCORE.INTER.ROT>
6

>  <SCORE.INTER.SOLV>
19.4244

>  <SCORE.INTER.VDW>
-18.1199

>  <SCORE.INTER.norm>
-1.08368

>  <SCORE.INTRA>
-3.54903

>  <SCORE.INTRA.DIHEDRAL>
0.954161

>  <SCORE.INTRA.DIHEDRAL.0>
18.4149

>  <SCORE.INTRA.POLAR>
-1.17341

>  <SCORE.INTRA.POLAR.0>
0

>  <SCORE.INTRA.REPUL>
-0.092687

>  <SCORE.INTRA.REPUL.0>
0.092687

>  <SCORE.INTRA.SOLV>
2.48594

>  <SCORE.INTRA.SOLV.lig_0>
-120.37

>  <SCORE.INTRA.VDW>
-0.816053

>  <SCORE.INTRA.VDW.0>
-1.75542

>  <SCORE.INTRA.norm>
-0.114485

>  <SCORE.RESTR>
0

>  <SCORE.RESTR.CAVITY>
0

>  <SCORE.RESTR.norm>
0

>  <SCORE.SYSTEM>
0

>  <SCORE.SYSTEM.CONST>
0

>  <SCORE.SYSTEM.DIHEDRAL>
0

>  <SCORE.SYSTEM.SOLV>
0

>  <SCORE.SYSTEM.norm>
0

>  <SCORE.heavy>
31

>  <SCORE.norm>
-1.19816

>  <RMSD>
2.769

$$$$
1byj cryst
 OpenBabel11021811383D
libRbt.so/2013.1/901 2013/11/27
 31 33  0  0  0  0  0  0  0  0999 V2000
    7.2578    2.4530   -1.0730 C   0  0  1  0  0  0  0  0  0  0  0  0
    8.0069    3.5840   -1.6223 O   0  0  0  0  0  0  0  0  0  0  0  0
    8.4316    3.5308   -3.0171 C   0  0  2  0  0  0  0  0  0  0  0  0
    7.2877    3.6041   -3.9243 O   0  0  0  0  0  0  0  0  0  0  0  0
    9.2526    2.2273   -3.2563 C   0  0  2  0  0  0  0  0  0  0  0  0
    9.7274    2.0850   -4.6467 N   0  3  0  0  0  0  0  0  0  0  0  0
    8.4174    0.9887   -2.8411 C   0  0  0  0  0  0  0  0  0  0  0  0
    7.9554    1.0992   -1.3804 C   0  0  0  0  0  0  0  0  0  0  0  0
    7.1241    2.6205    0.4509 C   0  0  0  0  0  0  0  0  0  0  0  0
    6.1735    3.6657    0.8522 N   0  3  0  0  0  0  0  0  0  0  0  0
    7.5997    6.0435   -3.7739 C   0  0  1  0  0  0  0  0  0  0  0  0
    6.9022    7.4246   -3.8253 C   0  0  0  0  0  0  0  0  0  0  0  0
    5.7441    7.4874   -2.7935 C   0  0  1  0  0  0  0  0  0  0  0  0
    5.1394    8.8332   -2.7984 N   0  3  0  0  0  0  0  0  0  0  0  0
    4.6948    6.3780   -3.0931 C   0  0  1  0  0  0  0  0  0  0  0  0
    5.3493    4.9753   -3.1587 C   0  0  1  0  0  0  0  0  0  0  0  0
    4.3420    4.0780   -3.6018 O   0  0  0  0  0  0  0  0  0  0  0  0
    6.6004    4.8835   -4.0934 C   0  0  2  0  0  0  0  0  0  0  0  0
    8.7604    6.0291   -4.6817 N   0  3  0  0  0  0  0  0  0  0  0  0
    1.2258    6.1406   -0.2460 C   0  0  0  0  0  0  0  0  0  0  0  0
    0.4289    7.4440   -0.4988 C   0  0  2  0  0  0  0  0  0  0  0  0
   -0.8443    7.0603   -1.0164 O   0  0  0  0  0  0  0  0  0  0  0  0
    1.2078    8.3428   -1.5316 C   0  0  1  0  0  0  0  0  0  0  0  0
    1.6708    7.5507   -2.8014 C   0  0  2  0  0  0  0  0  0  0  0  0
    2.3062    6.1756   -2.4737 C   0  0  1  0  0  0  0  0  0  0  0  0
    3.6846    6.3317   -2.0453 O   0  0  0  0  0  0  0  0  0  0  0  0
    1.5103    5.4521   -1.4929 O   0  0  0  0  0  0  0  0  0  0  0  0
    2.5916    8.3086   -3.5816 O   0  0  0  0  0  0  0  0  0  0  0  0
    0.3633    9.5152   -1.9198 N   0  3  0  0  0  0  0  0  0  0  0  0
    1.0003   10.5532   -2.7557 C   0  0  0  0  0  0  0  0  0  0  0  0
    0.1813    8.1442    0.8600 C   0  0  0  0  0  0  0  0  0  0  0  0
  1  8  1  0  0  0  0
  1  9  1  1  0  0  0
  1  2  1  0  0  0  0
  2  3  1  0  0  0  0
  3  5  1  0  0  0  0
  3  4  1  6  0  0  0
  5  7  1  0  0  0  0
  5  6  1  6  0  0  0
  7  8  1  0  0  0  0
  9 10  1  0  0  0  0
 11 12  1  0  0  0  0
 11 18  1  0  0  0  0
 11 19  1  6  0  0  0
 12 13  1  0  0  0  0
 13 15  1  0  0  0  0
 13 14  1  6  0  0  0
 15 16  1  0  0  0  0
 15 26  1  1  0  0  0
 16 18  1  0  0  0  0
 16 17  1  6  0  0  0
 18  4  1  1  0  0  0
 20 21  1  0  0  0  0
 20 27  1  0  0  0  0
 21 31  1  1  0  0  0
 21 23  1  0  0  0  0
 21 22  1  0  0  0  0
 23 24  1  0  0  0  0
 23 29  1  6  0  0  0
 24 25  1  0  0  0  0
 24 28  1  1  0  0  0
 25 27  1  0  0  0  0
 25 26  1  1  0  0  0
 29 30  1  0  0  0  0
M  CHG  5   6   1  10   1  14   1  19   1  29   1
M  END
>  <CHROM.1>
73.13486802,73.32126457,25.58247385,-178.69396300,-172.17386710,-166.73891704
-104.79271257,137.40278642,177.43085354,65.36003398,-66.21429869,-119.23519747
-86.14366966,4.82267561,5.60241373,-2.32691184,0.37646699,-0.51696549,2.49485101

>  <Name>
1byj cryst

>  <RI>
0

>  <Rbt.Current_Directory>
/home/itssahil/PROJECTS/Mol_Feturizer/New_Systems/rnas/1byj

>  <Rbt.Executable>
rbdock ($Id: //depot/dev/client3/rdock/2013.1/src/exe/rbdock.cxx#4 $)

>  <Rbt.Library>
libRbt.so (2013.1, Build901 2013/11/27)

>  <Rbt.Parameter_File>
/export/apps/rDock/src/rDock_2013.1_src/data/scripts/dock_solv.prm

>  <Rbt.Receptor>
prm/pocket_docking_5.prm

>  <SCORE>
-48.338

>  <SCORE.INTER>
-49.0172

>  <SCORE.INTER.CONST>
1

>  <SCORE.INTER.POLAR>
-7.49493

>  <SCORE.INTER.ROT>
6

>  <SCORE.INTER.SOLV>
21.104

>  <SCORE.INTER.VDW>
-22.3297

>  <SCORE.INTER.norm>
-1.5812

>  <SCORE.INTRA>
0.679219

>  <SCORE.INTRA.DIHEDRAL>
7.39879

>  <SCORE.INTRA.DIHEDRAL.0>
18.4149

>  <SCORE.INTRA.POLAR>
-1.16667

>  <SCORE.INTRA.POLAR.0>
0

>  <SCORE.INTRA.REPUL>
-0.092687

>  <SCORE.INTRA.REPUL.0>
0.092687

>  <SCORE.INTRA.SOLV>
0.769102

>  <SCORE.INTRA.SOLV.lig_0>
-120.37

>  <SCORE.INTRA.VDW>
1.02538

>  <SCORE.INTRA.VDW.0>
-1.75542

>  <SCORE.INTRA.norm>
0.0219103

>  <SCORE.RESTR>
0

>  <SCORE.RESTR.CAVITY>
0

>  <SCORE.RESTR.norm>
0

>  <SCORE.SYSTEM>
0

>  <SCORE.SYSTEM.CONST>
0

>  <SCORE.SYSTEM.DIHEDRAL>
0

>  <SCORE.SYSTEM.SOLV>
0

>  <SCORE.SYSTEM.norm>
0

>  <SCORE.heavy>
31

>  <SCORE.norm>
-1.55929

>  <RMSD>
2.772

$$$$
1byj cryst
 OpenBabel11021811383D
libRbt.so/2013.1/901 2013/11/27
 31 33  0  0  0  0  0  0  0  0999 V2000
    7.2534    2.3673   -1.1385 C   0  0  1  0  0  0  0  0  0  0  0  0
    8.0260    3.5011   -1.6480 O   0  0  0  0  0  0  0  0  0  0  0  0
    8.4643    3.4804   -3.0394 C   0  0  2  0  0  0  0  0  0  0  0  0
    7.3312    3.5979   -3.9554 O   0  0  0  0  0  0  0  0  0  0  0  0
    9.2669    2.1711   -3.3074 C   0  0  2  0  0  0  0  0  0  0  0  0
    9.7537    2.0605   -4.6966 N   0  3  0  0  0  0  0  0  0  0  0  0
    8.4078    0.9349   -2.9359 C   0  0  0  0  0  0  0  0  0  0  0  0
    7.9325    1.0116   -1.4772 C   0  0  0  0  0  0  0  0  0  0  0  0
    7.1066    2.4938    0.3882 C   0  0  0  0  0  0  0  0  0  0  0  0
    6.2369    1.4732    0.9876 N   0  3  0  0  0  0  0  0  0  0  0  0
    7.5728    6.0288   -3.6355 C   0  0  1  0  0  0  0  0  0  0  0  0
    6.8335    7.3876   -3.5753 C   0  0  0  0  0  0  0  0  0  0  0  0
    5.6942    7.3404   -2.5219 C   0  0  1  0  0  0  0  0  0  0  0  0
    5.0495    8.6636   -2.4197 N   0  3  0  0  0  0  0  0  0  0  0  0
    4.6729    6.2230   -2.8826 C   0  0  1  0  0  0  0  0  0  0  0  0
    5.3677    4.8497   -3.0601 C   0  0  1  0  0  0  0  0  0  0  0  0
    4.3794    3.9553   -3.5493 O   0  0  0  0  0  0  0  0  0  0  0  0
    6.6027    4.8640   -4.0203 C   0  0  2  0  0  0  0  0  0  0  0  0
    8.7156    6.1155   -4.5617 N   0  3  0  0  0  0  0  0  0  0  0  0
    1.1666    6.3397   -0.1192 C   0  0  0  0  0  0  0  0  0  0  0  0
    0.3730    7.5149   -0.7410 C   0  0  2  0  0  0  0  0  0  0  0  0
   -0.8798    6.9881   -1.1757 O   0  0  0  0  0  0  0  0  0  0  0  0
    1.1829    8.1113   -1.9533 C   0  0  1  0  0  0  0  0  0  0  0  0
    1.6930    7.0116   -2.9455 C   0  0  2  0  0  0  0  0  0  0  0  0
    2.3230    5.7854   -2.2374 C   0  0  1  0  0  0  0  0  0  0  0  0
    3.6850    6.0705   -1.8236 O   0  0  0  0  0  0  0  0  0  0  0  0
    1.4970    5.3434   -1.1233 O   0  0  0  0  0  0  0  0  0  0  0  0
    2.6366    7.5427   -3.8721 O   0  0  0  0  0  0  0  0  0  0  0  0
    0.3469    9.1233   -2.6713 N   0  3  0  0  0  0  0  0  0  0  0  0
    0.5361   10.5388   -2.2941 C   0  0  0  0  0  0  0  0  0  0  0  0
    0.0754    8.5533    0.3687 C   0  0  0  0  0  0  0  0  0  0  0  0
  1  8  1  0  0  0  0
  1  9  1  1  0  0  0
  1  2  1  0  0  0  0
  2  3  1  0  0  0  0
  3  5  1  0  0  0  0
  3  4  1  6  0  0  0
  5  7  1  0  0  0  0
  5  6  1  6  0  0  0
  7  8  1  0  0  0  0
  9 10  1  0  0  0  0
 11 12  1  0  0  0  0
 11 18  1  0  0  0  0
 11 19  1  6  0  0  0
 12 13  1  0  0  0  0
 13 15  1  0  0  0  0
 13 14  1  6  0  0  0
 15 16  1  0  0  0  0
 15 26  1  1  0  0  0
 16 18  1  0  0  0  0
 16 17  1  6  0  0  0
 18  4  1  1  0  0  0
 20 21  1  0  0  0  0
 20 27  1  0  0  0  0
 21 31  1  1  0  0  0
 21 23  1  0  0  0  0
 21 22  1  0  0  0  0
 23 24  1  0  0  0  0
 23 29  1  6  0  0  0
 24 25  1  0  0  0  0
 24 28  1  6  0  0  0
 25 27  1  0  0  0  0
 25 26  1  1  0  0  0
 29 30  1  0  0  0  0
M  CHG  5   6   1  10   1  14   1  19   1  29   1
M  END
>  <CHROM.1>
174.45735129,68.75469590,27.79232527,-57.37951234,-174.60949871,-56.11382039
-142.12409389,142.64273809,-66.26653934,63.49889793,-143.54356034,-82.68826203
-68.96933412,4.79572984,5.40878239,-2.32175566,0.41816795,-0.48891547,2.52753164

>  <Name>
1byj cryst

>  <RI>
0

>  <Rbt.Current_Directory>
/home/itssahil/PROJECTS/Mol_Feturizer/New_Systems/rnas/1byj

>  <Rbt.Executable>
rbdock ($Id: //depot/dev/client3/rdock/2013.1/src/exe/rbdock.cxx#4 $)

>  <Rbt.Library>
libRbt.so (2013.1, Build901 2013/11/27)

>  <Rbt.Parameter_File>
/export/apps/rDock/src/rDock_2013.1_src/data/scripts/dock_solv.prm

>  <Rbt.Receptor>
prm/pocket_docking_7.prm

>  <SCORE>
-51.8538

>  <SCORE.INTER>
-48.6166

>  <SCORE.INTER.CONST>
1

>  <SCORE.INTER.POLAR>
-7.42344

>  <SCORE.INTER.ROT>
6

>  <SCORE.INTER.SOLV>
25.4092

>  <SCORE.INTER.VDW>
-23.736

>  <SCORE.INTER.norm>
-1.56828

>  <SCORE.INTRA>
-3.23722

>  <SCORE.INTRA.DIHEDRAL>
-0.821759

>  <SCORE.INTRA.DIHEDRAL.0>
18.4149

>  <SCORE.INTRA.POLAR>
-1.2056

>  <SCORE.INTRA.POLAR.0>
0

>  <SCORE.INTRA.REPUL>
-0.092687

>  <SCORE.INTRA.REPUL.0>
0.092687

>  <SCORE.INTRA.SOLV>
0.695255

>  <SCORE.INTRA.SOLV.lig_0>
-120.37

>  <SCORE.INTRA.VDW>
1.38849

>  <SCORE.INTRA.VDW.0>
-1.75542

>  <SCORE.INTRA.norm>
-0.104427

>  <SCORE.RESTR>
0

>  <SCORE.RESTR.CAVITY>
0

>  <SCORE.RESTR.norm>
0

>  <SCORE.SYSTEM>
0

>  <SCORE.SYSTEM.CONST>
0

>  <SCORE.SYSTEM.DIHEDRAL>
0

>  <SCORE.SYSTEM.SOLV>
0

>  <SCORE.SYSTEM.norm>
0

>  <SCORE.heavy>
31

>  <SCORE.norm>
-1.6727

>  <RMSD>
2.788

$$$$
1byj cryst
 OpenBabel11021811383D
libRbt.so/2013.1/901 2013/11/27
 31 33  0  0  0  0  0  0  0  0999 V2000
   10.0765    2.4819   -2.7179 C   0  0  1  0  0  0  0  0  0  0  0  0
    9.0795    2.7751   -3.7485 O   0  0  0  0  0  0  0  0  0  0  0  0
    7.7217    3.1105   -3.3333 C   0  0  2  0  0  0  0  0  0  0  0  0
    7.6776    4.4047   -2.6552 O   0  0  0  0  0  0  0  0  0  0  0  0
    7.1693    1.9785   -2.4148 C   0  0  2  0  0  0  0  0  0  0  0  0
    5.7938    2.2311   -1.9424 N   0  3  0  0  0  0  0  0  0  0  0  0
    8.1218    1.7574   -1.2114 C   0  0  0  0  0  0  0  0  0  0  0  0
    9.5487    1.4461   -1.6872 C   0  0  0  0  0  0  0  0  0  0  0  0
   11.3515    1.9328   -3.3818 C   0  0  0  0  0  0  0  0  0  0  0  0
   11.1242    1.3459   -4.7089 N   0  3  0  0  0  0  0  0  0  0  0  0
    8.5867    6.5051   -3.5675 C   0  0  1  0  0  0  0  0  0  0  0  0
    8.2506    7.8383   -4.2789 C   0  0  0  0  0  0  0  0  0  0  0  0
    7.1767    8.6249   -3.4802 C   0  0  1  0  0  0  0  0  0  0  0  0
    6.9231    9.9266   -4.1268 N   0  3  0  0  0  0  0  0  0  0  0  0
    5.8771    7.7792   -3.3477 C   0  0  1  0  0  0  0  0  0  0  0  0
    6.1626    6.3852   -2.7350 C   0  0  1  0  0  0  0  0  0  0  0  0
    4.9517    5.6488   -2.8205 O   0  0  0  0  0  0  0  0  0  0  0  0
    7.3225    5.5952   -3.4262 C   0  0  2  0  0  0  0  0  0  0  0  0
    9.6789    5.8151   -4.2763 N   0  3  0  0  0  0  0  0  0  0  0  0
    1.9217    7.9565   -2.7782 C   0  0  0  0  0  0  0  0  0  0  0  0
    1.2399    9.0077   -1.8683 C   0  0  2  0  0  0  0  0  0  0  0  0
    0.4339    9.8291   -2.7119 O   0  0  0  0  0  0  0  0  0  0  0  0
    2.3427    9.8633   -1.1381 C   0  0  1  0  0  0  0  0  0  0  0  0
    3.4461   10.3961   -2.1142 C   0  0  2  0  0  0  0  0  0  0  0  0
    3.9579    9.3255   -3.1110 C   0  0  1  0  0  0  0  0  0  0  0  0
    4.9200    8.4441   -2.4744 O   0  0  0  0  0  0  0  0  0  0  0  0
    2.8502    8.5873   -3.7000 O   0  0  0  0  0  0  0  0  0  0  0  0
    4.5588   10.9302   -1.4015 O   0  0  0  0  0  0  0  0  0  0  0  0
    1.6991   10.9949   -0.4008 N   0  3  0  0  0  0  0  0  0  0  0  0
    1.2309   10.7203    0.9729 C   0  0  0  0  0  0  0  0  0  0  0  0
    0.2865    8.2742   -0.8930 C   0  0  0  0  0  0  0  0  0  0  0  0
  1  8  1  0  0  0  0
  1  9  1  6  0  0  0
  1  2  1  0  0  0  0
  2  3  1  0  0  0  0
  3  5  1  0  0  0  0
  3  4  1  1  0  0  0
  5  7  1  0  0  0  0
  5  6  1  1  0  0  0
  7  8  1  0  0  0  0
  9 10  1  0  0  0  0
 11 12  1  0  0  0  0
 11 18  1  0  0  0  0
 11 19  1  6  0  0  0
 12 13  1  0  0  0  0
 13 15  1  0  0  0  0
 13 14  1  6  0  0  0
 15 16  1  0  0  0  0
 15 26  1  1  0  0  0
 16 18  1  0  0  0  0
 16 17  1  6  0  0  0
 18  4  1  1  0  0  0
 20 21  1  0  0  0  0
 20 27  1  0  0  0  0
 21 31  1  1  0  0  0
 21 23  1  0  0  0  0
 21 22  1  0  0  0  0
 23 24  1  0  0  0  0
 23 29  1  6  0  0  0
 24 25  1  0  0  0  0
 24 28  1  1  0  0  0
 25 27  1  0  0  0  0
 25 26  1  1  0  0  0
 29 30  1  0  0  0  0
M  CHG  5   6   1  10   1  14   1  19   1  29   1
M  END
>  <CHROM.1>
-22.71786487,96.14496491,-110.62579606,-175.45061566,-36.22350401,95.33701887
67.81884905,91.91248018,-43.10624817,78.84512993,-152.02737884,57.88078999
-155.25579384,5.83935285,6.52823042,-2.64040816,0.70524767,-0.40920928,2.91576158

>  <Name>
1byj cryst

>  <RI>
0

>  <Rbt.Current_Directory>
/home/itssahil/PROJECTS/Mol_Feturizer/New_Systems/rnas/1byj

>  <Rbt.Executable>
rbdock ($Id: //depot/dev/client3/rdock/2013.1/src/exe/rbdock.cxx#4 $)

>  <Rbt.Library>
libRbt.so (2013.1, Build901 2013/11/27)

>  <Rbt.Parameter_File>
/export/apps/rDock/src/rDock_2013.1_src/data/scripts/dock_solv.prm

>  <Rbt.Receptor>
prm/pocket_docking_4.prm

>  <SCORE>
-36.5123

>  <SCORE.INTER>
-39.5312

>  <SCORE.INTER.CONST>
1

>  <SCORE.INTER.POLAR>
-4.80394

>  <SCORE.INTER.ROT>
6

>  <SCORE.INTER.SOLV>
26.167

>  <SCORE.INTER.VDW>
-26.6634

>  <SCORE.INTER.norm>
-1.2752

>  <SCORE.INTRA>
3.01891

>  <SCORE.INTRA.DIHEDRAL>
11.8313

>  <SCORE.INTRA.DIHEDRAL.0>
18.4149

>  <SCORE.INTRA.POLAR>
-0.813576

>  <SCORE.INTRA.POLAR.0>
0

>  <SCORE.INTRA.REPUL>
-0.092687

>  <SCORE.INTRA.REPUL.0>
0.092687

>  <SCORE.INTRA.SOLV>
1.0853

>  <SCORE.INTRA.SOLV.lig_0>
-120.37

>  <SCORE.INTRA.VDW>
-0.209781

>  <SCORE.INTRA.VDW.0>
-1.75542

>  <SCORE.INTRA.norm>
0.0973841

>  <SCORE.RESTR>
0

>  <SCORE.RESTR.CAVITY>
0

>  <SCORE.RESTR.norm>
0

>  <SCORE.SYSTEM>
0

>  <SCORE.SYSTEM.CONST>
0

>  <SCORE.SYSTEM.DIHEDRAL>
0

>  <SCORE.SYSTEM.SOLV>
0

>  <SCORE.SYSTEM.norm>
0

>  <SCORE.heavy>
31

>  <SCORE.norm>
-1.17782

>  <RMSD>
2.797

$$$$
1byj cryst
 OpenBabel11021811383D
libRbt.so/2013.1/901 2013/11/27
 31 33  0  0  0  0  0  0  0  0999 V2000
    9.4186    1.4647   -3.1701 C   0  0  1  0  0  0  0  0  0  0  0  0
    8.0177    1.6257   -3.5623 O   0  0  0  0  0  0  0  0  0  0  0  0
    7.0916    2.2364   -2.6147 C   0  0  2  0  0  0  0  0  0  0  0  0
    7.3944    3.6521   -2.4126 O   0  0  0  0  0  0  0  0  0  0  0  0
    7.1440    1.4551   -1.2666 C   0  0  2  0  0  0  0  0  0  0  0  0
    6.2354    2.0031   -0.2403 N   0  3  0  0  0  0  0  0  0  0  0  0
    8.5991    1.4123   -0.7327 C   0  0  0  0  0  0  0  0  0  0  0  0
    9.5503    0.8002   -1.7719 C   0  0  0  0  0  0  0  0  0  0  0  0
   10.1451    0.5985   -4.2141 C   0  0  0  0  0  0  0  0  0  0  0  0
   10.1195    1.1584   -5.5717 N   0  3  0  0  0  0  0  0  0  0  0  0
    7.8295    5.8209   -3.4977 C   0  0  1  0  0  0  0  0  0  0  0  0
    7.2358    6.9521   -4.3721 C   0  0  0  0  0  0  0  0  0  0  0  0
    5.9358    7.5088   -3.7316 C   0  0  1  0  0  0  0  0  0  0  0  0
    5.4241    8.6367   -4.5334 N   0  3  0  0  0  0  0  0  0  0  0  0
    4.8800    6.3752   -3.5834 C   0  0  1  0  0  0  0  0  0  0  0  0
    5.4484    5.1635   -2.8032 C   0  0  1  0  0  0  0  0  0  0  0  0
    4.4698    4.1375   -2.8781 O   0  0  0  0  0  0  0  0  0  0  0  0
    6.8230    4.6354   -3.3315 C   0  0  2  0  0  0  0  0  0  0  0  0
    9.1154    5.3702   -4.0586 N   0  3  0  0  0  0  0  0  0  0  0  0
    2.1702    9.4297   -2.3177 C   0  0  0  0  0  0  0  0  0  0  0  0
    1.4168    9.1906   -0.9863 C   0  0  2  0  0  0  0  0  0  0  0  0
    1.8910   10.1653   -0.0582 O   0  0  0  0  0  0  0  0  0  0  0  0
    1.7138    7.7322   -0.4703 C   0  0  1  0  0  0  0  0  0  0  0  0
    3.2405    7.3811   -0.4809 C   0  0  2  0  0  0  0  0  0  0  0  0
    3.9631    7.8074   -1.7840 C   0  0  1  0  0  0  0  0  0  0  0  0
    3.7166    6.8516   -2.8485 O   0  0  0  0  0  0  0  0  0  0  0  0
    3.5900    9.1604   -2.1703 O   0  0  0  0  0  0  0  0  0  0  0  0
    3.4565    5.9882   -0.2698 O   0  0  0  0  0  0  0  0  0  0  0  0
    1.1407    7.5540    0.9001 N   0  3  0  0  0  0  0  0  0  0  0  0
    1.0467    6.1720    1.4133 C   0  0  0  0  0  0  0  0  0  0  0  0
   -0.0899    9.4664   -1.2137 C   0  0  0  0  0  0  0  0  0  0  0  0
  1  8  1  0  0  0  0
  1  9  1  6  0  0  0
  1  2  1  0  0  0  0
  2  3  1  0  0  0  0
  3  5  1  0  0  0  0
  3  4  1  1  0  0  0
  5  7  1  0  0  0  0
  5  6  1  1  0  0  0
  7  8  1  0  0  0  0
  9 10  1  0  0  0  0
 11 12  1  0  0  0  0
 11 18  1  0  0  0  0
 11 19  1  6  0  0  0
 12 13  1  0  0  0  0
 13 15  1  0  0  0  0
 13 14  1  6  0  0  0
 15 16  1  0  0  0  0
 15 26  1  1  0  0  0
 16 18  1  0  0  0  0
 16 17  1  6  0  0  0
 18  4  1  1  0  0  0
 20 21  1  0  0  0  0
 20 27  1  0  0  0  0
 21 31  1  6  0  0  0
 21 23  1  0  0  0  0
 21 22  1  0  0  0  0
 23 24  1  0  0  0  0
 23 29  1  1  0  0  0
 24 25  1  0  0  0  0
 24 28  1  6  0  0  0
 25 27  1  0  0  0  0
 25 26  1  6  0  0  0
 29 30  1  0  0  0  0
M  CHG  5   6   1  10   1  14   1  19   1  29   1
M  END
>  <CHROM.1>
59.30006643,86.17790504,-147.17076683,-174.01585600,-166.03055828,164.67172727
-165.62375050,-35.19156466,177.54721428,-64.18380385,-72.68659821,-176.21793583
-130.92176330,5.41902341,5.42144296,-2.21332304,0.43489646,-0.69257737,2.53393172

>  <Name>
1byj cryst

>  <RI>
0

>  <Rbt.Current_Directory>
/home/itssahil/PROJECTS/Mol_Feturizer/New_Systems/rnas/1byj

>  <Rbt.Executable>
rbdock ($Id: //depot/dev/client3/rdock/2013.1/src/exe/rbdock.cxx#4 $)

>  <Rbt.Library>
libRbt.so (2013.1, Build901 2013/11/27)

>  <Rbt.Parameter_File>
/export/apps/rDock/src/rDock_2013.1_src/data/scripts/dock_solv.prm

>  <Rbt.Receptor>
prm/pocket_docking_6.prm

>  <SCORE>
-46.7698

>  <SCORE.INTER>
-41.8898

>  <SCORE.INTER.CONST>
1

>  <SCORE.INTER.POLAR>
-5.59194

>  <SCORE.INTER.ROT>
6

>  <SCORE.INTER.SOLV>
24.4267

>  <SCORE.INTER.VDW>
-25.029

>  <SCORE.INTER.norm>
-1.35128

>  <SCORE.INTRA>
-4.87999

>  <SCORE.INTRA.DIHEDRAL>
0.30546

>  <SCORE.INTRA.DIHEDRAL.0>
18.4149

>  <SCORE.INTRA.POLAR>
-1.00526

>  <SCORE.INTRA.POLAR.0>
0

>  <SCORE.INTRA.REPUL>
-0.092687

>  <SCORE.INTRA.REPUL.0>
0.092687

>  <SCORE.INTRA.SOLV>
-0.588241

>  <SCORE.INTRA.SOLV.lig_0>
-120.37

>  <SCORE.INTRA.VDW>
-0.857285

>  <SCORE.INTRA.VDW.0>
-1.75542

>  <SCORE.INTRA.norm>
-0.157419

>  <SCORE.RESTR>
0

>  <SCORE.RESTR.CAVITY>
0

>  <SCORE.RESTR.norm>
0

>  <SCORE.SYSTEM>
0

>  <SCORE.SYSTEM.CONST>
0

>  <SCORE.SYSTEM.DIHEDRAL>
0

>  <SCORE.SYSTEM.SOLV>
0

>  <SCORE.SYSTEM.norm>
0

>  <SCORE.heavy>
31

>  <SCORE.norm>
-1.5087

>  <RMSD>
2.801

$$$$
1byj cryst
 OpenBabel11021811383D
libRbt.so/2013.1/901 2013/11/27
 31 33  0  0  0  0  0  0  0  0999 V2000
   10.1120    1.7853   -3.2333 C   0  0  1  0  0  0  0  0  0  0  0  0
    8.6772    1.5014   -3.1805 O   0  0  0  0  0  0  0  0  0  0  0  0
    7.9264    1.9087   -1.9977 C   0  0  2  0  0  0  0  0  0  0  0  0
    7.8339    3.3644   -1.9020 O   0  0  0  0  0  0  0  0  0  0  0  0
    8.5997    1.3063   -0.7272 C   0  0  2  0  0  0  0  0  0  0  0  0
    7.9065    1.6662    0.5254 N   0  3  0  0  0  0  0  0  0  0  0  0
   10.0892    1.7318   -0.6620 C   0  0  0  0  0  0  0  0  0  0  0  0
   10.8367    1.3215   -1.9397 C   0  0  0  0  0  0  0  0  0  0  0  0
   10.7304    1.0681   -4.4463 C   0  0  0  0  0  0  0  0  0  0  0  0
    9.7599    0.7342   -5.4969 N   0  3  0  0  0  0  0  0  0  0  0  0
    7.4354    5.5421   -2.9833 C   0  0  1  0  0  0  0  0  0  0  0  0
    6.4534    6.3835   -3.8344 C   0  0  0  0  0  0  0  0  0  0  0  0
    5.0578    6.4401   -3.1569 C   0  0  1  0  0  0  0  0  0  0  0  0
    4.1554    7.3079   -3.9376 N   0  3  0  0  0  0  0  0  0  0  0  0
    4.4817    5.0043   -2.9892 C   0  0  1  0  0  0  0  0  0  0  0  0
    5.4664    4.0785   -2.2320 C   0  0  1  0  0  0  0  0  0  0  0  0
    4.9179    2.7700   -2.2885 O   0  0  0  0  0  0  0  0  0  0  0  0
    6.9244    4.0755   -2.7992 C   0  0  2  0  0  0  0  0  0  0  0  0
    8.7821    5.5796   -3.5802 N   0  3  0  0  0  0  0  0  0  0  0  0
    1.2600    3.2622   -3.7171 C   0  0  0  0  0  0  0  0  0  0  0  0
   -0.0470    3.3185   -2.8887 C   0  0  2  0  0  0  0  0  0  0  0  0
   -1.0526    3.8757   -3.7339 O   0  0  0  0  0  0  0  0  0  0  0  0
    0.1778    4.2174   -1.6148 C   0  0  1  0  0  0  0  0  0  0  0  0
    0.8512    5.5916   -1.9498 C   0  0  2  0  0  0  0  0  0  0  0  0
    2.0509    5.4703   -2.9234 C   0  0  1  0  0  0  0  0  0  0  0  0
    3.2448    5.0350   -2.2212 O   0  0  0  0  0  0  0  0  0  0  0  0
    1.7296    4.5975   -4.0432 O   0  0  0  0  0  0  0  0  0  0  0  0
    1.2833    6.2620   -0.7687 O   0  0  0  0  0  0  0  0  0  0  0  0
   -1.1235    4.4260   -0.9068 N   0  3  0  0  0  0  0  0  0  0  0  0
   -1.3590    3.6268    0.3129 C   0  0  0  0  0  0  0  0  0  0  0  0
   -0.4809    1.8711   -2.5498 C   0  0  0  0  0  0  0  0  0  0  0  0
  1  8  1  0  0  0  0
  1  9  1  6  0  0  0
  1  2  1  0  0  0  0
  2  3  1  0  0  0  0
  3  5  1  0  0  0  0
  3  4  1  1  0  0  0
  5  7  1  0  0  0  0
  5  6  1  1  0  0  0
  7  8  1  0  0  0  0
  9 10  1  0  0  0  0
 11 12  1  0  0  0  0
 11 18  1  0  0  0  0
 11 19  1  6  0  0  0
 12 13  1  0  0  0  0
 13 15  1  0  0  0  0
 13 14  1  6  0  0  0
 15 16  1  0  0  0  0
 15 26  1  1  0  0  0
 16 18  1  0  0  0  0
 16 17  1  6  0  0  0
 18  4  1  1  0  0  0
 20 21  1  0  0  0  0
 20 27  1  0  0  0  0
 21 31  1  1  0  0  0
 21 23  1  0  0  0  0
 21 22  1  0  0  0  0
 23 24  1  0  0  0  0
 23 29  1  6  0  0  0
 24 25  1  0  0  0  0
 24 28  1  1  0  0  0
 25 27  1  0  0  0  0
 25 26  1  1  0  0  0
 29 30  1  0  0  0  0
M  CHG  5   6   1  10   1  14   1  19   1  29   1
M  END
>  <CHROM.1>
21.93846411,74.54064013,-154.68620835,67.34649545,64.56959918,-66.24797444
-43.78030840,77.38683829,62.50135127,57.01616359,-136.34246836,66.57373069
-174.16334366,4.89826170,3.71717667,-2.52163401,0.19509145,-0.15965511,2.70790784

>  <Name>
1byj cryst

>  <RI>
0

>  <Rbt.Current_Directory>
/home/itssahil/PROJECTS/Mol_Feturizer/New_Systems/rnas/1byj

>  <Rbt.Executable>
rbdock ($Id: //depot/dev/client3/rdock/2013.1/src/exe/rbdock.cxx#4 $)

>  <Rbt.Library>
libRbt.so (2013.1, Build901 2013/11/27)

>  <Rbt.Parameter_File>
/export/apps/rDock/src/rDock_2013.1_src/data/scripts/dock_solv.prm

>  <Rbt.Receptor>
prm/pocket_docking_4.prm

>  <SCORE>
-49.3372

>  <SCORE.INTER>
-43.8515

>  <SCORE.INTER.CONST>
1

>  <SCORE.INTER.POLAR>
-4.7231

>  <SCORE.INTER.ROT>
6

>  <SCORE.INTER.SOLV>
29.8

>  <SCORE.INTER.VDW>
-31.024

>  <SCORE.INTER.norm>
-1.41456

>  <SCORE.INTRA>
-5.51463

>  <SCORE.INTRA.DIHEDRAL>
-5.03175

>  <SCORE.INTRA.DIHEDRAL.0>
18.4149

>  <SCORE.INTRA.POLAR>
-0.112303

>  <SCORE.INTRA.POLAR.0>
0

>  <SCORE.INTRA.REPUL>
-0.092687

>  <SCORE.INTRA.REPUL.0>
0.092687

>  <SCORE.INTRA.SOLV>
-2.37844

>  <SCORE.INTRA.SOLV.lig_0>
-120.37

>  <SCORE.INTRA.VDW>
-0.964277

>  <SCORE.INTRA.VDW.0>
-1.75542

>  <SCORE.INTRA.norm>
-0.177891

>  <SCORE.RESTR>
0.0289292

>  <SCORE.RESTR.CAVITY>
0.0289292

>  <SCORE.RESTR.norm>
0.0009332

>  <SCORE.SYSTEM>
0

>  <SCORE.SYSTEM.CONST>
0

>  <SCORE.SYSTEM.DIHEDRAL>
0

>  <SCORE.SYSTEM.SOLV>
0

>  <SCORE.SYSTEM.norm>
0

>  <SCORE.heavy>
31

>  <SCORE.norm>
-1.59152

>  <RMSD>
2.805

$$$$
1byj cryst
 OpenBabel11021811383D
libRbt.so/2013.1/901 2013/11/27
 31 33  0  0  0  0  0  0  0  0999 V2000
    9.2246    1.7994   -3.1959 C   0  0  1  0  0  0  0  0  0  0  0  0
    7.8020    2.0733   -3.4040 O   0  0  0  0  0  0  0  0  0  0  0  0
    7.0907    2.8721   -2.4117 C   0  0  2  0  0  0  0  0  0  0  0  0
    7.5521    4.2592   -2.4160 O   0  0  0  0  0  0  0  0  0  0  0  0
    7.2722    2.2265   -1.0043 C   0  0  2  0  0  0  0  0  0  0  0  0
    6.5842    2.9691    0.0701 N   0  3  0  0  0  0  0  0  0  0  0  0
    8.7806    2.0776   -0.6778 C   0  0  0  0  0  0  0  0  0  0  0  0
    9.5026    1.2655   -1.7636 C   0  0  0  0  0  0  0  0  0  0  0  0
    9.7008    0.7602   -4.2261 C   0  0  0  0  0  0  0  0  0  0  0  0
    9.9758    1.3238   -5.5543 N   0  3  0  0  0  0  0  0  0  0  0  0
    7.0524    6.6681   -2.5491 C   0  0  1  0  0  0  0  0  0  0  0  0
    6.1855    7.7558   -3.2288 C   0  0  0  0  0  0  0  0  0  0  0  0
    4.6767    7.4299   -3.0637 C   0  0  1  0  0  0  0  0  0  0  0  0
    3.8622    8.5129   -3.6473 N   0  3  0  0  0  0  0  0  0  0  0  0
    4.3507    6.0490   -3.7028 C   0  0  1  0  0  0  0  0  0  0  0  0
    5.2599    4.9291   -3.1378 C   0  0  1  0  0  0  0  0  0  0  0  0
    4.9945    3.7649   -3.9060 O   0  0  0  0  0  0  0  0  0  0  0  0
    6.7896    5.2555   -3.1668 C   0  0  2  0  0  0  0  0  0  0  0  0
    8.4768    7.0386   -2.6213 N   0  3  0  0  0  0  0  0  0  0  0  0
    0.6294    6.6890   -1.7552 C   0  0  0  0  0  0  0  0  0  0  0  0
   -0.2973    5.4649   -1.5547 C   0  0  2  0  0  0  0  0  0  0  0  0
   -0.3728    5.2248   -0.1502 O   0  0  0  0  0  0  0  0  0  0  0  0
    0.3086    4.2199   -2.3059 C   0  0  1  0  0  0  0  0  0  0  0  0
    1.8288    4.0022   -1.9969 C   0  0  2  0  0  0  0  0  0  0  0  0
    2.6629    5.3073   -2.0501 C   0  0  1  0  0  0  0  0  0  0  0  0
    2.9739    5.6667   -3.4219 O   0  0  0  0  0  0  0  0  0  0  0  0
    1.9895    6.3875   -1.3440 O   0  0  0  0  0  0  0  0  0  0  0  0
    2.4096    3.0487   -2.8828 O   0  0  0  0  0  0  0  0  0  0  0  0
   -0.4794    2.9934   -1.9696 N   0  3  0  0  0  0  0  0  0  0  0  0
   -0.4195    1.8732   -2.9306 C   0  0  0  0  0  0  0  0  0  0  0  0
   -1.7215    5.8382   -2.0349 C   0  0  0  0  0  0  0  0  0  0  0  0
  1  8  1  0  0  0  0
  1  9  1  6  0  0  0
  1  2  1  0  0  0  0
  2  3  1  0  0  0  0
  3  5  1  0  0  0  0
  3  4  1  1  0  0  0
  5  7  1  0  0  0  0
  5  6  1  1  0  0  0
  7  8  1  0  0  0  0
  9 10  1  0  0  0  0
 11 12  1  0  0  0  0
 11 18  1  0  0  0  0
 11 19  1  6  0  0  0
 12 13  1  0  0  0  0
 13 15  1  0  0  0  0
 13 14  1  6  0  0  0
 15 16  1  0  0  0  0
 15 26  1  1  0  0  0
 16 18  1  0  0  0  0
 16 17  1  6  0  0  0
 18  4  1  1  0  0  0
 20 21  1  0  0  0  0
 20 27  1  0  0  0  0
 21 31  1  6  0  0  0
 21 23  1  0  0  0  0
 21 22  1  0  0  0  0
 23 24  1  0  0  0  0
 23 29  1  1  0  0  0
 24 25  1  0  0  0  0
 24 28  1  6  0  0  0
 25 27  1  0  0  0  0
 25 26  1  6  0  0  0
 29 30  1  0  0  0  0
M  CHG  5   6   1  10   1  14   1  19   1  29   1
M  END
>  <CHROM.1>
79.81145698,97.20242250,155.24687369,-61.85834897,-174.78355600,-40.97151278
-52.68896377,-70.30399252,60.05275858,68.22320765,-81.95820647,-68.65149802
-133.67511067,4.65509828,4.37599540,-2.52531949,0.27806775,-0.14600480,3.05593180

>  <Name>
1byj cryst

>  <RI>
0

>  <Rbt.Current_Directory>
/home/itssahil/PROJECTS/Mol_Feturizer/New_Systems/rnas/1byj

>  <Rbt.Executable>
rbdock ($Id: //depot/dev/client3/rdock/2013.1/src/exe/rbdock.cxx#4 $)

>  <Rbt.Library>
libRbt.so (2013.1, Build901 2013/11/27)

>  <Rbt.Parameter_File>
/export/apps/rDock/src/rDock_2013.1_src/data/scripts/dock_solv.prm

>  <Rbt.Receptor>
prm/pocket_docking_5.prm

>  <SCORE>
-45.5898

>  <SCORE.INTER>
-46.3004

>  <SCORE.INTER.CONST>
1

>  <SCORE.INTER.POLAR>
-7.3638

>  <SCORE.INTER.ROT>
6

>  <SCORE.INTER.SOLV>
25.1687

>  <SCORE.INTER.VDW>
-22.3105

>  <SCORE.INTER.norm>
-1.49356

>  <SCORE.INTRA>
0.710523

>  <SCORE.INTRA.DIHEDRAL>
0.431076

>  <SCORE.INTRA.DIHEDRAL.0>
18.4149

>  <SCORE.INTRA.POLAR>
-0.0191034

>  <SCORE.INTRA.POLAR.0>
0

>  <SCORE.INTRA.REPUL>
0.0558428

>  <SCORE.INTRA.REPUL.0>
0.092687

>  <SCORE.INTRA.SOLV>
-3.25901

>  <SCORE.INTRA.SOLV.lig_0>
-120.37

>  <SCORE.INTRA.VDW>
1.91023

>  <SCORE.INTRA.VDW.0>
-1.75542

>  <SCORE.INTRA.norm>
0.0229201

>  <SCORE.RESTR>
0

>  <SCORE.RESTR.CAVITY>
0

>  <SCORE.RESTR.norm>
0

>  <SCORE.SYSTEM>
0

>  <SCORE.SYSTEM.CONST>
0

>  <SCORE.SYSTEM.DIHEDRAL>
0

>  <SCORE.SYSTEM.SOLV>
0

>  <SCORE.SYSTEM.norm>
0

>  <SCORE.heavy>
31

>  <SCORE.norm>
-1.47064

>  <RMSD>
2.842

$$$$
1byj cryst
 OpenBabel11021811383D
libRbt.so/2013.1/901 2013/11/27
 31 33  0  0  0  0  0  0  0  0999 V2000
    7.0813    2.6121   -1.4436 C   0  0  1  0  0  0  0  0  0  0  0  0
    8.1490    3.5550   -1.7797 O   0  0  0  0  0  0  0  0  0  0  0  0
    8.7578    3.4799   -3.1035 C   0  0  2  0  0  0  0  0  0  0  0  0
    7.8155    3.8833   -4.1456 O   0  0  0  0  0  0  0  0  0  0  0  0
    9.2780    2.0310   -3.3499 C   0  0  2  0  0  0  0  0  0  0  0  0
    9.9134    1.8572   -4.6709 N   0  3  0  0  0  0  0  0  0  0  0  0
    8.1229    1.0129   -3.1677 C   0  0  0  0  0  0  0  0  0  0  0  0
    7.4815    1.1488   -1.7786 C   0  0  0  0  0  0  0  0  0  0  0  0
    6.7589    2.7192    0.0573 C   0  0  0  0  0  0  0  0  0  0  0  0
    6.2747    4.0438    0.4676 N   0  3  0  0  0  0  0  0  0  0  0  0
    8.3997    6.2021   -3.5521 C   0  0  1  0  0  0  0  0  0  0  0  0
    7.8813    7.6549   -3.4211 C   0  0  0  0  0  0  0  0  0  0  0  0
    6.6390    7.7071   -2.4917 C   0  0  1  0  0  0  0  0  0  0  0  0
    6.2033    9.1054   -2.3137 N   0  3  0  0  0  0  0  0  0  0  0  0
    5.5011    6.8122   -3.0626 C   0  0  1  0  0  0  0  0  0  0  0  0
    5.9865    5.3629   -3.3156 C   0  0  1  0  0  0  0  0  0  0  0  0
    4.9302    4.6927   -3.9873 O   0  0  0  0  0  0  0  0  0  0  0  0
    7.3072    5.2542   -4.1470 C   0  0  2  0  0  0  0  0  0  0  0  0
    9.6375    6.1769   -4.3511 N   0  3  0  0  0  0  0  0  0  0  0  0
    2.6642    4.5134   -0.9392 C   0  0  0  0  0  0  0  0  0  0  0  0
    1.3846    5.2171   -0.4243 C   0  0  2  0  0  0  0  0  0  0  0  0
    0.2853    4.6634   -1.1461 O   0  0  0  0  0  0  0  0  0  0  0  0
    1.5002    6.7674   -0.6787 C   0  0  1  0  0  0  0  0  0  0  0  0
    1.9470    7.1135   -2.1398 C   0  0  2  0  0  0  0  0  0  0  0  0
    3.1270    6.2460   -2.6466 C   0  0  1  0  0  0  0  0  0  0  0  0
    4.3901    6.7352   -2.1243 O   0  0  0  0  0  0  0  0  0  0  0  0
    2.9158    4.8406   -2.3319 O   0  0  0  0  0  0  0  0  0  0  0  0
    2.3000    8.4886   -2.2649 O   0  0  0  0  0  0  0  0  0  0  0  0
    0.1999    7.4318   -0.3529 N   0  3  0  0  0  0  0  0  0  0  0  0
   -0.9409    7.1480   -1.2473 C   0  0  0  0  0  0  0  0  0  0  0  0
    1.1858    4.8531    1.0677 C   0  0  0  0  0  0  0  0  0  0  0  0
  1  8  1  0  0  0  0
  1  9  1  1  0  0  0
  1  2  1  0  0  0  0
  2  3  1  0  0  0  0
  3  5  1  0  0  0  0
  3  4  1  6  0  0  0
  5  7  1  0  0  0  0
  5  6  1  6  0  0  0
  7  8  1  0  0  0  0
  9 10  1  0  0  0  0
 11 12  1  0  0  0  0
 11 18  1  0  0  0  0
 11 19  1  6  0  0  0
 12 13  1  0  0  0  0
 13 15  1  0  0  0  0
 13 14  1  6  0  0  0
 15 16  1  0  0  0  0
 15 26  1  1  0  0  0
 16 18  1  0  0  0  0
 16 17  1  6  0  0  0
 18  4  1  1  0  0  0
 20 21  1  0  0  0  0
 20 27  1  0  0  0  0
 21 31  1  1  0  0  0
 21 23  1  0  0  0  0
 21 22  1  0  0  0  0
 23 24  1  0  0  0  0
 23 29  1  6  0  0  0
 24 25  1  0  0  0  0
 24 28  1  1  0  0  0
 25 27  1  0  0  0  0
 25 26  1  1  0  0  0
 29 30  1  0  0  0  0
M  CHG  5   6   1  10   1  14   1  19   1  29   1
M  END
>  <CHROM.1>
61.58318424,63.14389326,30.74784461,-67.39129120,-55.00306595,-46.80249059
-48.51439229,164.02690633,-79.25347563,61.31624455,52.14513506,66.86655164
-136.14286470,5.24519109,5.16287344,-2.21885714,0.27045126,-0.39576397,2.83103105

>  <Name>
1byj cryst

>  <RI>
0

>  <Rbt.Current_Directory>
/home/itssahil/PROJECTS/Mol_Feturizer/New_Systems/rnas/1byj

>  <Rbt.Executable>
rbdock ($Id: //depot/dev/client3/rdock/2013.1/src/exe/rbdock.cxx#4 $)

>  <Rbt.Library>
libRbt.so (2013.1, Build901 2013/11/27)

>  <Rbt.Parameter_File>
/export/apps/rDock/src/rDock_2013.1_src/data/scripts/dock_solv.prm

>  <Rbt.Receptor>
prm/pocket_docking_3.prm

>  <SCORE>
-33.8016

>  <SCORE.INTER>
-29.8273

>  <SCORE.INTER.CONST>
1

>  <SCORE.INTER.POLAR>
-4.52215

>  <SCORE.INTER.ROT>
6

>  <SCORE.INTER.SOLV>
18.5364

>  <SCORE.INTER.VDW>
-18.5899

>  <SCORE.INTER.norm>
-0.962172

>  <SCORE.INTRA>
-4.2383

>  <SCORE.INTRA.DIHEDRAL>
-4.4139

>  <SCORE.INTRA.DIHEDRAL.0>
18.4149

>  <SCORE.INTRA.POLAR>
-1.01336

>  <SCORE.INTRA.POLAR.0>
0

>  <SCORE.INTRA.REPUL>
-0.0271297

>  <SCORE.INTRA.REPUL.0>
0.092687

>  <SCORE.INTRA.SOLV>
-1.77805

>  <SCORE.INTRA.SOLV.lig_0>
-120.37

>  <SCORE.INTRA.VDW>
2.43874

>  <SCORE.INTRA.VDW.0>
-1.75542

>  <SCORE.INTRA.norm>
-0.136719

>  <SCORE.RESTR>
0.264013

>  <SCORE.RESTR.CAVITY>
0.264013

>  <SCORE.RESTR.norm>
0.00851654

>  <SCORE.SYSTEM>
0

>  <SCORE.SYSTEM.CONST>
0

>  <SCORE.SYSTEM.DIHEDRAL>
0

>  <SCORE.SYSTEM.SOLV>
0

>  <SCORE.SYSTEM.norm>
0

>  <SCORE.heavy>
31

>  <SCORE.norm>
-1.09038

>  <RMSD>
2.847

$$$$
1byj cryst
 OpenBabel11021811383D
libRbt.so/2013.1/901 2013/11/27
 31 33  0  0  0  0  0  0  0  0999 V2000
    7.3711    2.3555   -1.1104 C   0  0  1  0  0  0  0  0  0  0  0  0
    8.1605    3.4675   -1.6418 O   0  0  0  0  0  0  0  0  0  0  0  0
    8.6063    3.4087   -3.0298 C   0  0  2  0  0  0  0  0  0  0  0  0
    7.4799    3.5183   -3.9550 O   0  0  0  0  0  0  0  0  0  0  0  0
    9.3943    2.0838   -3.2621 C   0  0  2  0  0  0  0  0  0  0  0  0
    9.8876    1.9346   -4.6454 N   0  3  0  0  0  0  0  0  0  0  0  0
    8.5181    0.8673   -2.8667 C   0  0  0  0  0  0  0  0  0  0  0  0
    8.0355    0.9841   -1.4131 C   0  0  0  0  0  0  0  0  0  0  0  0
    7.2173    2.5198    0.4119 C   0  0  0  0  0  0  0  0  0  0  0  0
    6.3906    3.6685    0.8046 N   0  3  0  0  0  0  0  0  0  0  0  0
    7.7159    5.9497   -3.6342 C   0  0  1  0  0  0  0  0  0  0  0  0
    6.9762    7.3090   -3.5928 C   0  0  0  0  0  0  0  0  0  0  0  0
    5.8140    7.2643   -2.5646 C   0  0  1  0  0  0  0  0  0  0  0  0
    5.1680    8.5880   -2.4790 N   0  3  0  0  0  0  0  0  0  0  0  0
    4.8003    6.1468   -2.9456 C   0  0  1  0  0  0  0  0  0  0  0  0
    5.4980    4.7728   -3.1053 C   0  0  1  0  0  0  0  0  0  0  0  0
    4.5202    3.8780   -3.6144 O   0  0  0  0  0  0  0  0  0  0  0  0
    6.7539    4.7846   -4.0381 C   0  0  2  0  0  0  0  0  0  0  0  0
    8.8788    6.0340   -4.5352 N   0  3  0  0  0  0  0  0  0  0  0  0
    1.2284    6.2854   -0.2717 C   0  0  0  0  0  0  0  0  0  0  0  0
    0.4466    7.4470   -0.9328 C   0  0  2  0  0  0  0  0  0  0  0  0
   -0.7933    6.9083   -1.3894 O   0  0  0  0  0  0  0  0  0  0  0  0
    1.2845    8.0258   -2.1346 C   0  0  1  0  0  0  0  0  0  0  0  0
    1.8226    6.9114   -3.0950 C   0  0  2  0  0  0  0  0  0  0  0  0
    2.4389    5.6996   -2.3508 C   0  0  1  0  0  0  0  0  0  0  0  0
    3.7893    5.9968   -1.9083 O   0  0  0  0  0  0  0  0  0  0  0  0
    1.5869    5.2735   -1.2502 O   0  0  0  0  0  0  0  0  0  0  0  0
    2.7873    7.4303   -4.0069 O   0  0  0  0  0  0  0  0  0  0  0  0
    0.4633    9.0224   -2.8902 N   0  3  0  0  0  0  0  0  0  0  0  0
    0.6119   10.4415   -2.5080 C   0  0  0  0  0  0  0  0  0  0  0  0
    0.1182    8.5028    0.1514 C   0  0  0  0  0  0  0  0  0  0  0  0
  1  8  1  0  0  0  0
  1  9  1  1  0  0  0
  1  2  1  0  0  0  0
  2  3  1  0  0  0  0
  3  5  1  0  0  0  0
  3  4  1  6  0  0  0
  5  7  1  0  0  0  0
  5  6  1  6  0  0  0
  7  8  1  0  0  0  0
  9 10  1  0  0  0  0
 11 12  1  0  0  0  0
 11 18  1  0  0  0  0
 11 19  1  6  0  0  0
 12 13  1  0  0  0  0
 13 15  1  0  0  0  0
 13 14  1  6  0  0  0
 15 16  1  0  0  0  0
 15 26  1  1  0  0  0
 16 18  1  0  0  0  0
 16 17  1  6  0  0  0
 18  4  1  1  0  0  0
 20 21  1  0  0  0  0
 20 27  1  0  0  0  0
 21 31  1  1  0  0  0
 21 23  1  0  0  0  0
 21 22  1  0  0  0  0
 23 24  1  0  0  0  0
 23 29  1  6  0  0  0
 24 25  1  0  0  0  0
 24 28  1  6  0  0  0
 25 27  1  0  0  0  0
 25 26  1  1  0  0  0
 29 30  1  0  0  0  0
M  CHG  5   6   1  10   1  14   1  19   1  29   1
M  END
>  <CHROM.1>
67.66843793,67.77564359,26.81008964,67.11162472,68.68293921,66.40049579,105.13024124
143.18169376,-170.87671788,-56.69408954,-145.12125210,-78.38965865,-68.43798790
4.91853591,5.42174277,-2.39801933,0.38992590,-0.47782722,2.49276900

>  <Name>
1byj cryst

>  <RI>
0

>  <Rbt.Current_Directory>
/home/itssahil/PROJECTS/Mol_Feturizer/New_Systems/rnas/1byj

>  <Rbt.Executable>
rbdock ($Id: //depot/dev/client3/rdock/2013.1/src/exe/rbdock.cxx#4 $)

>  <Rbt.Library>
libRbt.so (2013.1, Build901 2013/11/27)

>  <Rbt.Parameter_File>
/export/apps/rDock/src/rDock_2013.1_src/data/scripts/dock_solv.prm

>  <Rbt.Receptor>
prm/pocket_docking_3.prm

>  <SCORE>
-50.8465

>  <SCORE.INTER>
-46.9307

>  <SCORE.INTER.CONST>
1

>  <SCORE.INTER.POLAR>
-7.07689

>  <SCORE.INTER.ROT>
6

>  <SCORE.INTER.SOLV>
23.5457

>  <SCORE.INTER.VDW>
-23.1461

>  <SCORE.INTER.norm>
-1.51389

>  <SCORE.INTRA>
-3.96108

>  <SCORE.INTRA.DIHEDRAL>
-0.562988

>  <SCORE.INTRA.DIHEDRAL.0>
18.4149

>  <SCORE.INTRA.POLAR>
-1.16854

>  <SCORE.INTRA.POLAR.0>
0

>  <SCORE.INTRA.REPUL>
-0.092687

>  <SCORE.INTRA.REPUL.0>
0.092687

>  <SCORE.INTRA.SOLV>
0.836133

>  <SCORE.INTRA.SOLV.lig_0>
-120.37

>  <SCORE.INTRA.VDW>
0.338825

>  <SCORE.INTRA.VDW.0>
-1.75542

>  <SCORE.INTRA.norm>
-0.127777

>  <SCORE.RESTR>
0.0453585

>  <SCORE.RESTR.CAVITY>
0.0453585

>  <SCORE.RESTR.norm>
0.00146318

>  <SCORE.SYSTEM>
0

>  <SCORE.SYSTEM.CONST>
0

>  <SCORE.SYSTEM.DIHEDRAL>
0

>  <SCORE.SYSTEM.SOLV>
0

>  <SCORE.SYSTEM.norm>
0

>  <SCORE.heavy>
31

>  <SCORE.norm>
-1.64021

>  <RMSD>
2.847

$$$$
1byj cryst
 OpenBabel11021811383D
libRbt.so/2013.1/901 2013/11/27
 31 33  0  0  0  0  0  0  0  0999 V2000
    7.8951    2.1115   -0.6063 C   0  0  1  0  0  0  0  0  0  0  0  0
    8.3733    3.3149   -1.2884 O   0  0  0  0  0  0  0  0  0  0  0  0
    8.7701    3.2146   -2.6887 C   0  0  2  0  0  0  0  0  0  0  0  0
    7.6182    2.9550   -3.5504 O   0  0  0  0  0  0  0  0  0  0  0  0
    9.8456    2.0963   -2.8406 C   0  0  2  0  0  0  0  0  0  0  0  0
   10.3105    1.9204   -4.2306 N   0  3  0  0  0  0  0  0  0  0  0  0
    9.3035    0.7568   -2.2785 C   0  0  0  0  0  0  0  0  0  0  0  0
    8.8594    0.9116   -0.8162 C   0  0  0  0  0  0  0  0  0  0  0  0
    7.7608    2.3971    0.8999 C   0  0  0  0  0  0  0  0  0  0  0  0
    9.0258    2.7643    1.5496 N   0  3  0  0  0  0  0  0  0  0  0  0
    7.8025    5.3273   -4.1893 C   0  0  1  0  0  0  0  0  0  0  0  0
    7.0291    6.5939   -4.6301 C   0  0  0  0  0  0  0  0  0  0  0  0
    5.9142    6.9343   -3.6049 C   0  0  1  0  0  0  0  0  0  0  0  0
    5.2373    8.1855   -3.9960 N   0  3  0  0  0  0  0  0  0  0  0  0
    4.9153    5.7475   -3.4813 C   0  0  1  0  0  0  0  0  0  0  0  0
    5.6421    4.4220   -3.1422 C   0  0  1  0  0  0  0  0  0  0  0  0
    4.6674    3.3927   -3.2234 O   0  0  0  0  0  0  0  0  0  0  0  0
    6.8554    4.0883   -4.0715 C   0  0  2  0  0  0  0  0  0  0  0  0
    8.9226    5.0720   -5.1122 N   0  3  0  0  0  0  0  0  0  0  0  0
    1.7332    4.0033   -3.0616 C   0  0  0  0  0  0  0  0  0  0  0  0
    0.6932    4.1646   -1.9259 C   0  0  2  0  0  0  0  0  0  0  0  0
   -0.5276    4.5828   -2.5350 O   0  0  0  0  0  0  0  0  0  0  0  0
    1.2045    5.2407   -0.8955 C   0  0  1  0  0  0  0  0  0  0  0  0
    1.6955    6.5592   -1.5844 C   0  0  2  0  0  0  0  0  0  0  0  0
    2.5968    6.3114   -2.8205 C   0  0  1  0  0  0  0  0  0  0  0  0
    3.9546    5.9952   -2.4154 O   0  0  0  0  0  0  0  0  0  0  0  0
    2.0323    5.2824   -3.6815 O   0  0  0  0  0  0  0  0  0  0  0  0
    2.3929    7.3981   -0.6673 O   0  0  0  0  0  0  0  0  0  0  0  0
    0.1302    5.5354    0.1033 N   0  3  0  0  0  0  0  0  0  0  0  0
    0.5381    6.2288    1.3421 C   0  0  0  0  0  0  0  0  0  0  0  0
    0.4375    2.7768   -1.2881 C   0  0  0  0  0  0  0  0  0  0  0  0
  1  8  1  0  0  0  0
  1  9  1  1  0  0  0
  1  2  1  0  0  0  0
  2  3  1  0  0  0  0
  3  5  1  0  0  0  0
  3  4  1  6  0  0  0
  5  7  1  0  0  0  0
  5  6  1  6  0  0  0
  7  8  1  0  0  0  0
  9 10  1  0  0  0  0
 11 12  1  0  0  0  0
 11 18  1  0  0  0  0
 11 19  1  6  0  0  0
 12 13  1  0  0  0  0
 13 15  1  0  0  0  0
 13 14  1  6  0  0  0
 15 16  1  0  0  0  0
 15 26  1  1  0  0  0
 16 18  1  0  0  0  0
 16 17  1  6  0  0  0
 18  4  1  1  0  0  0
 20 21  1  0  0  0  0
 20 27  1  0  0  0  0
 21 31  1  1  0  0  0
 21 23  1  0  0  0  0
 21 22  1  0  0  0  0
 23 24  1  0  0  0  0
 23 29  1  1  0  0  0
 24 25  1  0  0  0  0
 24 28  1  1  0  0  0
 25 27  1  0  0  0  0
 25 26  1  1  0  0  0
 29 30  1  0  0  0  0
M  CHG  5   6   1  10   1  14   1  19   1  29   1
M  END
>  <CHROM.1>
-61.24848628,87.96865263,28.03444659,-52.17308510,24.45314439,140.94636327
-54.23575889,107.67788084,68.19043956,55.69674112,-75.07169630,69.10373911
-179.56974728,5.20803681,4.40968641,-2.28106410,0.12476941,-0.33572235,2.26243652

>  <Name>
1byj cryst

>  <RI>
0

>  <Rbt.Current_Directory>
/home/itssahil/PROJECTS/Mol_Feturizer/New_Systems/rnas/1byj

>  <Rbt.Executable>
rbdock ($Id: //depot/dev/client3/rdock/2013.1/src/exe/rbdock.cxx#4 $)

>  <Rbt.Library>
libRbt.so (2013.1, Build901 2013/11/27)

>  <Rbt.Parameter_File>
/export/apps/rDock/src/rDock_2013.1_src/data/scripts/dock_solv.prm

>  <Rbt.Receptor>
prm/pocket_docking_4.prm

>  <SCORE>
-38.6381

>  <SCORE.INTER>
-40.3445

>  <SCORE.INTER.CONST>
1

>  <SCORE.INTER.POLAR>
-6.53343

>  <SCORE.INTER.ROT>
6

>  <SCORE.INTER.SOLV>
22.5822

>  <SCORE.INTER.VDW>
-20.2456

>  <SCORE.INTER.norm>
-1.30143

>  <SCORE.INTRA>
1.70641

>  <SCORE.INTRA.DIHEDRAL>
2.1315

>  <SCORE.INTRA.DIHEDRAL.0>
18.4149

>  <SCORE.INTRA.POLAR>
-0.03913

>  <SCORE.INTRA.POLAR.0>
0

>  <SCORE.INTRA.REPUL>
-0.092687

>  <SCORE.INTRA.REPUL.0>
0.092687

>  <SCORE.INTRA.SOLV>
1.67262

>  <SCORE.INTRA.SOLV.lig_0>
-120.37

>  <SCORE.INTRA.VDW>
0.400829

>  <SCORE.INTRA.VDW.0>
-1.75542

>  <SCORE.INTRA.norm>
0.0550455

>  <SCORE.RESTR>
0

>  <SCORE.RESTR.CAVITY>
0

>  <SCORE.RESTR.norm>
0

>  <SCORE.SYSTEM>
0

>  <SCORE.SYSTEM.CONST>
0

>  <SCORE.SYSTEM.DIHEDRAL>
0

>  <SCORE.SYSTEM.SOLV>
0

>  <SCORE.SYSTEM.norm>
0

>  <SCORE.heavy>
31

>  <SCORE.norm>
-1.24639

>  <RMSD>
2.865

$$$$
1byj cryst
 OpenBabel11021811383D
libRbt.so/2013.1/901 2013/11/27
 31 33  0  0  0  0  0  0  0  0999 V2000
    9.3913    1.6915   -3.8184 C   0  0  1  0  0  0  0  0  0  0  0  0
    7.9494    1.8916   -3.6666 O   0  0  0  0  0  0  0  0  0  0  0  0
    7.4558    2.5305   -2.4513 C   0  0  2  0  0  0  0  0  0  0  0  0
    7.8483    3.9374   -2.3933 O   0  0  0  0  0  0  0  0  0  0  0  0
    7.9833    1.7508   -1.2086 C   0  0  2  0  0  0  0  0  0  0  0  0
    7.5335    2.3265    0.0740 N   0  3  0  0  0  0  0  0  0  0  0  0
    9.5310    1.6676   -1.2504 C   0  0  0  0  0  0  0  0  0  0  0  0
   10.0139    1.0264   -2.5600 C   0  0  0  0  0  0  0  0  0  0  0  0
    9.6572    0.8028   -5.0462 C   0  0  0  0  0  0  0  0  0  0  0  0
   11.0713    0.7394   -5.4382 N   0  3  0  0  0  0  0  0  0  0  0  0
    8.3038    6.0970   -3.4883 C   0  0  1  0  0  0  0  0  0  0  0  0
    7.7788    7.1572   -4.4868 C   0  0  0  0  0  0  0  0  0  0  0  0
    6.3639    7.6419   -4.0710 C   0  0  1  0  0  0  0  0  0  0  0  0
    5.9090    8.7067   -4.9853 N   0  3  0  0  0  0  0  0  0  0  0  0
    5.3723    6.4431   -4.0363 C   0  0  1  0  0  0  0  0  0  0  0  0
    5.8918    5.2980   -3.1313 C   0  0  1  0  0  0  0  0  0  0  0  0
    5.0033    4.2049   -3.3099 O   0  0  0  0  0  0  0  0  0  0  0  0
    7.3614    4.8503   -3.4264 C   0  0  2  0  0  0  0  0  0  0  0  0
    9.6861    5.7193   -3.8319 N   0  3  0  0  0  0  0  0  0  0  0  0
    2.9219    9.4843   -2.4618 C   0  0  0  0  0  0  0  0  0  0  0  0
    1.6850    9.0820   -1.6217 C   0  0  2  0  0  0  0  0  0  0  0  0
    1.9260    9.5247   -0.2867 O   0  0  0  0  0  0  0  0  0  0  0  0
    1.5037    7.5180   -1.6711 C   0  0  1  0  0  0  0  0  0  0  0  0
    2.8312    6.7410   -1.3747 C   0  0  2  0  0  0  0  0  0  0  0  0
    4.0616    7.3122   -2.1241 C   0  0  1  0  0  0  0  0  0  0  0  0
    4.0828    6.8600   -3.5035 O   0  0  0  0  0  0  0  0  0  0  0  0
    4.1057    8.7639   -2.0266 O   0  0  0  0  0  0  0  0  0  0  0  0
    2.7052    5.3559   -1.6861 O   0  0  0  0  0  0  0  0  0  0  0  0
    0.4257    7.1034   -0.7200 N   0  3  0  0  0  0  0  0  0  0  0  0
   -0.9124    6.8504   -1.2920 C   0  0  0  0  0  0  0  0  0  0  0  0
    0.4541    9.8596   -2.1492 C   0  0  0  0  0  0  0  0  0  0  0  0
  1  8  1  0  0  0  0
  1  9  1  6  0  0  0
  1  2  1  0  0  0  0
  2  3  1  0  0  0  0
  3  5  1  0  0  0  0
  3  4  1  1  0  0  0
  5  7  1  0  0  0  0
  5  6  1  1  0  0  0
  7  8  1  0  0  0  0
  9 10  1  0  0  0  0
 11 12  1  0  0  0  0
 11 18  1  0  0  0  0
 11 19  1  6  0  0  0
 12 13  1  0  0  0  0
 13 15  1  0  0  0  0
 13 14  1  6  0  0  0
 15 16  1  0  0  0  0
 15 26  1  1  0  0  0
 16 18  1  0  0  0  0
 16 17  1  6  0  0  0
 18  4  1  1  0  0  0
 20 21  1  0  0  0  0
 20 27  1  0  0  0  0
 21 31  1  6  0  0  0
 21 23  1  0  0  0  0
 21 22  1  0  0  0  0
 23 24  1  0  0  0  0
 23 29  1  1  0  0  0
 24 25  1  0  0  0  0
 24 28  1  6  0  0  0
 25 27  1  0  0  0  0
 25 26  1  6  0  0  0
 29 30  1  0  0  0  0
M  CHG  5   6   1  10   1  14   1  19   1  29   1
M  END
>  <CHROM.1>
169.33179242,62.35755896,-158.50453519,-178.99863127,65.16403972,-165.73671478
135.88876003,-63.90283936,-65.50265940,57.06692212,-139.80071514,-59.14553387
-137.38957682,5.66676439,5.44958864,-2.68483485,0.51478507,-0.50750374,2.68741220

>  <Name>
1byj cryst

>  <RI>
0

>  <Rbt.Current_Directory>
/home/itssahil/PROJECTS/Mol_Feturizer/New_Systems/rnas/1byj

>  <Rbt.Executable>
rbdock ($Id: //depot/dev/client3/rdock/2013.1/src/exe/rbdock.cxx#4 $)

>  <Rbt.Library>
libRbt.so (2013.1, Build901 2013/11/27)

>  <Rbt.Parameter_File>
/export/apps/rDock/src/rDock_2013.1_src/data/scripts/dock_solv.prm

>  <Rbt.Receptor>
prm/pocket_docking_7.prm

>  <SCORE>
-51.4736

>  <SCORE.INTER>
-44.2238

>  <SCORE.INTER.CONST>
1

>  <SCORE.INTER.POLAR>
-5.15216

>  <SCORE.INTER.ROT>
6

>  <SCORE.INTER.SOLV>
30.7068

>  <SCORE.INTER.VDW>
-30.1443

>  <SCORE.INTER.norm>
-1.42657

>  <SCORE.INTRA>
-7.2498

>  <SCORE.INTRA.DIHEDRAL>
-3.46663

>  <SCORE.INTRA.DIHEDRAL.0>
18.4149

>  <SCORE.INTRA.POLAR>
-1.11178

>  <SCORE.INTRA.POLAR.0>
0

>  <SCORE.INTRA.REPUL>
-0.092687

>  <SCORE.INTRA.REPUL.0>
0.092687

>  <SCORE.INTRA.SOLV>
-2.34051

>  <SCORE.INTRA.SOLV.lig_0>
-120.37

>  <SCORE.INTRA.VDW>
-0.102749

>  <SCORE.INTRA.VDW.0>
-1.75542

>  <SCORE.INTRA.norm>
-0.233865

>  <SCORE.RESTR>
0

>  <SCORE.RESTR.CAVITY>
0

>  <SCORE.RESTR.norm>
0

>  <SCORE.SYSTEM>
0

>  <SCORE.SYSTEM.CONST>
0

>  <SCORE.SYSTEM.DIHEDRAL>
0

>  <SCORE.SYSTEM.SOLV>
0

>  <SCORE.SYSTEM.norm>
0

>  <SCORE.heavy>
31

>  <SCORE.norm>
-1.66044

>  <RMSD>
2.871

$$$$
1byj cryst
 OpenBabel11021811383D
libRbt.so/2013.1/901 2013/11/27
 31 33  0  0  0  0  0  0  0  0999 V2000
    7.2080    2.4747   -1.2382 C   0  0  1  0  0  0  0  0  0  0  0  0
    8.1457    3.5118   -1.6709 O   0  0  0  0  0  0  0  0  0  0  0  0
    8.6759    3.4534   -3.0289 C   0  0  2  0  0  0  0  0  0  0  0  0
    7.6331    3.7176   -4.0185 O   0  0  0  0  0  0  0  0  0  0  0  0
    9.3321    2.0593   -3.2663 C   0  0  2  0  0  0  0  0  0  0  0  0
    9.8994    1.9057   -4.6204 N   0  3  0  0  0  0  0  0  0  0  0  0
    8.3063    0.9326   -2.9792 C   0  0  0  0  0  0  0  0  0  0  0  0
    7.7413    1.0504   -1.5557 C   0  0  0  0  0  0  0  0  0  0  0  0
    6.9696    2.6013    0.2768 C   0  0  0  0  0  0  0  0  0  0  0  0
    6.2294    3.8098    0.6624 N   0  3  0  0  0  0  0  0  0  0  0  0
    8.0010    6.0891   -3.4606 C   0  0  1  0  0  0  0  0  0  0  0  0
    7.3529    7.4912   -3.3582 C   0  0  0  0  0  0  0  0  0  0  0  0
    6.1029    7.4465   -2.4388 C   0  0  1  0  0  0  0  0  0  0  0  0
    5.5416    8.8025   -2.2879 N   0  3  0  0  0  0  0  0  0  0  0  0
    5.0551    6.4435   -3.0024 C   0  0  1  0  0  0  0  0  0  0  0  0
    5.6712    5.0398   -3.2270 C   0  0  1  0  0  0  0  0  0  0  0  0
    4.6853    4.2663   -3.8947 O   0  0  0  0  0  0  0  0  0  0  0  0
    7.0034    5.0369   -4.0470 C   0  0  2  0  0  0  0  0  0  0  0  0
    9.2430    6.1625   -4.2502 N   0  3  0  0  0  0  0  0  0  0  0  0
    1.2653    6.2891   -0.6130 C   0  0  0  0  0  0  0  0  0  0  0  0
    0.4851    7.4941   -1.1933 C   0  0  2  0  0  0  0  0  0  0  0  0
   -0.6948    6.9723   -1.8029 O   0  0  0  0  0  0  0  0  0  0  0  0
    1.3824    8.2390   -2.2523 C   0  0  1  0  0  0  0  0  0  0  0  0
    2.0350    7.2648   -3.2911 C   0  0  2  0  0  0  0  0  0  0  0  0
    2.6463    5.9946   -2.6470 C   0  0  1  0  0  0  0  0  0  0  0  0
    3.9475    6.2821   -2.0709 O   0  0  0  0  0  0  0  0  0  0  0  0
    1.7358    5.4128   -1.6716 O   0  0  0  0  0  0  0  0  0  0  0  0
    3.0403    7.9200   -4.0601 O   0  0  0  0  0  0  0  0  0  0  0  0
    0.5766    9.2901   -2.9482 N   0  3  0  0  0  0  0  0  0  0  0  0
    0.8959   10.6976   -2.6338 C   0  0  0  0  0  0  0  0  0  0  0  0
    0.0350    8.4025   -0.0226 C   0  0  0  0  0  0  0  0  0  0  0  0
  1  8  1  0  0  0  0
  1  9  1  1  0  0  0
  1  2  1  0  0  0  0
  2  3  1  0  0  0  0
  3  5  1  0  0  0  0
  3  4  1  6  0  0  0
  5  7  1  0  0  0  0
  5  6  1  6  0  0  0
  7  8  1  0  0  0  0
  9 10  1  0  0  0  0
 11 12  1  0  0  0  0
 11 18  1  0  0  0  0
 11 19  1  6  0  0  0
 12 13  1  0  0  0  0
 13 15  1  0  0  0  0
 13 14  1  6  0  0  0
 15 16  1  0  0  0  0
 15 26  1  1  0  0  0
 16 18  1  0  0  0  0
 16 17  1  6  0  0  0
 18  4  1  1  0  0  0
 20 21  1  0  0  0  0
 20 27  1  0  0  0  0
 21 31  1  1  0  0  0
 21 23  1  0  0  0  0
 21 22  1  0  0  0  0
 23 24  1  0  0  0  0
 23 29  1  6  0  0  0
 24 25  1  0  0  0  0
 24 28  1  1  0  0  0
 25 27  1  0  0  0  0
 25 26  1  1  0  0  0
 29 30  1  0  0  0  0
M  CHG  5   6   1  10   1  14   1  19   1  29   1
M  END
>  <CHROM.1>
68.45853801,64.55441021,25.93334478,-178.50989369,-45.71890254,-162.51777606
-133.21000436,148.99712477,-73.84132055,177.49718599,-129.63167045,-166.18066761
-74.94020456,5.02079779,5.58965538,-2.48620399,0.46717060,-0.41866112,2.62609466

>  <Name>
1byj cryst

>  <RI>
0

>  <Rbt.Current_Directory>
/home/itssahil/PROJECTS/Mol_Feturizer/New_Systems/rnas/1byj

>  <Rbt.Executable>
rbdock ($Id: //depot/dev/client3/rdock/2013.1/src/exe/rbdock.cxx#4 $)

>  <Rbt.Library>
libRbt.so (2013.1, Build901 2013/11/27)

>  <Rbt.Parameter_File>
/export/apps/rDock/src/rDock_2013.1_src/data/scripts/dock_solv.prm

>  <Rbt.Receptor>
prm/pocket_docking_3.prm

>  <SCORE>
-46.5948

>  <SCORE.INTER>
-45.9137

>  <SCORE.INTER.CONST>
1

>  <SCORE.INTER.POLAR>
-7.03006

>  <SCORE.INTER.ROT>
6

>  <SCORE.INTER.SOLV>
24.3306

>  <SCORE.INTER.VDW>
-22.8858

>  <SCORE.INTER.norm>
-1.48109

>  <SCORE.INTRA>
-0.76096

>  <SCORE.INTRA.DIHEDRAL>
0.87961

>  <SCORE.INTRA.DIHEDRAL.0>
18.4149

>  <SCORE.INTRA.POLAR>
-0.763211

>  <SCORE.INTRA.POLAR.0>
0

>  <SCORE.INTRA.REPUL>
-0.092687

>  <SCORE.INTRA.REPUL.0>
0.092687

>  <SCORE.INTRA.SOLV>
0.307916

>  <SCORE.INTRA.SOLV.lig_0>
-120.37

>  <SCORE.INTRA.VDW>
1.70363

>  <SCORE.INTRA.VDW.0>
-1.75542

>  <SCORE.INTRA.norm>
-0.0245471

>  <SCORE.RESTR>
0.0798769

>  <SCORE.RESTR.CAVITY>
0.0798769

>  <SCORE.RESTR.norm>
0.00257667

>  <SCORE.SYSTEM>
0

>  <SCORE.SYSTEM.CONST>
0

>  <SCORE.SYSTEM.DIHEDRAL>
0

>  <SCORE.SYSTEM.SOLV>
0

>  <SCORE.SYSTEM.norm>
0

>  <SCORE.heavy>
31

>  <SCORE.norm>
-1.50306

>  <RMSD>
2.872

$$$$
1byj cryst
 OpenBabel11021811383D
libRbt.so/2013.1/901 2013/11/27
 31 33  0  0  0  0  0  0  0  0999 V2000
   10.0676    2.1735   -2.7124 C   0  0  1  0  0  0  0  0  0  0  0  0
    8.8505    1.9419   -3.4916 O   0  0  0  0  0  0  0  0  0  0  0  0
    7.5579    2.0925   -2.8318 C   0  0  2  0  0  0  0  0  0  0  0  0
    7.2972    3.4886   -2.4858 O   0  0  0  0  0  0  0  0  0  0  0  0
    7.5174    1.1852   -1.5647 C   0  0  2  0  0  0  0  0  0  0  0  0
    6.2415    1.2713   -0.8274 N   0  3  0  0  0  0  0  0  0  0  0  0
    8.7061    1.5248   -0.6289 C   0  0  0  0  0  0  0  0  0  0  0  0
   10.0458    1.3936   -1.3688 C   0  0  0  0  0  0  0  0  0  0  0  0
   11.2919    1.7340   -3.5345 C   0  0  0  0  0  0  0  0  0  0  0  0
   10.9890    1.4449   -4.9423 N   0  3  0  0  0  0  0  0  0  0  0  0
    6.8505    5.6087   -3.6590 C   0  0  1  0  0  0  0  0  0  0  0  0
    5.7764    6.4813   -4.3527 C   0  0  0  0  0  0  0  0  0  0  0  0
    4.5801    6.7336   -3.3962 C   0  0  1  0  0  0  0  0  0  0  0  0
    3.6014    7.6296   -4.0413 N   0  3  0  0  0  0  0  0  0  0  0  0
    3.9373    5.3822   -2.9693 C   0  0  1  0  0  0  0  0  0  0  0  0
    4.9856    4.4184   -2.3593 C   0  0  1  0  0  0  0  0  0  0  0  0
    4.3298    3.1736   -2.1686 O   0  0  0  0  0  0  0  0  0  0  0  0
    6.2720    4.2212   -3.2275 C   0  0  2  0  0  0  0  0  0  0  0  0
    8.0256    5.4609   -4.5358 N   0  3  0  0  0  0  0  0  0  0  0  0
    1.4909    8.2243   -1.3204 C   0  0  0  0  0  0  0  0  0  0  0  0
    0.7816    7.9893    0.0358 C   0  0  2  0  0  0  0  0  0  0  0  0
    1.3296    8.9275    0.9608 O   0  0  0  0  0  0  0  0  0  0  0  0
    1.0415    6.5111    0.5143 C   0  0  1  0  0  0  0  0  0  0  0  0
    2.5516    6.1019    0.4365 C   0  0  2  0  0  0  0  0  0  0  0  0
    3.2386    6.5246   -0.8868 C   0  0  1  0  0  0  0  0  0  0  0  0
    2.9132    5.5991   -1.9570 O   0  0  0  0  0  0  0  0  0  0  0  0
    2.9037    7.8979   -1.2345 O   0  0  0  0  0  0  0  0  0  0  0  0
    2.7211    4.6981    0.6148 O   0  0  0  0  0  0  0  0  0  0  0  0
    0.5161    6.3293    1.9033 N   0  3  0  0  0  0  0  0  0  0  0  0
    0.3678    4.9419    2.3880 C   0  0  0  0  0  0  0  0  0  0  0  0
   -0.7210    8.3269   -0.1264 C   0  0  0  0  0  0  0  0  0  0  0  0
  1  8  1  0  0  0  0
  1  9  1  6  0  0  0
  1  2  1  0  0  0  0
  2  3  1  0  0  0  0
  3  5  1  0  0  0  0
  3  4  1  1  0  0  0
  5  7  1  0  0  0  0
  5  6  1  1  0  0  0
  7  8  1  0  0  0  0
  9 10  1  0  0  0  0
 11 12  1  0  0  0  0
 11 18  1  0  0  0  0
 11 19  1  6  0  0  0
 12 13  1  0  0  0  0
 13 15  1  0  0  0  0
 13 14  1  6  0  0  0
 15 16  1  0  0  0  0
 15 26  1  1  0  0  0
 16 18  1  0  0  0  0
 16 17  1  6  0  0  0
 18  4  1  1  0  0  0
 20 21  1  0  0  0  0
 20 27  1  0  0  0  0
 21 31  1  6  0  0  0
 21 23  1  0  0  0  0
 21 22  1  0  0  0  0
 23 24  1  0  0  0  0
 23 29  1  1  0  0  0
 24 25  1  0  0  0  0
 24 28  1  6  0  0  0
 25 27  1  0  0  0  0
 25 26  1  6  0  0  0
 29 30  1  0  0  0  0
M  CHG  5   6   1  10   1  14   1  19   1  29   1
M  END
>  <CHROM.1>
10.92874158,109.16542609,-132.46273810,6.40952783,116.09055361,-164.32058890
-146.54336420,-43.91273097,56.67683155,179.18298992,-73.64693012,-77.18966189
-147.58237837,5.01973711,4.81785456,-1.73389021,0.13276269,-0.63101734,2.35630794

>  <Name>
1byj cryst

>  <RI>
0

>  <Rbt.Current_Directory>
/home/itssahil/PROJECTS/Mol_Feturizer/New_Systems/rnas/1byj

>  <Rbt.Executable>
rbdock ($Id: //depot/dev/client3/rdock/2013.1/src/exe/rbdock.cxx#4 $)

>  <Rbt.Library>
libRbt.so (2013.1, Build901 2013/11/27)

>  <Rbt.Parameter_File>
/export/apps/rDock/src/rDock_2013.1_src/data/scripts/dock_solv.prm

>  <Rbt.Receptor>
prm/pocket_docking_4.prm

>  <SCORE>
-34.7581

>  <SCORE.INTER>
-38.2578

>  <SCORE.INTER.CONST>
1

>  <SCORE.INTER.POLAR>
-4.90089

>  <SCORE.INTER.ROT>
6

>  <SCORE.INTER.SOLV>
24.8663

>  <SCORE.INTER.VDW>
-25.0577

>  <SCORE.INTER.norm>
-1.23412

>  <SCORE.INTRA>
3.49972

>  <SCORE.INTRA.DIHEDRAL>
16.6565

>  <SCORE.INTRA.DIHEDRAL.0>
18.4149

>  <SCORE.INTRA.POLAR>
-2.11531

>  <SCORE.INTRA.POLAR.0>
0

>  <SCORE.INTRA.REPUL>
-0.092687

>  <SCORE.INTRA.REPUL.0>
0.092687

>  <SCORE.INTRA.SOLV>
2.61527

>  <SCORE.INTRA.SOLV.lig_0>
-120.37

>  <SCORE.INTRA.VDW>
1.51933

>  <SCORE.INTRA.VDW.0>
-1.75542

>  <SCORE.INTRA.norm>
0.112894

>  <SCORE.RESTR>
0

>  <SCORE.RESTR.CAVITY>
0

>  <SCORE.RESTR.norm>
0

>  <SCORE.SYSTEM>
0

>  <SCORE.SYSTEM.CONST>
0

>  <SCORE.SYSTEM.DIHEDRAL>
0

>  <SCORE.SYSTEM.SOLV>
0

>  <SCORE.SYSTEM.norm>
0

>  <SCORE.heavy>
31

>  <SCORE.norm>
-1.12123

>  <RMSD>
2.876

$$$$
1byj cryst
 OpenBabel11021811383D
libRbt.so/2013.1/901 2013/11/27
 31 33  0  0  0  0  0  0  0  0999 V2000
    7.3122    2.3666   -1.1623 C   0  0  1  0  0  0  0  0  0  0  0  0
    8.1174    3.4808   -1.6647 O   0  0  0  0  0  0  0  0  0  0  0  0
    8.5840    3.4396   -3.0464 C   0  0  2  0  0  0  0  0  0  0  0  0
    7.4728    3.5713   -3.9869 O   0  0  0  0  0  0  0  0  0  0  0  0
    9.3662    2.1127   -3.2868 C   0  0  2  0  0  0  0  0  0  0  0  0
    9.8796    1.9807   -4.6645 N   0  3  0  0  0  0  0  0  0  0  0  0
    8.4754    0.8967   -2.9233 C   0  0  0  0  0  0  0  0  0  0  0  0
    7.9714    0.9951   -1.4757 C   0  0  0  0  0  0  0  0  0  0  0  0
    7.1361    2.5090    0.3598 C   0  0  0  0  0  0  0  0  0  0  0  0
    6.0644    3.4347    0.7495 N   0  3  0  0  0  0  0  0  0  0  0  0
    7.6752    5.9925   -3.5781 C   0  0  1  0  0  0  0  0  0  0  0  0
    6.9185    7.3407   -3.4982 C   0  0  0  0  0  0  0  0  0  0  0  0
    5.7448    7.2461   -2.4866 C   0  0  1  0  0  0  0  0  0  0  0  0
    5.0817    8.5582   -2.3625 N   0  3  0  0  0  0  0  0  0  0  0  0
    4.7494    6.1308   -2.9190 C   0  0  1  0  0  0  0  0  0  0  0  0
    5.4657    4.7716   -3.1183 C   0  0  1  0  0  0  0  0  0  0  0  0
    4.5050    3.8839   -3.6705 O   0  0  0  0  0  0  0  0  0  0  0  0
    6.7323    4.8312   -4.0345 C   0  0  2  0  0  0  0  0  0  0  0  0
    8.8477    6.1223   -4.4612 N   0  3  0  0  0  0  0  0  0  0  0  0
    1.1453    6.3348   -0.3230 C   0  0  0  0  0  0  0  0  0  0  0  0
    0.4235    7.5192   -1.0113 C   0  0  2  0  0  0  0  0  0  0  0  0
   -0.8261    7.0242   -1.4905 O   0  0  0  0  0  0  0  0  0  0  0  0
    1.3089    8.0540   -2.1994 C   0  0  1  0  0  0  0  0  0  0  0  0
    1.8244    6.9106   -3.1379 C   0  0  2  0  0  0  0  0  0  0  0  0
    2.3771    5.6832   -2.3698 C   0  0  1  0  0  0  0  0  0  0  0  0
    3.7280    5.9324   -1.9002 O   0  0  0  0  0  0  0  0  0  0  0  0
    1.4856    5.3006   -1.2845 O   0  0  0  0  0  0  0  0  0  0  0  0
    2.8279    7.3833   -4.0327 O   0  0  0  0  0  0  0  0  0  0  0  0
    0.5434    9.0741   -2.9815 N   0  3  0  0  0  0  0  0  0  0  0  0
    0.7459   10.4906   -2.6151 C   0  0  0  0  0  0  0  0  0  0  0  0
    0.1126    8.5972    0.0561 C   0  0  0  0  0  0  0  0  0  0  0  0
  1  8  1  0  0  0  0
  1  9  1  1  0  0  0
  1  2  1  0  0  0  0
  2  3  1  0  0  0  0
  3  5  1  0  0  0  0
  3  4  1  6  0  0  0
  5  7  1  0  0  0  0
  5  6  1  6  0  0  0
  7  8  1  0  0  0  0
  9 10  1  0  0  0  0
 11 12  1  0  0  0  0
 11 18  1  0  0  0  0
 11 19  1  6  0  0  0
 12 13  1  0  0  0  0
 13 15  1  0  0  0  0
 13 14  1  6  0  0  0
 15 16  1  0  0  0  0
 15 26  1  1  0  0  0
 16 18  1  0  0  0  0
 16 17  1  6  0  0  0
 18  4  1  1  0  0  0
 20 21  1  0  0  0  0
 20 27  1  0  0  0  0
 21 31  1  1  0  0  0
 21 23  1  0  0  0  0
 21 22  1  0  0  0  0
 23 24  1  0  0  0  0
 23 29  1  6  0  0  0
 24 25  1  0  0  0  0
 24 28  1  1  0  0  0
 25 27  1  0  0  0  0
 25 26  1  1  0  0  0
 29 30  1  0  0  0  0
M  CHG  5   6   1  10   1  14   1  19   1  29   1
M  END
>  <CHROM.1>
81.90556622,66.02789734,27.18759140,67.93424389,69.76505939,-176.28124781
100.85086535,141.01802054,-172.21435274,170.78512375,-144.68445118,-78.94943267
-64.08772677,4.87804608,5.43958885,-2.42067774,0.40779013,-0.47092652,2.51792054

>  <Name>
1byj cryst

>  <RI>
0

>  <Rbt.Current_Directory>
/home/itssahil/PROJECTS/Mol_Feturizer/New_Systems/rnas/1byj

>  <Rbt.Executable>
rbdock ($Id: //depot/dev/client3/rdock/2013.1/src/exe/rbdock.cxx#4 $)

>  <Rbt.Library>
libRbt.so (2013.1, Build901 2013/11/27)

>  <Rbt.Parameter_File>
/export/apps/rDock/src/rDock_2013.1_src/data/scripts/dock_solv.prm

>  <Rbt.Receptor>
prm/pocket_docking_8.prm

>  <SCORE>
-54.6666

>  <SCORE.INTER>
-53.2891

>  <SCORE.INTER.CONST>
1

>  <SCORE.INTER.POLAR>
-8.36521

>  <SCORE.INTER.ROT>
6

>  <SCORE.INTER.SOLV>
23.4546

>  <SCORE.INTER.VDW>
-23.0602

>  <SCORE.INTER.norm>
-1.719

>  <SCORE.INTRA>
-1.37747

>  <SCORE.INTRA.DIHEDRAL>
0.653783

>  <SCORE.INTRA.DIHEDRAL.0>
18.4149

>  <SCORE.INTRA.POLAR>
-1.08028

>  <SCORE.INTRA.POLAR.0>
0

>  <SCORE.INTRA.REPUL>
-0.092687

>  <SCORE.INTRA.REPUL.0>
0.092687

>  <SCORE.INTRA.SOLV>
1.28993

>  <SCORE.INTRA.SOLV.lig_0>
-120.37

>  <SCORE.INTRA.VDW>
1.78705

>  <SCORE.INTRA.VDW.0>
-1.75542

>  <SCORE.INTRA.norm>
-0.0444346

>  <SCORE.RESTR>
0

>  <SCORE.RESTR.CAVITY>
0

>  <SCORE.RESTR.norm>
0

>  <SCORE.SYSTEM>
0

>  <SCORE.SYSTEM.CONST>
0

>  <SCORE.SYSTEM.DIHEDRAL>
0

>  <SCORE.SYSTEM.SOLV>
0

>  <SCORE.SYSTEM.norm>
0

>  <SCORE.heavy>
31

>  <SCORE.norm>
-1.76344

>  <RMSD>
2.876

$$$$
1byj cryst
 OpenBabel11021811383D
libRbt.so/2013.1/901 2013/11/27
 31 33  0  0  0  0  0  0  0  0999 V2000
    6.3321    3.2168   -0.5496 C   0  0  1  0  0  0  0  0  0  0  0  0
    7.3604    3.9501   -1.2892 O   0  0  0  0  0  0  0  0  0  0  0  0
    7.9428    3.3329   -2.4760 C   0  0  2  0  0  0  0  0  0  0  0  0
    6.9654    3.2357   -3.5587 O   0  0  0  0  0  0  0  0  0  0  0  0
    8.5056    1.9278   -2.1026 C   0  0  2  0  0  0  0  0  0  0  0  0
    9.1179    1.2231   -3.2460 N   0  3  0  0  0  0  0  0  0  0  0  0
    7.3892    1.0592   -1.4675 C   0  0  0  0  0  0  0  0  0  0  0  0
    6.7737    1.7584   -0.2461 C   0  0  0  0  0  0  0  0  0  0  0  0
    6.0386    3.9440    0.7744 C   0  0  0  0  0  0  0  0  0  0  0  0
    5.6274    5.3438    0.6045 N   0  3  0  0  0  0  0  0  0  0  0  0
    7.5118    5.5558   -4.1824 C   0  0  1  0  0  0  0  0  0  0  0  0
    6.9454    6.9182   -4.6511 C   0  0  0  0  0  0  0  0  0  0  0  0
    5.8487    7.4168   -3.6720 C   0  0  1  0  0  0  0  0  0  0  0  0
    5.3735    8.7504   -4.0872 N   0  3  0  0  0  0  0  0  0  0  0  0
    4.6868    6.3845   -3.5936 C   0  0  1  0  0  0  0  0  0  0  0  0
    5.2029    4.9701   -3.2285 C   0  0  1  0  0  0  0  0  0  0  0  0
    4.0959    4.0897   -3.3532 O   0  0  0  0  0  0  0  0  0  0  0  0
    6.3940    4.4645   -4.1077 C   0  0  2  0  0  0  0  0  0  0  0  0
    8.6215    5.1410   -5.0587 N   0  3  0  0  0  0  0  0  0  0  0  0
    1.3414    6.7728   -0.6637 C   0  0  0  0  0  0  0  0  0  0  0  0
    0.6407    8.1357   -0.8850 C   0  0  2  0  0  0  0  0  0  0  0  0
   -0.6801    7.8552   -1.3464 O   0  0  0  0  0  0  0  0  0  0  0  0
    1.4434    8.9708   -1.9525 C   0  0  1  0  0  0  0  0  0  0  0  0
    1.7867    8.1458   -3.2391 C   0  0  2  0  0  0  0  0  0  0  0  0
    2.3242    6.7242   -2.9359 C   0  0  1  0  0  0  0  0  0  0  0  0
    3.7278    6.7696   -2.5677 O   0  0  0  0  0  0  0  0  0  0  0  0
    1.5162    6.0652   -1.9201 O   0  0  0  0  0  0  0  0  0  0  0  0
    2.7304    8.8289   -4.0601 O   0  0  0  0  0  0  0  0  0  0  0  0
    0.6789   10.2072   -2.3066 N   0  3  0  0  0  0  0  0  0  0  0  0
    1.4674   11.4124   -2.6347 C   0  0  0  0  0  0  0  0  0  0  0  0
    0.5083    8.8519    0.4816 C   0  0  0  0  0  0  0  0  0  0  0  0
  1  8  1  0  0  0  0
  1  9  1  1  0  0  0
  1  2  1  0  0  0  0
  2  3  1  0  0  0  0
  3  5  1  0  0  0  0
  3  4  1  6  0  0  0
  5  7  1  0  0  0  0
  5  6  1  6  0  0  0
  7  8  1  0  0  0  0
  9 10  1  0  0  0  0
 11 12  1  0  0  0  0
 11 18  1  0  0  0  0
 11 19  1  6  0  0  0
 12 13  1  0  0  0  0
 13 15  1  0  0  0  0
 13 14  1  6  0  0  0
 15 16  1  0  0  0  0
 15 26  1  1  0  0  0
 16 18  1  0  0  0  0
 16 17  1  6  0  0  0
 18  4  1  1  0  0  0
 20 21  1  0  0  0  0
 20 27  1  0  0  0  0
 21 31  1  1  0  0  0
 21 23  1  0  0  0  0
 21 22  1  0  0  0  0
 23 24  1  0  0  0  0
 23 29  1  6  0  0  0
 24 25  1  0  0  0  0
 24 28  1  1  0  0  0
 25 27  1  0  0  0  0
 25 26  1  1  0  0  0
 29 30  1  0  0  0  0
M  CHG  5   6   1  10   1  14   1  19   1  29   1
M  END
>  <CHROM.1>
56.71734956,62.07212213,38.69656001,-55.24458855,75.09312080,-100.60726188
-59.96005626,133.13180989,-177.20059641,59.49799193,-92.12621492,-64.38976564
-101.95875912,4.63852916,5.87558936,-2.38701615,0.45958089,-0.59917693,2.37247588

>  <Name>
1byj cryst

>  <RI>
0

>  <Rbt.Current_Directory>
/home/itssahil/PROJECTS/Mol_Feturizer/New_Systems/rnas/1byj

>  <Rbt.Executable>
rbdock ($Id: //depot/dev/client3/rdock/2013.1/src/exe/rbdock.cxx#4 $)

>  <Rbt.Library>
libRbt.so (2013.1, Build901 2013/11/27)

>  <Rbt.Parameter_File>
/export/apps/rDock/src/rDock_2013.1_src/data/scripts/dock_solv.prm

>  <Rbt.Receptor>
prm/pocket_docking_3.prm

>  <SCORE>
-41.492

>  <SCORE.INTER>
-40.1328

>  <SCORE.INTER.CONST>
1

>  <SCORE.INTER.POLAR>
-6.20715

>  <SCORE.INTER.ROT>
6

>  <SCORE.INTER.SOLV>
24.3143

>  <SCORE.INTER.VDW>
-21.7694

>  <SCORE.INTER.norm>
-1.29461

>  <SCORE.INTRA>
-1.37191

>  <SCORE.INTRA.DIHEDRAL>
1.52753

>  <SCORE.INTRA.DIHEDRAL.0>
18.4149

>  <SCORE.INTRA.POLAR>
-0.380492

>  <SCORE.INTRA.POLAR.0>
0

>  <SCORE.INTRA.REPUL>
-0.092687

>  <SCORE.INTRA.REPUL.0>
0.092687

>  <SCORE.INTRA.SOLV>
1.498

>  <SCORE.INTRA.SOLV.lig_0>
-120.37

>  <SCORE.INTRA.VDW>
-1.12757

>  <SCORE.INTRA.VDW.0>
-1.75542

>  <SCORE.INTRA.norm>
-0.0442553

>  <SCORE.RESTR>
0.0126706

>  <SCORE.RESTR.CAVITY>
0.0126706

>  <SCORE.RESTR.norm>
0.00040873

>  <SCORE.SYSTEM>
0

>  <SCORE.SYSTEM.CONST>
0

>  <SCORE.SYSTEM.DIHEDRAL>
0

>  <SCORE.SYSTEM.SOLV>
0

>  <SCORE.SYSTEM.norm>
0

>  <SCORE.heavy>
31

>  <SCORE.norm>
-1.33845

>  <RMSD>
2.878

$$$$
1byj cryst
 OpenBabel11021811383D
libRbt.so/2013.1/901 2013/11/27
 31 33  0  0  0  0  0  0  0  0999 V2000
    7.5793    2.2134   -1.1589 C   0  0  1  0  0  0  0  0  0  0  0  0
    8.4135    3.3220   -1.6249 O   0  0  0  0  0  0  0  0  0  0  0  0
    8.8324    3.3432   -3.0223 C   0  0  2  0  0  0  0  0  0  0  0  0
    7.6973    3.5740   -3.9140 O   0  0  0  0  0  0  0  0  0  0  0  0
    9.5499    2.0025   -3.3655 C   0  0  2  0  0  0  0  0  0  0  0  0
   10.0118    1.9310   -4.7657 N   0  3  0  0  0  0  0  0  0  0  0  0
    8.6215    0.8038   -3.0410 C   0  0  0  0  0  0  0  0  0  0  0  0
    8.1699    0.8374   -1.5731 C   0  0  0  0  0  0  0  0  0  0  0  0
    7.4595    2.2734    0.3741 C   0  0  0  0  0  0  0  0  0  0  0  0
    8.7516    2.2479    1.0721 N   0  3  0  0  0  0  0  0  0  0  0  0
    8.3586    5.9320   -3.6441 C   0  0  1  0  0  0  0  0  0  0  0  0
    7.9056    7.4068   -3.7715 C   0  0  0  0  0  0  0  0  0  0  0  0
    6.6141    7.6520   -2.9458 C   0  0  1  0  0  0  0  0  0  0  0  0
    6.2380    9.0771   -3.0130 N   0  3  0  0  0  0  0  0  0  0  0  0
    5.4695    6.7249   -3.4478 C   0  0  1  0  0  0  0  0  0  0  0  0
    5.8971    5.2358   -3.4434 C   0  0  1  0  0  0  0  0  0  0  0  0
    4.8511    4.5115   -4.0736 O   0  0  0  0  0  0  0  0  0  0  0  0
    7.2581    4.9469   -4.1587 C   0  0  2  0  0  0  0  0  0  0  0  0
    9.6392    5.7339   -4.3458 N   0  3  0  0  0  0  0  0  0  0  0  0
    1.6023    6.4378   -1.2173 C   0  0  0  0  0  0  0  0  0  0  0  0
    0.8496    7.7796   -1.3919 C   0  0  2  0  0  0  0  0  0  0  0  0
   -0.3311    7.5005   -2.1431 O   0  0  0  0  0  0  0  0  0  0  0  0
    1.7724    8.8030   -2.1551 C   0  0  1  0  0  0  0  0  0  0  0  0
    2.4217    8.1943   -3.4443 C   0  0  2  0  0  0  0  0  0  0  0  0
    3.0037    6.7739   -3.2308 C   0  0  1  0  0  0  0  0  0  0  0  0
    4.3021    6.8388   -2.5847 O   0  0  0  0  0  0  0  0  0  0  0  0
    2.0715    5.9318   -2.4955 O   0  0  0  0  0  0  0  0  0  0  0  0
    3.4473    9.0389   -3.9601 O   0  0  0  0  0  0  0  0  0  0  0  0
    0.9931   10.0359   -2.4883 N   0  3  0  0  0  0  0  0  0  0  0  0
    1.7660   11.2348   -2.8717 C   0  0  0  0  0  0  0  0  0  0  0  0
    0.4001    8.2802    0.0029 C   0  0  0  0  0  0  0  0  0  0  0  0
  1  8  1  0  0  0  0
  1  9  1  1  0  0  0
  1  2  1  0  0  0  0
  2  3  1  0  0  0  0
  3  5  1  0  0  0  0
  3  4  1  6  0  0  0
  5  7  1  0  0  0  0
  5  6  1  6  0  0  0
  7  8  1  0  0  0  0
  9 10  1  0  0  0  0
 11 12  1  0  0  0  0
 11 18  1  0  0  0  0
 11 19  1  6  0  0  0
 12 13  1  0  0  0  0
 13 15  1  0  0  0  0
 13 14  1  6  0  0  0
 15 16  1  0  0  0  0
 15 26  1  1  0  0  0
 16 18  1  0  0  0  0
 16 17  1  6  0  0  0
 18  4  1  1  0  0  0
 20 21  1  0  0  0  0
 20 27  1  0  0  0  0
 21 31  1  1  0  0  0
 21 23  1  0  0  0  0
 21 22  1  0  0  0  0
 23 24  1  0  0  0  0
 23 29  1  6  0  0  0
 24 25  1  0  0  0  0
 24 28  1  1  0  0  0
 25 27  1  0  0  0  0
 25 26  1  1  0  0  0
 29 30  1  0  0  0  0
M  CHG  5   6   1  10   1  14   1  19   1  29   1
M  END
>  <CHROM.1>
-56.89512835,83.79602647,13.53738372,-56.55981003,177.62116596,-37.99874677
36.57893055,143.23924784,-174.24225798,-179.97079423,-74.90902479,-177.40363572
-99.02470202,5.47135625,5.71499300,-2.65097997,0.55474670,-0.44472203,2.57759971

>  <Name>
1byj cryst

>  <RI>
0

>  <Rbt.Current_Directory>
/home/itssahil/PROJECTS/Mol_Feturizer/New_Systems/rnas/1byj

>  <Rbt.Executable>
rbdock ($Id: //depot/dev/client3/rdock/2013.1/src/exe/rbdock.cxx#4 $)

>  <Rbt.Library>
libRbt.so (2013.1, Build901 2013/11/27)

>  <Rbt.Parameter_File>
/export/apps/rDock/src/rDock_2013.1_src/data/scripts/dock_solv.prm

>  <Rbt.Receptor>
prm/pocket_docking_5.prm

>  <SCORE>
-52.9106

>  <SCORE.INTER>
-54.2476

>  <SCORE.INTER.CONST>
1

>  <SCORE.INTER.POLAR>
-8.14311

>  <SCORE.INTER.ROT>
6

>  <SCORE.INTER.SOLV>
26.7858

>  <SCORE.INTER.VDW>
-25.55

>  <SCORE.INTER.norm>
-1.74992

>  <SCORE.INTRA>
1.33699

>  <SCORE.INTRA.DIHEDRAL>
3.84015

>  <SCORE.INTRA.DIHEDRAL.0>
18.4149

>  <SCORE.INTRA.POLAR>
-0.846111

>  <SCORE.INTRA.POLAR.0>
0

>  <SCORE.INTRA.REPUL>
-0.092687

>  <SCORE.INTRA.REPUL.0>
0.092687

>  <SCORE.INTRA.SOLV>
2.9672

>  <SCORE.INTRA.SOLV.lig_0>
-120.37

>  <SCORE.INTRA.VDW>
1.27353

>  <SCORE.INTRA.VDW.0>
-1.75542

>  <SCORE.INTRA.norm>
0.0431288

>  <SCORE.RESTR>
0

>  <SCORE.RESTR.CAVITY>
0

>  <SCORE.RESTR.norm>
0

>  <SCORE.SYSTEM>
0

>  <SCORE.SYSTEM.CONST>
0

>  <SCORE.SYSTEM.DIHEDRAL>
0

>  <SCORE.SYSTEM.SOLV>
0

>  <SCORE.SYSTEM.norm>
0

>  <SCORE.heavy>
31

>  <SCORE.norm>
-1.70679

>  <RMSD>
2.899

$$$$
1byj cryst
 OpenBabel11021811383D
libRbt.so/2013.1/901 2013/11/27
 31 33  0  0  0  0  0  0  0  0999 V2000
    9.5196    1.5619   -3.4571 C   0  0  1  0  0  0  0  0  0  0  0  0
    8.1142    1.8835   -3.7094 O   0  0  0  0  0  0  0  0  0  0  0  0
    7.3991    2.7048   -2.7384 C   0  0  2  0  0  0  0  0  0  0  0  0
    7.9065    4.0756   -2.7255 O   0  0  0  0  0  0  0  0  0  0  0  0
    7.5145    2.0522   -1.3273 C   0  0  2  0  0  0  0  0  0  0  0  0
    6.8181    2.8164   -0.2737 N   0  3  0  0  0  0  0  0  0  0  0  0
    9.0060    1.8525   -0.9538 C   0  0  0  0  0  0  0  0  0  0  0  0
    9.7343    1.0177   -2.0178 C   0  0  0  0  0  0  0  0  0  0  0  0
    9.9931    0.5083   -4.4739 C   0  0  0  0  0  0  0  0  0  0  0  0
    9.5627    0.7777   -5.8521 N   0  3  0  0  0  0  0  0  0  0  0  0
    8.1957    6.3372   -3.6592 C   0  0  1  0  0  0  0  0  0  0  0  0
    7.5370    7.4726   -4.4800 C   0  0  0  0  0  0  0  0  0  0  0  0
    6.1801    7.8836   -3.8479 C   0  0  1  0  0  0  0  0  0  0  0  0
    5.6014    9.0174   -4.5938 N   0  3  0  0  0  0  0  0  0  0  0  0
    5.2147    6.6639   -3.8041 C   0  0  1  0  0  0  0  0  0  0  0  0
    5.8571    5.4525   -3.0829 C   0  0  1  0  0  0  0  0  0  0  0  0
    4.9660    4.3601   -3.2526 O   0  0  0  0  0  0  0  0  0  0  0  0
    7.2831    5.0685   -3.5991 C   0  0  2  0  0  0  0  0  0  0  0  0
    9.5281    6.0254   -4.2059 N   0  3  0  0  0  0  0  0  0  0  0  0
    3.0387    9.8703   -2.6798 C   0  0  0  0  0  0  0  0  0  0  0  0
    1.9001    9.7821   -1.6341 C   0  0  2  0  0  0  0  0  0  0  0  0
    2.3097   10.5538   -0.5059 O   0  0  0  0  0  0  0  0  0  0  0  0
    1.6729    8.2760   -1.2321 C   0  0  1  0  0  0  0  0  0  0  0  0
    3.0052    7.5322   -0.8775 C   0  0  2  0  0  0  0  0  0  0  0  0
    4.1525    7.8077   -1.8822 C   0  0  1  0  0  0  0  0  0  0  0  0
    3.9977    6.9995   -3.0783 O   0  0  0  0  0  0  0  0  0  0  0  0
    4.2464    9.2267   -2.1927 O   0  0  0  0  0  0  0  0  0  0  0  0
    2.8064    6.1242   -0.7810 O   0  0  0  0  0  0  0  0  0  0  0  0
    0.7050    8.1967   -0.0941 N   0  3  0  0  0  0  0  0  0  0  0  0
   -0.7322    8.1912   -0.4351 C   0  0  0  0  0  0  0  0  0  0  0  0
    0.6363   10.4584   -2.2201 C   0  0  0  0  0  0  0  0  0  0  0  0
  1  8  1  0  0  0  0
  1  9  1  6  0  0  0
  1  2  1  0  0  0  0
  2  3  1  0  0  0  0
  3  5  1  0  0  0  0
  3  4  1  1  0  0  0
  5  7  1  0  0  0  0
  5  6  1  1  0  0  0
  7  8  1  0  0  0  0
  9 10  1  0  0  0  0
 11 12  1  0  0  0  0
 11 18  1  0  0  0  0
 11 19  1  6  0  0  0
 12 13  1  0  0  0  0
 13 15  1  0  0  0  0
 13 14  1  6  0  0  0
 15 16  1  0  0  0  0
 15 26  1  1  0  0  0
 16 18  1  0  0  0  0
 16 17  1  6  0  0  0
 18  4  1  1  0  0  0
 20 21  1  0  0  0  0
 20 27  1  0  0  0  0
 21 31  1  6  0  0  0
 21 23  1  0  0  0  0
 21 22  1  0  0  0  0
 23 24  1  0  0  0  0
 23 29  1  1  0  0  0
 24 25  1  0  0  0  0
 24 28  1  6  0  0  0
 25 27  1  0  0  0  0
 25 26  1  6  0  0  0
 29 30  1  0  0  0  0
M  CHG  5   6   1  10   1  14   1  19   1  29   1
M  END
>  <CHROM.1>
44.28875631,91.24879746,-166.75241559,-58.53897669,16.59604980,-142.93034977
102.63892023,-40.30704284,-168.36568544,-59.53597591,-153.61157203,-62.88888320
-152.56069854,5.58780942,5.82627226,-2.56740130,0.55318117,-0.61343924,2.65658890

>  <Name>
1byj cryst

>  <RI>
0

>  <Rbt.Current_Directory>
/home/itssahil/PROJECTS/Mol_Feturizer/New_Systems/rnas/1byj

>  <Rbt.Executable>
rbdock ($Id: //depot/dev/client3/rdock/2013.1/src/exe/rbdock.cxx#4 $)

>  <Rbt.Library>
libRbt.so (2013.1, Build901 2013/11/27)

>  <Rbt.Parameter_File>
/export/apps/rDock/src/rDock_2013.1_src/data/scripts/dock_solv.prm

>  <Rbt.Receptor>
prm/pocket_docking_5.prm

>  <SCORE>
-43.1864

>  <SCORE.INTER>
-43.9604

>  <SCORE.INTER.CONST>
1

>  <SCORE.INTER.POLAR>
-6.1985

>  <SCORE.INTER.ROT>
6

>  <SCORE.INTER.SOLV>
28.5865

>  <SCORE.INTER.VDW>
-25.7741

>  <SCORE.INTER.norm>
-1.41808

>  <SCORE.INTRA>
0.774053

>  <SCORE.INTRA.DIHEDRAL>
2.6054

>  <SCORE.INTRA.DIHEDRAL.0>
18.4149

>  <SCORE.INTRA.POLAR>
-0.53078

>  <SCORE.INTRA.POLAR.0>
0

>  <SCORE.INTRA.REPUL>
-0.092687

>  <SCORE.INTRA.REPUL.0>
0.092687

>  <SCORE.INTRA.SOLV>
-0.00440221

>  <SCORE.INTRA.SOLV.lig_0>
-120.37

>  <SCORE.INTRA.VDW>
1.74164

>  <SCORE.INTRA.VDW.0>
-1.75542

>  <SCORE.INTRA.norm>
0.0249694

>  <SCORE.RESTR>
0

>  <SCORE.RESTR.CAVITY>
0

>  <SCORE.RESTR.norm>
0

>  <SCORE.SYSTEM>
0

>  <SCORE.SYSTEM.CONST>
0

>  <SCORE.SYSTEM.DIHEDRAL>
0

>  <SCORE.SYSTEM.SOLV>
0

>  <SCORE.SYSTEM.norm>
0

>  <SCORE.heavy>
31

>  <SCORE.norm>
-1.39311

>  <RMSD>
2.901

$$$$
1byj cryst
 OpenBabel11021811383D
libRbt.so/2013.1/901 2013/11/27
 31 33  0  0  0  0  0  0  0  0999 V2000
    7.1761    2.1707   -1.6021 C   0  0  1  0  0  0  0  0  0  0  0  0
    8.1033    3.2851   -1.8031 O   0  0  0  0  0  0  0  0  0  0  0  0
    8.7283    3.4481   -3.1113 C   0  0  2  0  0  0  0  0  0  0  0  0
    7.7479    3.8338   -4.1245 O   0  0  0  0  0  0  0  0  0  0  0  0
    9.4495    2.1236   -3.5063 C   0  0  2  0  0  0  0  0  0  0  0  0
   10.1148    2.1929   -4.8222 N   0  3  0  0  0  0  0  0  0  0  0  0
    8.4478    0.9407   -3.4689 C   0  0  0  0  0  0  0  0  0  0  0  0
    7.7815    0.8255   -2.0897 C   0  0  0  0  0  0  0  0  0  0  0  0
    6.8285    2.0585   -0.1072 C   0  0  0  0  0  0  0  0  0  0  0  0
    5.7888    1.0638    0.1876 N   0  3  0  0  0  0  0  0  0  0  0  0
    8.2185    6.1524   -3.4367 C   0  0  1  0  0  0  0  0  0  0  0  0
    7.6323    7.5739   -3.2567 C   0  0  0  0  0  0  0  0  0  0  0  0
    6.3800    7.5334   -2.3403 C   0  0  1  0  0  0  0  0  0  0  0  0
    5.8784    8.9024   -2.1144 N   0  3  0  0  0  0  0  0  0  0  0  0
    5.2902    6.6100   -2.9578 C   0  0  1  0  0  0  0  0  0  0  0  0
    5.8444    5.1952   -3.2600 C   0  0  1  0  0  0  0  0  0  0  0  0
    4.8268    4.5037   -3.9687 O   0  0  0  0  0  0  0  0  0  0  0  0
    7.1768    5.1790   -4.0797 C   0  0  2  0  0  0  0  0  0  0  0  0
    9.4639    6.2147   -4.2219 N   0  3  0  0  0  0  0  0  0  0  0  0
    1.4975    6.2215   -0.5865 C   0  0  0  0  0  0  0  0  0  0  0  0
    0.6048    7.3294   -1.1977 C   0  0  2  0  0  0  0  0  0  0  0  0
   -0.5143    6.6789   -1.7981 O   0  0  0  0  0  0  0  0  0  0  0  0
    1.4296    8.1344   -2.2715 C   0  0  1  0  0  0  0  0  0  0  0  0
    2.1809    7.2056   -3.2848 C   0  0  2  0  0  0  0  0  0  0  0  0
    2.9116    6.0177   -2.6088 C   0  0  1  0  0  0  0  0  0  0  0  0
    4.1749    6.4462   -2.0359 O   0  0  0  0  0  0  0  0  0  0  0  0
    2.0581    5.3716   -1.6224 O   0  0  0  0  0  0  0  0  0  0  0  0
    3.1204    7.9389   -4.0663 O   0  0  0  0  0  0  0  0  0  0  0  0
    0.5274    9.0838   -2.9947 N   0  3  0  0  0  0  0  0  0  0  0  0
    0.6344   10.5135   -2.6389 C   0  0  0  0  0  0  0  0  0  0  0  0
    0.0609    8.2159   -0.0504 C   0  0  0  0  0  0  0  0  0  0  0  0
  1  8  1  0  0  0  0
  1  9  1  1  0  0  0
  1  2  1  0  0  0  0
  2  3  1  0  0  0  0
  3  5  1  0  0  0  0
  3  4  1  6  0  0  0
  5  7  1  0  0  0  0
  5  6  1  6  0  0  0
  7  8  1  0  0  0  0
  9 10  1  0  0  0  0
 11 12  1  0  0  0  0
 11 18  1  0  0  0  0
 11 19  1  6  0  0  0
 12 13  1  0  0  0  0
 13 15  1  0  0  0  0
 13 14  1  6  0  0  0
 15 16  1  0  0  0  0
 15 26  1  1  0  0  0
 16 18  1  0  0  0  0
 16 17  1  6  0  0  0
 18  4  1  1  0  0  0
 20 21  1  0  0  0  0
 20 27  1  0  0  0  0
 21 31  1  1  0  0  0
 21 23  1  0  0  0  0
 21 22  1  0  0  0  0
 23 24  1  0  0  0  0
 23 29  1  6  0  0  0
 24 25  1  0  0  0  0
 24 28  1  1  0  0  0
 25 27  1  0  0  0  0
 25 26  1  1  0  0  0
 29 30  1  0  0  0  0
M  CHG  5   6   1  10   1  14   1  19   1  29   1
M  END
>  <CHROM.1>
173.64070065,70.82172171,28.90564090,-178.31355215,-74.75883341,-46.06353200
-172.19694914,159.45303887,-171.53467067,58.92733143,-134.08084308,-61.61129067
-78.84612433,5.12943805,5.45717809,-2.56946448,0.51716682,-0.38129843,2.74711256

>  <Name>
1byj cryst

>  <RI>
0

>  <Rbt.Current_Directory>
/home/itssahil/PROJECTS/Mol_Feturizer/New_Systems/rnas/1byj

>  <Rbt.Executable>
rbdock ($Id: //depot/dev/client3/rdock/2013.1/src/exe/rbdock.cxx#4 $)

>  <Rbt.Library>
libRbt.so (2013.1, Build901 2013/11/27)

>  <Rbt.Parameter_File>
/export/apps/rDock/src/rDock_2013.1_src/data/scripts/dock_solv.prm

>  <Rbt.Receptor>
prm/pocket_docking_4.prm

>  <SCORE>
-47.4934

>  <SCORE.INTER>
-44.1238

>  <SCORE.INTER.CONST>
1

>  <SCORE.INTER.POLAR>
-7.25285

>  <SCORE.INTER.ROT>
6

>  <SCORE.INTER.SOLV>
29.1473

>  <SCORE.INTER.VDW>
-22.5555

>  <SCORE.INTER.norm>
-1.42335

>  <SCORE.INTRA>
-3.36956

>  <SCORE.INTRA.DIHEDRAL>
-5.54225

>  <SCORE.INTRA.DIHEDRAL.0>
18.4149

>  <SCORE.INTRA.POLAR>
-0.0807428

>  <SCORE.INTRA.POLAR.0>
0

>  <SCORE.INTRA.REPUL>
-0.092687

>  <SCORE.INTRA.REPUL.0>
0.092687

>  <SCORE.INTRA.SOLV>
-0.688795

>  <SCORE.INTRA.SOLV.lig_0>
-120.37

>  <SCORE.INTRA.VDW>
0.48392

>  <SCORE.INTRA.VDW.0>
-1.75542

>  <SCORE.INTRA.norm>
-0.108696

>  <SCORE.RESTR>
0

>  <SCORE.RESTR.CAVITY>
0

>  <SCORE.RESTR.norm>
0

>  <SCORE.SYSTEM>
0

>  <SCORE.SYSTEM.CONST>
0

>  <SCORE.SYSTEM.DIHEDRAL>
0

>  <SCORE.SYSTEM.SOLV>
0

>  <SCORE.SYSTEM.norm>
0

>  <SCORE.heavy>
31

>  <SCORE.norm>
-1.53204

>  <RMSD>
2.909

$$$$
1byj cryst
 OpenBabel11021811383D
libRbt.so/2013.1/901 2013/11/27
 31 33  0  0  0  0  0  0  0  0999 V2000
    7.7994    1.9244   -0.7325 C   0  0  1  0  0  0  0  0  0  0  0  0
    8.2056    3.1942   -1.3365 O   0  0  0  0  0  0  0  0  0  0  0  0
    8.4532    3.2380   -2.7736 C   0  0  2  0  0  0  0  0  0  0  0  0
    7.2168    3.0558   -3.5318 O   0  0  0  0  0  0  0  0  0  0  0  0
    9.5049    2.1499   -3.1486 C   0  0  2  0  0  0  0  0  0  0  0  0
    9.8211    2.1180   -4.5902 N   0  3  0  0  0  0  0  0  0  0  0  0
    9.0222    0.7563   -2.6703 C   0  0  0  0  0  0  0  0  0  0  0  0
    8.7342    0.7600   -1.1615 C   0  0  0  0  0  0  0  0  0  0  0  0
    7.8244    2.0567    0.8005 C   0  0  0  0  0  0  0  0  0  0  0  0
    6.7672    2.9226    1.3389 N   0  3  0  0  0  0  0  0  0  0  0  0
    7.3919    5.4448   -4.1087 C   0  0  1  0  0  0  0  0  0  0  0  0
    6.6091    6.7522   -4.3814 C   0  0  0  0  0  0  0  0  0  0  0  0
    5.6768    7.0870   -3.1862 C   0  0  1  0  0  0  0  0  0  0  0  0
    4.9962    8.3740   -3.4251 N   0  3  0  0  0  0  0  0  0  0  0  0
    4.6639    5.9290   -2.9522 C   0  0  1  0  0  0  0  0  0  0  0  0
    5.3829    4.5682   -2.7748 C   0  0  1  0  0  0  0  0  0  0  0  0
    4.3688    3.5749   -2.7413 O   0  0  0  0  0  0  0  0  0  0  0  0
    6.4273    4.2332   -3.8902 C   0  0  2  0  0  0  0  0  0  0  0  0
    8.3481    5.1908   -5.2007 N   0  3  0  0  0  0  0  0  0  0  0  0
    1.7532    6.9461    0.2955 C   0  0  0  0  0  0  0  0  0  0  0  0
    0.8503    7.9752   -0.4279 C   0  0  2  0  0  0  0  0  0  0  0  0
   -0.4626    7.4182   -0.4736 O   0  0  0  0  0  0  0  0  0  0  0  0
    1.4041    8.2288   -1.8806 C   0  0  1  0  0  0  0  0  0  0  0  0
    1.7105    6.9027   -2.6562 C   0  0  2  0  0  0  0  0  0  0  0  0
    2.4702    5.8521   -1.8069 C   0  0  1  0  0  0  0  0  0  0  0  0
    3.8865    6.1646   -1.7436 O   0  0  0  0  0  0  0  0  0  0  0  0
    1.8810    5.7257   -0.4819 O   0  0  0  0  0  0  0  0  0  0  0  0
    2.4519    7.1546   -3.8470 O   0  0  0  0  0  0  0  0  0  0  0  0
    0.4410    9.0785   -2.6479 N   0  3  0  0  0  0  0  0  0  0  0  0
    0.5391   10.5404   -2.4600 C   0  0  0  0  0  0  0  0  0  0  0  0
    0.7755    9.2599    0.4335 C   0  0  0  0  0  0  0  0  0  0  0  0
  1  8  1  0  0  0  0
  1  9  1  1  0  0  0
  1  2  1  0  0  0  0
  2  3  1  0  0  0  0
  3  5  1  0  0  0  0
  3  4  1  6  0  0  0
  5  7  1  0  0  0  0
  5  6  1  6  0  0  0
  7  8  1  0  0  0  0
  9 10  1  0  0  0  0
 11 12  1  0  0  0  0
 11 18  1  0  0  0  0
 11 19  1  6  0  0  0
 12 13  1  0  0  0  0
 13 15  1  0  0  0  0
 13 14  1  6  0  0  0
 15 16  1  0  0  0  0
 15 26  1  1  0  0  0
 16 18  1  0  0  0  0
 16 17  1  6  0  0  0
 18  4  1  1  0  0  0
 20 21  1  0  0  0  0
 20 27  1  0  0  0  0
 21 31  1  1  0  0  0
 21 23  1  0  0  0  0
 21 22  1  0  0  0  0
 23 24  1  0  0  0  0
 23 29  1  6  0  0  0
 24 25  1  0  0  0  0
 24 28  1  6  0  0  0
 25 27  1  0  0  0  0
 25 26  1  1  0  0  0
 29 30  1  0  0  0  0
M  CHG  5   6   1  10   1  14   1  19   1  29   1
M  END
>  <CHROM.1>
70.03350982,89.86771458,31.89068900,-161.49984281,66.24143878,30.86757639
97.57115915,138.93543102,-174.42639199,-58.42517468,-154.96481227,-62.84952607
-73.02194303,4.97488719,5.32329411,-2.21359103,0.28131907,-0.61645083,2.20687335

>  <Name>
1byj cryst

>  <RI>
0

>  <Rbt.Current_Directory>
/home/itssahil/PROJECTS/Mol_Feturizer/New_Systems/rnas/1byj

>  <Rbt.Executable>
rbdock ($Id: //depot/dev/client3/rdock/2013.1/src/exe/rbdock.cxx#4 $)

>  <Rbt.Library>
libRbt.so (2013.1, Build901 2013/11/27)

>  <Rbt.Parameter_File>
/export/apps/rDock/src/rDock_2013.1_src/data/scripts/dock_solv.prm

>  <Rbt.Receptor>
prm/pocket_docking_8.prm

>  <SCORE>
-50.6635

>  <SCORE.INTER>
-49.3465

>  <SCORE.INTER.CONST>
1

>  <SCORE.INTER.POLAR>
-7.67571

>  <SCORE.INTER.ROT>
6

>  <SCORE.INTER.SOLV>
23.6828

>  <SCORE.INTER.VDW>
-22.8063

>  <SCORE.INTER.norm>
-1.59182

>  <SCORE.INTRA>
-1.317

>  <SCORE.INTRA.DIHEDRAL>
1.9735

>  <SCORE.INTRA.DIHEDRAL.0>
18.4149

>  <SCORE.INTRA.POLAR>
-1.17777

>  <SCORE.INTRA.POLAR.0>
0

>  <SCORE.INTRA.REPUL>
-0.092687

>  <SCORE.INTRA.REPUL.0>
0.092687

>  <SCORE.INTRA.SOLV>
3.45511

>  <SCORE.INTRA.SOLV.lig_0>
-120.37

>  <SCORE.INTRA.VDW>
0.436545

>  <SCORE.INTRA.VDW.0>
-1.75542

>  <SCORE.INTRA.norm>
-0.042484

>  <SCORE.RESTR>
0

>  <SCORE.RESTR.CAVITY>
0

>  <SCORE.RESTR.norm>
0

>  <SCORE.SYSTEM>
0

>  <SCORE.SYSTEM.CONST>
0

>  <SCORE.SYSTEM.DIHEDRAL>
0

>  <SCORE.SYSTEM.SOLV>
0

>  <SCORE.SYSTEM.norm>
0

>  <SCORE.heavy>
31

>  <SCORE.norm>
-1.63431

>  <RMSD>
2.912

$$$$
1byj cryst
 OpenBabel11021811383D
libRbt.so/2013.1/901 2013/11/27
 31 33  0  0  0  0  0  0  0  0999 V2000
    5.9949    2.7313   -0.6863 C   0  0  1  0  0  0  0  0  0  0  0  0
    6.9496    3.7524   -1.1199 O   0  0  0  0  0  0  0  0  0  0  0  0
    7.8571    3.4402   -2.2188 C   0  0  2  0  0  0  0  0  0  0  0  0
    7.1353    3.3083   -3.4831 O   0  0  0  0  0  0  0  0  0  0  0  0
    8.6421    2.1356   -1.8840 C   0  0  2  0  0  0  0  0  0  0  0  0
    9.5900    1.7382   -2.9436 N   0  3  0  0  0  0  0  0  0  0  0  0
    7.6518    0.9809   -1.5841 C   0  0  0  0  0  0  0  0  0  0  0  0
    6.6881    1.3611   -0.4499 C   0  0  0  0  0  0  0  0  0  0  0  0
    5.3154    3.1876    0.6168 C   0  0  0  0  0  0  0  0  0  0  0  0
    4.2232    2.3092    1.0560 N   0  3  0  0  0  0  0  0  0  0  0  0
    7.6986    5.5872   -4.2311 C   0  0  1  0  0  0  0  0  0  0  0  0
    7.1432    6.9235   -4.7810 C   0  0  0  0  0  0  0  0  0  0  0  0
    6.0401    7.4812   -3.8418 C   0  0  1  0  0  0  0  0  0  0  0  0
    5.5752    8.7915   -4.3357 N   0  3  0  0  0  0  0  0  0  0  0  0
    4.8725    6.4601   -3.7163 C   0  0  1  0  0  0  0  0  0  0  0  0
    5.3784    5.0663   -3.2675 C   0  0  1  0  0  0  0  0  0  0  0  0
    4.2683    4.1850   -3.3528 O   0  0  0  0  0  0  0  0  0  0  0  0
    6.5749    4.5067   -4.1057 C   0  0  2  0  0  0  0  0  0  0  0  0
    8.8142    5.1190   -5.0724 N   0  3  0  0  0  0  0  0  0  0  0  0
    1.5187    6.8568   -0.8206 C   0  0  0  0  0  0  0  0  0  0  0  0
    0.7836    8.2005   -1.0483 C   0  0  2  0  0  0  0  0  0  0  0  0
   -0.5292    7.8845   -1.5096 O   0  0  0  0  0  0  0  0  0  0  0  0
    1.5658    9.0513   -2.1186 C   0  0  1  0  0  0  0  0  0  0  0  0
    1.9312    8.2299   -3.4015 C   0  0  2  0  0  0  0  0  0  0  0  0
    2.5045    6.8237   -3.0918 C   0  0  1  0  0  0  0  0  0  0  0  0
    3.9061    6.9065   -2.7227 O   0  0  0  0  0  0  0  0  0  0  0  0
    1.7126    6.1486   -2.0739 O   0  0  0  0  0  0  0  0  0  0  0  0
    2.8579    8.9334   -4.2245 O   0  0  0  0  0  0  0  0  0  0  0  0
    0.7704   10.2663   -2.4785 N   0  3  0  0  0  0  0  0  0  0  0  0
    1.5264   11.4577   -2.9154 C   0  0  0  0  0  0  0  0  0  0  0  0
    0.6318    8.9188    0.3152 C   0  0  0  0  0  0  0  0  0  0  0  0
  1  8  1  0  0  0  0
  1  9  1  1  0  0  0
  1  2  1  0  0  0  0
  2  3  1  0  0  0  0
  3  5  1  0  0  0  0
  3  4  1  6  0  0  0
  5  7  1  0  0  0  0
  5  6  1  6  0  0  0
  7  8  1  0  0  0  0
  9 10  1  0  0  0  0
 11 12  1  0  0  0  0
 11 18  1  0  0  0  0
 11 19  1  6  0  0  0
 12 13  1  0  0  0  0
 13 15  1  0  0  0  0
 13 14  1  6  0  0  0
 15 16  1  0  0  0  0
 15 26  1  1  0  0  0
 16 18  1  0  0  0  0
 16 17  1  6  0  0  0
 18  4  1  1  0  0  0
 20 21  1  0  0  0  0
 20 27  1  0  0  0  0
 21 31  1  1  0  0  0
 21 23  1  0  0  0  0
 21 22  1  0  0  0  0
 23 24  1  0  0  0  0
 23 29  1  6  0  0  0
 24 25  1  0  0  0  0
 24 28  1  1  0  0  0
 25 27  1  0  0  0  0
 25 26  1  1  0  0  0
 29 30  1  0  0  0  0
M  CHG  5   6   1  10   1  14   1  19   1  29   1
M  END
>  <CHROM.1>
173.17552076,70.74555209,52.41567863,176.22620849,-51.08174221,139.08474055
-144.25304099,134.21600586,-64.39235828,-170.66930404,-87.37563220,-66.12355426
-105.78731872,4.67605770,5.78001021,-2.44704641,0.57811542,-0.54763107,2.47149317

>  <Name>
1byj cryst

>  <RI>
0

>  <Rbt.Current_Directory>
/home/itssahil/PROJECTS/Mol_Feturizer/New_Systems/rnas/1byj

>  <Rbt.Executable>
rbdock ($Id: //depot/dev/client3/rdock/2013.1/src/exe/rbdock.cxx#4 $)

>  <Rbt.Library>
libRbt.so (2013.1, Build901 2013/11/27)

>  <Rbt.Parameter_File>
/export/apps/rDock/src/rDock_2013.1_src/data/scripts/dock_solv.prm

>  <Rbt.Receptor>
prm/pocket_docking_5.prm

>  <SCORE>
-44.9459

>  <SCORE.INTER>
-43.8621

>  <SCORE.INTER.CONST>
1

>  <SCORE.INTER.POLAR>
-6.90216

>  <SCORE.INTER.ROT>
6

>  <SCORE.INTER.SOLV>
21.9568

>  <SCORE.INTER.VDW>
-21.1531

>  <SCORE.INTER.norm>
-1.41491

>  <SCORE.INTRA>
-1.0838

>  <SCORE.INTRA.DIHEDRAL>
3.04431

>  <SCORE.INTRA.DIHEDRAL.0>
18.4149

>  <SCORE.INTRA.POLAR>
-0.570987

>  <SCORE.INTRA.POLAR.0>
0

>  <SCORE.INTRA.REPUL>
-0.092687

>  <SCORE.INTRA.REPUL.0>
0.092687

>  <SCORE.INTRA.SOLV>
1.15934

>  <SCORE.INTRA.SOLV.lig_0>
-120.37

>  <SCORE.INTRA.VDW>
-0.780834

>  <SCORE.INTRA.VDW.0>
-1.75542

>  <SCORE.INTRA.norm>
-0.0349612

>  <SCORE.RESTR>
0

>  <SCORE.RESTR.CAVITY>
0

>  <SCORE.RESTR.norm>
0

>  <SCORE.SYSTEM>
0

>  <SCORE.SYSTEM.CONST>
0

>  <SCORE.SYSTEM.DIHEDRAL>
0

>  <SCORE.SYSTEM.SOLV>
0

>  <SCORE.SYSTEM.norm>
0

>  <SCORE.heavy>
31

>  <SCORE.norm>
-1.44987

>  <RMSD>
2.924

$$$$
1byj cryst
 OpenBabel11021811383D
libRbt.so/2013.1/901 2013/11/27
 31 33  0  0  0  0  0  0  0  0999 V2000
    9.4217    1.7166   -3.9734 C   0  0  1  0  0  0  0  0  0  0  0  0
    7.9910    1.7871   -3.6730 O   0  0  0  0  0  0  0  0  0  0  0  0
    7.5720    2.3393   -2.3892 C   0  0  2  0  0  0  0  0  0  0  0  0
    7.8519    3.7718   -2.3099 O   0  0  0  0  0  0  0  0  0  0  0  0
    8.2844    1.5656   -1.2384 C   0  0  2  0  0  0  0  0  0  0  0  0
    7.9208    2.0564    0.1055 N   0  3  0  0  0  0  0  0  0  0  0  0
    9.8216    1.6168   -1.4347 C   0  0  0  0  0  0  0  0  0  0  0  0
   10.2206    1.0645   -2.8114 C   0  0  0  0  0  0  0  0  0  0  0  0
    9.6342    0.8965   -5.2581 C   0  0  0  0  0  0  0  0  0  0  0  0
   11.0462    0.7101   -5.6168 N   0  3  0  0  0  0  0  0  0  0  0  0
    7.8643    5.6407   -3.9154 C   0  0  1  0  0  0  0  0  0  0  0  0
    7.0118    6.7258   -4.6170 C   0  0  0  0  0  0  0  0  0  0  0  0
    6.2788    7.6039   -3.5674 C   0  0  1  0  0  0  0  0  0  0  0  0
    5.5332    8.6809   -4.2464 N   0  3  0  0  0  0  0  0  0  0  0  0
    5.3501    6.7233   -2.6822 C   0  0  1  0  0  0  0  0  0  0  0  0
    6.1257    5.5511   -2.0305 C   0  0  1  0  0  0  0  0  0  0  0  0
    5.1585    4.7282   -1.3953 O   0  0  0  0  0  0  0  0  0  0  0  0
    6.9823    4.7028   -3.0275 C   0  0  2  0  0  0  0  0  0  0  0  0
    8.6355    4.8795   -4.9140 N   0  3  0  0  0  0  0  0  0  0  0  0
    3.3301    8.6777    0.8221 C   0  0  0  0  0  0  0  0  0  0  0  0
    1.9415    9.1203    0.2991 C   0  0  2  0  0  0  0  0  0  0  0  0
    0.9659    8.3669    1.0179 O   0  0  0  0  0  0  0  0  0  0  0  0
    1.8471    8.8321   -1.2467 C   0  0  1  0  0  0  0  0  0  0  0  0
    2.3060    7.3831   -1.6256 C   0  0  2  0  0  0  0  0  0  0  0  0
    3.6191    6.9485   -0.9264 C   0  0  1  0  0  0  0  0  0  0  0  0
    4.7749    7.5112   -1.6011 O   0  0  0  0  0  0  0  0  0  0  0  0
    3.5957    7.2891    0.4886 O   0  0  0  0  0  0  0  0  0  0  0  0
    2.4654    7.2384   -3.0345 O   0  0  0  0  0  0  0  0  0  0  0  0
    0.4522    9.0860   -1.7243 N   0  3  0  0  0  0  0  0  0  0  0  0
    0.1589   10.4341   -2.2519 C   0  0  0  0  0  0  0  0  0  0  0  0
    1.7289   10.6112    0.6597 C   0  0  0  0  0  0  0  0  0  0  0  0
  1  8  1  0  0  0  0
  1  9  1  6  0  0  0
  1  2  1  0  0  0  0
  2  3  1  0  0  0  0
  3  5  1  0  0  0  0
  3  4  1  6  0  0  0
  5  7  1  0  0  0  0
  5  6  1  1  0  0  0
  7  8  1  0  0  0  0
  9 10  1  0  0  0  0
 11 12  1  0  0  0  0
 11 18  1  0  0  0  0
 11 19  1  6  0  0  0
 12 13  1  0  0  0  0
 13 15  1  0  0  0  0
 13 14  1  6  0  0  0
 15 16  1  0  0  0  0
 15 26  1  1  0  0  0
 16 18  1  0  0  0  0
 16 17  1  6  0  0  0
 18  4  1  1  0  0  0
 20 21  1  0  0  0  0
 20 27  1  0  0  0  0
 21 31  1  1  0  0  0
 21 23  1  0  0  0  0
 21 22  1  0  0  0  0
 23 24  1  0  0  0  0
 23 29  1  1  0  0  0
 24 25  1  0  0  0  0
 24 28  1  6  0  0  0
 25 27  1  0  0  0  0
 25 26  1  6  0  0  0
 29 30  1  0  0  0  0
M  CHG  5   6   1  10   1  14   1  19   1  29   1
M  END
>  <CHROM.1>
-177.28461558,76.10086735,-127.82844303,-172.23705701,179.54241347,44.08781118
173.59031620,163.24753862,-167.04653296,63.90234510,-146.05895191,-170.50787862
-89.39874059,5.66085833,5.61798114,-2.20342452,-0.13465958,0.78412641,-1.01253647

>  <Name>
1byj cryst

>  <RI>
0

>  <Rbt.Current_Directory>
/home/itssahil/PROJECTS/Mol_Feturizer/New_Systems/rnas/1byj

>  <Rbt.Executable>
rbdock ($Id: //depot/dev/client3/rdock/2013.1/src/exe/rbdock.cxx#4 $)

>  <Rbt.Library>
libRbt.so (2013.1, Build901 2013/11/27)

>  <Rbt.Parameter_File>
/export/apps/rDock/src/rDock_2013.1_src/data/scripts/dock_solv.prm

>  <Rbt.Receptor>
prm/pocket_docking_8.prm

>  <SCORE>
-49.3552

>  <SCORE.INTER>
-46.9655

>  <SCORE.INTER.CONST>
1

>  <SCORE.INTER.POLAR>
-6.50139

>  <SCORE.INTER.ROT>
6

>  <SCORE.INTER.SOLV>
28.5628

>  <SCORE.INTER.VDW>
-26.76

>  <SCORE.INTER.norm>
-1.51502

>  <SCORE.INTRA>
-2.38966

>  <SCORE.INTRA.DIHEDRAL>
-0.989895

>  <SCORE.INTRA.DIHEDRAL.0>
18.4149

>  <SCORE.INTRA.POLAR>
-0.103452

>  <SCORE.INTRA.POLAR.0>
0

>  <SCORE.INTRA.REPUL>
-0.092687

>  <SCORE.INTRA.REPUL.0>
0.092687

>  <SCORE.INTRA.SOLV>
-0.627194

>  <SCORE.INTRA.SOLV.lig_0>
-120.37

>  <SCORE.INTRA.VDW>
-0.765946

>  <SCORE.INTRA.VDW.0>
-1.75542

>  <SCORE.INTRA.norm>
-0.0770859

>  <SCORE.RESTR>
0

>  <SCORE.RESTR.CAVITY>
0

>  <SCORE.RESTR.norm>
0

>  <SCORE.SYSTEM>
0

>  <SCORE.SYSTEM.CONST>
0

>  <SCORE.SYSTEM.DIHEDRAL>
0

>  <SCORE.SYSTEM.SOLV>
0

>  <SCORE.SYSTEM.norm>
0

>  <SCORE.heavy>
31

>  <SCORE.norm>
-1.5921

>  <RMSD>
2.938

$$$$
1byj cryst
 OpenBabel11021811383D
libRbt.so/2013.1/901 2013/11/27
 31 33  0  0  0  0  0  0  0  0999 V2000
    6.1504    2.1975   -2.0659 C   0  0  1  0  0  0  0  0  0  0  0  0
    6.8785    3.4254   -1.7432 O   0  0  0  0  0  0  0  0  0  0  0  0
    8.1397    3.6912   -2.4269 C   0  0  2  0  0  0  0  0  0  0  0  0
    7.9270    3.9661   -3.8467 O   0  0  0  0  0  0  0  0  0  0  0  0
    9.0985    2.4779   -2.2294 C   0  0  2  0  0  0  0  0  0  0  0  0
   10.4068    2.6562   -2.8895 N   0  3  0  0  0  0  0  0  0  0  0  0
    8.4173    1.1756   -2.7231 C   0  0  0  0  0  0  0  0  0  0  0  0
    7.0753    0.9504   -2.0103 C   0  0  0  0  0  0  0  0  0  0  0  0
    4.9912    2.0143   -1.0704 C   0  0  0  0  0  0  0  0  0  0  0  0
    4.2648    0.7479   -1.2315 N   0  3  0  0  0  0  0  0  0  0  0  0
    8.5333    6.3540   -3.8191 C   0  0  1  0  0  0  0  0  0  0  0  0
    8.0537    7.7958   -4.1156 C   0  0  0  0  0  0  0  0  0  0  0  0
    6.7375    8.0989   -3.3504 C   0  0  1  0  0  0  0  0  0  0  0  0
    6.3343    9.4994   -3.5799 N   0  3  0  0  0  0  0  0  0  0  0  0
    5.6248    7.0971   -3.7744 C   0  0  1  0  0  0  0  0  0  0  0  0
    6.0824    5.6274   -3.5993 C   0  0  1  0  0  0  0  0  0  0  0  0
    5.0671    4.8156   -4.1706 O   0  0  0  0  0  0  0  0  0  0  0  0
    7.4662    5.2943   -4.2484 C   0  0  2  0  0  0  0  0  0  0  0  0
    9.8346    6.1108   -4.4663 N   0  3  0  0  0  0  0  0  0  0  0  0
    1.7710    6.3728   -1.7680 C   0  0  0  0  0  0  0  0  0  0  0  0
    0.8941    7.6476   -1.7075 C   0  0  2  0  0  0  0  0  0  0  0  0
   -0.2457    7.4089   -2.5322 O   0  0  0  0  0  0  0  0  0  0  0  0
    1.7220    8.8791   -2.2359 C   0  0  1  0  0  0  0  0  0  0  0  0
    2.4413    8.5910   -3.5974 C   0  0  2  0  0  0  0  0  0  0  0  0
    3.1555    7.2163   -3.6396 C   0  0  1  0  0  0  0  0  0  0  0  0
    4.4344    7.2766   -2.9552 O   0  0  0  0  0  0  0  0  0  0  0  0
    2.3010    6.1663   -3.1046 O   0  0  0  0  0  0  0  0  0  0  0  0
    3.3861    9.6101   -3.9137 O   0  0  0  0  0  0  0  0  0  0  0  0
    0.8309   10.0753   -2.3524 N   0  3  0  0  0  0  0  0  0  0  0  0
    1.4879   11.3869   -2.5248 C   0  0  0  0  0  0  0  0  0  0  0  0
    0.3829    7.8284   -0.2570 C   0  0  0  0  0  0  0  0  0  0  0  0
  1  8  1  0  0  0  0
  1  9  1  1  0  0  0
  1  2  1  0  0  0  0
  2  3  1  0  0  0  0
  3  5  1  0  0  0  0
  3  4  1  6  0  0  0
  5  7  1  0  0  0  0
  5  6  1  6  0  0  0
  7  8  1  0  0  0  0
  9 10  1  0  0  0  0
 11 12  1  0  0  0  0
 11 18  1  0  0  0  0
 11 19  1  6  0  0  0
 12 13  1  0  0  0  0
 13 15  1  0  0  0  0
 13 14  1  6  0  0  0
 15 16  1  0  0  0  0
 15 26  1  1  0  0  0
 16 18  1  0  0  0  0
 16 17  1  6  0  0  0
 18  4  1  1  0  0  0
 20 21  1  0  0  0  0
 20 27  1  0  0  0  0
 21 31  1  1  0  0  0
 21 23  1  0  0  0  0
 21 22  1  0  0  0  0
 23 24  1  0  0  0  0
 23 29  1  6  0  0  0
 24 25  1  0  0  0  0
 24 28  1  1  0  0  0
 25 27  1  0  0  0  0
 25 26  1  1  0  0  0
 29 30  1  0  0  0  0
M  CHG  5   6   1  10   1  14   1  19   1  29   1
M  END
>  <CHROM.1>
-174.91519401,79.11312681,61.44771012,-179.43733255,179.36267464,-162.27984610
115.83608805,138.57687954,-174.90096428,179.82304189,-72.90737448,36.86592626
-114.13331957,5.13629817,5.89692730,-2.84598449,0.68915656,-0.28469922,2.85873538

>  <Name>
1byj cryst

>  <RI>
0

>  <Rbt.Current_Directory>
/home/itssahil/PROJECTS/Mol_Feturizer/New_Systems/rnas/1byj

>  <Rbt.Executable>
rbdock ($Id: //depot/dev/client3/rdock/2013.1/src/exe/rbdock.cxx#4 $)

>  <Rbt.Library>
libRbt.so (2013.1, Build901 2013/11/27)

>  <Rbt.Parameter_File>
/export/apps/rDock/src/rDock_2013.1_src/data/scripts/dock_solv.prm

>  <Rbt.Receptor>
prm/pocket_docking_5.prm

>  <SCORE>
-43.0297

>  <SCORE.INTER>
-41.6548

>  <SCORE.INTER.CONST>
1

>  <SCORE.INTER.POLAR>
-6.2937

>  <SCORE.INTER.ROT>
6

>  <SCORE.INTER.SOLV>
27.9472

>  <SCORE.INTER.VDW>
-23.7066

>  <SCORE.INTER.norm>
-1.3437

>  <SCORE.INTRA>
-1.37492

>  <SCORE.INTRA.DIHEDRAL>
3.36139

>  <SCORE.INTRA.DIHEDRAL.0>
18.4149

>  <SCORE.INTRA.POLAR>
-0.899248

>  <SCORE.INTRA.POLAR.0>
0

>  <SCORE.INTRA.REPUL>
-0.092687

>  <SCORE.INTRA.REPUL.0>
0.092687

>  <SCORE.INTRA.SOLV>
1.68555

>  <SCORE.INTRA.SOLV.lig_0>
-120.37

>  <SCORE.INTRA.VDW>
-0.377508

>  <SCORE.INTRA.VDW.0>
-1.75542

>  <SCORE.INTRA.norm>
-0.0443523

>  <SCORE.RESTR>
0

>  <SCORE.RESTR.CAVITY>
0

>  <SCORE.RESTR.norm>
0

>  <SCORE.SYSTEM>
0

>  <SCORE.SYSTEM.CONST>
0

>  <SCORE.SYSTEM.DIHEDRAL>
0

>  <SCORE.SYSTEM.SOLV>
0

>  <SCORE.SYSTEM.norm>
0

>  <SCORE.heavy>
31

>  <SCORE.norm>
-1.38805

>  <RMSD>
2.939

$$$$
1byj cryst
 OpenBabel11021811383D
libRbt.so/2013.1/901 2013/11/27
 31 33  0  0  0  0  0  0  0  0999 V2000
    7.3605    2.7831   -1.6807 C   0  0  1  0  0  0  0  0  0  0  0  0
    8.4657    3.6514   -2.0890 O   0  0  0  0  0  0  0  0  0  0  0  0
    9.0063    3.5091   -3.4366 C   0  0  2  0  0  0  0  0  0  0  0  0
    8.0420    3.9451   -4.4449 O   0  0  0  0  0  0  0  0  0  0  0  0
    9.4270    2.0261   -3.6691 C   0  0  2  0  0  0  0  0  0  0  0  0
    9.9883    1.7838   -5.0127 N   0  3  0  0  0  0  0  0  0  0  0  0
    8.2230    1.0845   -3.4087 C   0  0  0  0  0  0  0  0  0  0  0  0
    7.6566    1.2908   -1.9958 C   0  0  0  0  0  0  0  0  0  0  0  0
    7.1158    2.9438   -0.1699 C   0  0  0  0  0  0  0  0  0  0  0  0
    8.3134    3.3295    0.5878 N   0  3  0  0  0  0  0  0  0  0  0  0
    8.5504    6.2342   -3.6888 C   0  0  1  0  0  0  0  0  0  0  0  0
    7.9876    7.6592   -3.4664 C   0  0  0  0  0  0  0  0  0  0  0  0
    6.7346    7.6120   -2.5512 C   0  0  1  0  0  0  0  0  0  0  0  0
    6.2555    8.9817   -2.2846 N   0  3  0  0  0  0  0  0  0  0  0  0
    5.6299    6.7253   -3.1954 C   0  0  1  0  0  0  0  0  0  0  0  0
    6.1610    5.3112   -3.5397 C   0  0  1  0  0  0  0  0  0  0  0  0
    5.1323    4.6578   -4.2683 O   0  0  0  0  0  0  0  0  0  0  0  0
    7.4930    5.2976   -4.3600 C   0  0  2  0  0  0  0  0  0  0  0  0
    9.7968    6.2994   -4.4722 N   0  3  0  0  0  0  0  0  0  0  0  0
    2.7382    4.0688   -2.2108 C   0  0  0  0  0  0  0  0  0  0  0  0
    1.5318    4.4493   -1.3178 C   0  0  2  0  0  0  0  0  0  0  0  0
    0.3632    4.3468   -2.1303 O   0  0  0  0  0  0  0  0  0  0  0  0
    1.7178    5.9195   -0.7838 C   0  0  1  0  0  0  0  0  0  0  0  0
    2.0968    6.9353   -1.9145 C   0  0  2  0  0  0  0  0  0  0  0  0
    3.1954    6.4104   -2.8733 C   0  0  1  0  0  0  0  0  0  0  0  0
    4.5120    6.5525   -2.2784 O   0  0  0  0  0  0  0  0  0  0  0  0
    2.9256    5.0379   -3.2764 O   0  0  0  0  0  0  0  0  0  0  0  0
    2.5173    8.1848   -1.3732 O   0  0  0  0  0  0  0  0  0  0  0  0
    0.4775    6.3600   -0.0724 N   0  3  0  0  0  0  0  0  0  0  0  0
    0.5745    7.5832    0.7499 C   0  0  0  0  0  0  0  0  0  0  0  0
    1.4007    3.3979   -0.1885 C   0  0  0  0  0  0  0  0  0  0  0  0
  1  8  1  0  0  0  0
  1  9  1  1  0  0  0
  1  2  1  0  0  0  0
  2  3  1  0  0  0  0
  3  5  1  0  0  0  0
  3  4  1  6  0  0  0
  5  7  1  0  0  0  0
  5  6  1  6  0  0  0
  7  8  1  0  0  0  0
  9 10  1  0  0  0  0
 11 12  1  0  0  0  0
 11 18  1  0  0  0  0
 11 19  1  6  0  0  0
 12 13  1  0  0  0  0
 13 15  1  0  0  0  0
 13 14  1  6  0  0  0
 15 16  1  0  0  0  0
 15 26  1  1  0  0  0
 16 18  1  0  0  0  0
 16 17  1  6  0  0  0
 18  4  1  1  0  0  0
 20 21  1  0  0  0  0
 20 27  1  0  0  0  0
 21 31  1  1  0  0  0
 21 23  1  0  0  0  0
 21 22  1  0  0  0  0
 23 24  1  0  0  0  0
 23 29  1  6  0  0  0
 24 25  1  0  0  0  0
 24 28  1  1  0  0  0
 25 27  1  0  0  0  0
 25 26  1  1  0  0  0
 29 30  1  0  0  0  0
M  CHG  5   6   1  10   1  14   1  19   1  29   1
M  END
>  <CHROM.1>
-27.99812130,55.75906757,29.47862039,51.45064485,153.25331163,68.32945507
66.68239201,148.25694047,-166.20329310,-61.55358829,-72.26395805,58.43394454
-151.49810523,5.52609176,4.99635525,-2.41110492,0.26946563,-0.36426605,2.94809178

>  <Name>
1byj cryst

>  <RI>
0

>  <Rbt.Current_Directory>
/home/itssahil/PROJECTS/Mol_Feturizer/New_Systems/rnas/1byj

>  <Rbt.Executable>
rbdock ($Id: //depot/dev/client3/rdock/2013.1/src/exe/rbdock.cxx#4 $)

>  <Rbt.Library>
libRbt.so (2013.1, Build901 2013/11/27)

>  <Rbt.Parameter_File>
/export/apps/rDock/src/rDock_2013.1_src/data/scripts/dock_solv.prm

>  <Rbt.Receptor>
prm/pocket_docking_6.prm

>  <SCORE>
-38.7525

>  <SCORE.INTER>
-36.0459

>  <SCORE.INTER.CONST>
1

>  <SCORE.INTER.POLAR>
-5.88368

>  <SCORE.INTER.ROT>
6

>  <SCORE.INTER.SOLV>
23.4146

>  <SCORE.INTER.VDW>
-19.8232

>  <SCORE.INTER.norm>
-1.16277

>  <SCORE.INTRA>
-2.70657

>  <SCORE.INTRA.DIHEDRAL>
-0.890216

>  <SCORE.INTRA.DIHEDRAL.0>
18.4149

>  <SCORE.INTRA.POLAR>
-0.249741

>  <SCORE.INTRA.POLAR.0>
0

>  <SCORE.INTRA.REPUL>
-0.092687

>  <SCORE.INTRA.REPUL.0>
0.092687

>  <SCORE.INTRA.SOLV>
-1.13762

>  <SCORE.INTRA.SOLV.lig_0>
-120.37

>  <SCORE.INTRA.VDW>
-0.380097

>  <SCORE.INTRA.VDW.0>
-1.75542

>  <SCORE.INTRA.norm>
-0.0873088

>  <SCORE.RESTR>
0

>  <SCORE.RESTR.CAVITY>
0

>  <SCORE.RESTR.norm>
0

>  <SCORE.SYSTEM>
0

>  <SCORE.SYSTEM.CONST>
0

>  <SCORE.SYSTEM.DIHEDRAL>
0

>  <SCORE.SYSTEM.SOLV>
0

>  <SCORE.SYSTEM.norm>
0

>  <SCORE.heavy>
31

>  <SCORE.norm>
-1.25008

>  <RMSD>
2.976

$$$$
1byj cryst
 OpenBabel11021811383D
libRbt.so/2013.1/901 2013/11/27
 31 33  0  0  0  0  0  0  0  0999 V2000
    5.4983    2.5303   -1.0042 C   0  0  1  0  0  0  0  0  0  0  0  0
    6.3651    3.7067   -0.9229 O   0  0  0  0  0  0  0  0  0  0  0  0
    7.6701    3.6607   -1.5737 C   0  0  2  0  0  0  0  0  0  0  0  0
    7.5374    3.6248   -3.0290 O   0  0  0  0  0  0  0  0  0  0  0  0
    8.4619    2.4227   -1.0534 C   0  0  2  0  0  0  0  0  0  0  0  0
    9.8018    2.2920   -1.6587 N   0  3  0  0  0  0  0  0  0  0  0  0
    7.6374    1.1295   -1.2815 C   0  0  0  0  0  0  0  0  0  0  0  0
    6.2566    1.2309   -0.6163 C   0  0  0  0  0  0  0  0  0  0  0  0
    4.2953    2.7159   -0.0627 C   0  0  0  0  0  0  0  0  0  0  0  0
    3.4976    3.9157   -0.3481 N   0  3  0  0  0  0  0  0  0  0  0  0
    8.6091    5.7865   -3.5279 C   0  0  1  0  0  0  0  0  0  0  0  0
    8.4291    7.1800   -4.1777 C   0  0  0  0  0  0  0  0  0  0  0  0
    7.1965    7.9058   -3.5747 C   0  0  1  0  0  0  0  0  0  0  0  0
    7.0827    9.2614   -4.1458 N   0  3  0  0  0  0  0  0  0  0  0  0
    5.9079    7.0659   -3.8110 C   0  0  1  0  0  0  0  0  0  0  0  0
    6.0612    5.6210   -3.2736 C   0  0  1  0  0  0  0  0  0  0  0  0
    4.9069    4.9079   -3.6922 O   0  0  0  0  0  0  0  0  0  0  0  0
    7.3536    4.8815   -3.7534 C   0  0  2  0  0  0  0  0  0  0  0  0
    9.8386    5.1489   -4.0311 N   0  3  0  0  0  0  0  0  0  0  0  0
    2.3355    6.6156   -1.6101 C   0  0  0  0  0  0  0  0  0  0  0  0
    1.3275    7.7909   -1.5912 C   0  0  2  0  0  0  0  0  0  0  0  0
    0.1587    7.3488   -2.2800 O   0  0  0  0  0  0  0  0  0  0  0  0
    1.9646    9.0397   -2.3095 C   0  0  1  0  0  0  0  0  0  0  0  0
    2.5984    8.6865   -3.6979 C   0  0  2  0  0  0  0  0  0  0  0  0
    3.4581    7.3971   -3.6741 C   0  0  1  0  0  0  0  0  0  0  0  0
    4.7734    7.6627   -3.1200 O   0  0  0  0  0  0  0  0  0  0  0  0
    2.7746    6.3259   -2.9641 O   0  0  0  0  0  0  0  0  0  0  0  0
    3.3926    9.7597   -4.1966 O   0  0  0  0  0  0  0  0  0  0  0  0
    0.9371   10.1171   -2.4571 N   0  3  0  0  0  0  0  0  0  0  0  0
    1.4326   11.5005   -2.6070 C   0  0  0  0  0  0  0  0  0  0  0  0
    0.9192    8.0692   -0.1235 C   0  0  0  0  0  0  0  0  0  0  0  0
  1  8  1  0  0  0  0
  1  9  1  1  0  0  0
  1  2  1  0  0  0  0
  2  3  1  0  0  0  0
  3  5  1  0  0  0  0
  3  4  1  6  0  0  0
  5  7  1  0  0  0  0
  5  6  1  6  0  0  0
  7  8  1  0  0  0  0
  9 10  1  0  0  0  0
 11 12  1  0  0  0  0
 11 18  1  0  0  0  0
 11 19  1  6  0  0  0
 12 13  1  0  0  0  0
 13 15  1  0  0  0  0
 13 14  1  6  0  0  0
 15 16  1  0  0  0  0
 15 26  1  1  0  0  0
 16 18  1  0  0  0  0
 16 17  1  6  0  0  0
 18  4  1  1  0  0  0
 20 21  1  0  0  0  0
 20 27  1  0  0  0  0
 21 31  1  1  0  0  0
 21 23  1  0  0  0  0
 21 22  1  0  0  0  0
 23 24  1  0  0  0  0
 23 29  1  6  0  0  0
 24 25  1  0  0  0  0
 24 28  1  1  0  0  0
 25 27  1  0  0  0  0
 25 26  1  1  0  0  0
 29 30  1  0  0  0  0
M  CHG  5   6   1  10   1  14   1  19   1  29   1
M  END
>  <CHROM.1>
57.90640052,83.35351980,62.06830612,49.86436340,-67.12002085,-172.80410389
63.58976576,153.57133576,-174.37647640,-59.86439271,-82.09397122,48.14907035
-136.52146368,5.09995180,6.00033860,-2.47087510,0.70291006,-0.34723657,2.66075801

>  <Name>
1byj cryst

>  <RI>
0

>  <Rbt.Current_Directory>
/home/itssahil/PROJECTS/Mol_Feturizer/New_Systems/rnas/1byj

>  <Rbt.Executable>
rbdock ($Id: //depot/dev/client3/rdock/2013.1/src/exe/rbdock.cxx#4 $)

>  <Rbt.Library>
libRbt.so (2013.1, Build901 2013/11/27)

>  <Rbt.Parameter_File>
/export/apps/rDock/src/rDock_2013.1_src/data/scripts/dock_solv.prm

>  <Rbt.Receptor>
prm/pocket_docking_3.prm

>  <SCORE>
-31.2662

>  <SCORE.INTER>
-27.3696

>  <SCORE.INTER.CONST>
1

>  <SCORE.INTER.POLAR>
-4.05127

>  <SCORE.INTER.ROT>
6

>  <SCORE.INTER.SOLV>
22.5742

>  <SCORE.INTER.VDW>
-19.8669

>  <SCORE.INTER.norm>
-0.882889

>  <SCORE.INTRA>
-3.90404

>  <SCORE.INTRA.DIHEDRAL>
-4.35585

>  <SCORE.INTRA.DIHEDRAL.0>
18.4149

>  <SCORE.INTRA.POLAR>
0

>  <SCORE.INTRA.POLAR.0>
0

>  <SCORE.INTRA.REPUL>
-0.092687

>  <SCORE.INTRA.REPUL.0>
0.092687

>  <SCORE.INTRA.SOLV>
3.21611

>  <SCORE.INTRA.SOLV.lig_0>
-120.37

>  <SCORE.INTRA.VDW>
-2.87073

>  <SCORE.INTRA.VDW.0>
-1.75542

>  <SCORE.INTRA.norm>
-0.125937

>  <SCORE.RESTR>
0.00740912

>  <SCORE.RESTR.CAVITY>
0.00740912

>  <SCORE.RESTR.norm>
0.000239004

>  <SCORE.SYSTEM>
0

>  <SCORE.SYSTEM.CONST>
0

>  <SCORE.SYSTEM.DIHEDRAL>
0

>  <SCORE.SYSTEM.SOLV>
0

>  <SCORE.SYSTEM.norm>
0

>  <SCORE.heavy>
31

>  <SCORE.norm>
-1.00859

>  <RMSD>
2.991

$$$$
1byj cryst
 OpenBabel11021811383D
libRbt.so/2013.1/901 2013/11/27
 31 33  0  0  0  0  0  0  0  0999 V2000
    8.1078    1.7875   -0.7101 C   0  0  1  0  0  0  0  0  0  0  0  0
    8.4679    3.0706   -1.3152 O   0  0  0  0  0  0  0  0  0  0  0  0
    8.6320    3.1399   -2.7633 C   0  0  2  0  0  0  0  0  0  0  0  0
    7.3555    2.9585   -3.4521 O   0  0  0  0  0  0  0  0  0  0  0  0
    9.6693    2.0678   -3.2161 C   0  0  2  0  0  0  0  0  0  0  0  0
    9.9022    2.0622   -4.6738 N   0  3  0  0  0  0  0  0  0  0  0  0
    9.2267    0.6622   -2.7342 C   0  0  0  0  0  0  0  0  0  0  0  0
    9.0260    0.6389   -1.2115 C   0  0  0  0  0  0  0  0  0  0  0  0
    8.2199    1.8952    0.8209 C   0  0  0  0  0  0  0  0  0  0  0  0
    9.4822    2.4866    1.2836 N   0  3  0  0  0  0  0  0  0  0  0  0
    7.4453    5.3643   -3.9764 C   0  0  1  0  0  0  0  0  0  0  0  0
    6.6223    6.6639   -4.1503 C   0  0  0  0  0  0  0  0  0  0  0  0
    5.7837    6.9509   -2.8759 C   0  0  1  0  0  0  0  0  0  0  0  0
    5.0656    8.2311   -3.0248 N   0  3  0  0  0  0  0  0  0  0  0  0
    4.8116    5.7691   -2.5931 C   0  0  1  0  0  0  0  0  0  0  0  0
    5.5643    4.4175   -2.5105 C   0  0  1  0  0  0  0  0  0  0  0  0
    4.5722    3.4054   -2.4229 O   0  0  0  0  0  0  0  0  0  0  0  0
    6.5210    4.1301   -3.7144 C   0  0  2  0  0  0  0  0  0  0  0  0
    8.3147    5.1557   -5.1477 N   0  3  0  0  0  0  0  0  0  0  0  0
    1.2577    5.4713   -2.2319 C   0  0  0  0  0  0  0  0  0  0  0  0
    0.4032    5.5187   -0.9415 C   0  0  2  0  0  0  0  0  0  0  0  0
   -0.5224    6.5941   -1.0938 O   0  0  0  0  0  0  0  0  0  0  0  0
    1.3420    5.7570    0.3007 C   0  0  1  0  0  0  0  0  0  0  0  0
    2.3483    6.9383    0.0865 C   0  0  2  0  0  0  0  0  0  0  0  0
    3.0392    6.9171   -1.3006 C   0  0  1  0  0  0  0  0  0  0  0  0
    4.1301    5.9595   -1.3203 O   0  0  0  0  0  0  0  0  0  0  0  0
    2.0748    6.6653   -2.3615 O   0  0  0  0  0  0  0  0  0  0  0  0
    3.3506    6.9595    1.0994 O   0  0  0  0  0  0  0  0  0  0  0  0
    0.5129    5.9852    1.5250 N   0  3  0  0  0  0  0  0  0  0  0  0
    0.2828    4.8219    2.4056 C   0  0  0  0  0  0  0  0  0  0  0  0
   -0.4217    4.2116   -0.8458 C   0  0  0  0  0  0  0  0  0  0  0  0
  1  8  1  0  0  0  0
  1  9  1  1  0  0  0
  1  2  1  0  0  0  0
  2  3  1  0  0  0  0
  3  5  1  0  0  0  0
  3  4  1  6  0  0  0
  5  7  1  0  0  0  0
  5  6  1  6  0  0  0
  7  8  1  0  0  0  0
  9 10  1  0  0  0  0
 11 12  1  0  0  0  0
 11 18  1  0  0  0  0
 11 19  1  6  0  0  0
 12 13  1  0  0  0  0
 13 15  1  0  0  0  0
 13 14  1  6  0  0  0
 15 16  1  0  0  0  0
 15 26  1  1  0  0  0
 16 18  1  0  0  0  0
 16 17  1  6  0  0  0
 18  4  1  1  0  0  0
 20 21  1  0  0  0  0
 20 27  1  0  0  0  0
 21 31  1  1  0  0  0
 21 23  1  0  0  0  0
 21 22  1  0  0  0  0
 23 24  1  0  0  0  0
 23 29  1  1  0  0  0
 24 25  1  0  0  0  0
 24 28  1  1  0  0  0
 25 27  1  0  0  0  0
 25 26  1  1  0  0  0
 29 30  1  0  0  0  0
M  CHG  5   6   1  10   1  14   1  19   1  29   1
M  END
>  <CHROM.1>
-48.79131401,88.31860827,33.26421410,74.28317089,-33.29711590,148.59879497
73.01995730,77.05298788,64.58747445,-60.80443045,-141.75499886,64.45510925
175.94706533,5.17825882,4.62113436,-1.70555638,0.03129416,-0.49554102,2.20346552

>  <Name>
1byj cryst

>  <RI>
0

>  <Rbt.Current_Directory>
/home/itssahil/PROJECTS/Mol_Feturizer/New_Systems/rnas/1byj

>  <Rbt.Executable>
rbdock ($Id: //depot/dev/client3/rdock/2013.1/src/exe/rbdock.cxx#4 $)

>  <Rbt.Library>
libRbt.so (2013.1, Build901 2013/11/27)

>  <Rbt.Parameter_File>
/export/apps/rDock/src/rDock_2013.1_src/data/scripts/dock_solv.prm

>  <Rbt.Receptor>
prm/pocket_docking_5.prm

>  <SCORE>
-46.7548

>  <SCORE.INTER>
-45.6719

>  <SCORE.INTER.CONST>
1

>  <SCORE.INTER.POLAR>
-7.1399

>  <SCORE.INTER.ROT>
6

>  <SCORE.INTER.SOLV>
23.0239

>  <SCORE.INTER.VDW>
-21.9229

>  <SCORE.INTER.norm>
-1.47329

>  <SCORE.INTRA>
-1.08295

>  <SCORE.INTRA.DIHEDRAL>
-3.01774

>  <SCORE.INTRA.DIHEDRAL.0>
18.4149

>  <SCORE.INTRA.POLAR>
-0.020677

>  <SCORE.INTRA.POLAR.0>
0

>  <SCORE.INTRA.REPUL>
-0.092687

>  <SCORE.INTRA.REPUL.0>
0.092687

>  <SCORE.INTRA.SOLV>
2.54644

>  <SCORE.INTRA.SOLV.lig_0>
-120.37

>  <SCORE.INTRA.VDW>
-0.313563

>  <SCORE.INTRA.VDW.0>
-1.75542

>  <SCORE.INTRA.norm>
-0.0349338

>  <SCORE.RESTR>
0

>  <SCORE.RESTR.CAVITY>
0

>  <SCORE.RESTR.norm>
0

>  <SCORE.SYSTEM>
0

>  <SCORE.SYSTEM.CONST>
0

>  <SCORE.SYSTEM.DIHEDRAL>
0

>  <SCORE.SYSTEM.SOLV>
0

>  <SCORE.SYSTEM.norm>
0

>  <SCORE.heavy>
31

>  <SCORE.norm>
-1.50822

>  <RMSD>
2.994

$$$$
1byj cryst
 OpenBabel11021811383D
libRbt.so/2013.1/901 2013/11/27
 31 33  0  0  0  0  0  0  0  0999 V2000
    5.4883    3.4325   -0.8409 C   0  0  1  0  0  0  0  0  0  0  0  0
    6.7958    3.9912   -1.1882 O   0  0  0  0  0  0  0  0  0  0  0  0
    7.5912    3.3251   -2.2140 C   0  0  2  0  0  0  0  0  0  0  0  0
    6.9745    3.4554   -3.5329 O   0  0  0  0  0  0  0  0  0  0  0  0
    7.7773    1.8259   -1.8290 C   0  0  2  0  0  0  0  0  0  0  0  0
    8.5735    1.0665   -2.8131 N   0  3  0  0  0  0  0  0  0  0  0  0
    6.3953    1.1550   -1.6191 C   0  0  0  0  0  0  0  0  0  0  0  0
    5.5721    1.9064   -0.5620 C   0  0  0  0  0  0  0  0  0  0  0  0
    4.9426    4.1474    0.4078 C   0  0  0  0  0  0  0  0  0  0  0  0
    5.8987    4.2107    1.5210 N   0  3  0  0  0  0  0  0  0  0  0  0
    8.1679    5.5250   -4.1352 C   0  0  1  0  0  0  0  0  0  0  0  0
    8.0206    6.9883   -4.6185 C   0  0  0  0  0  0  0  0  0  0  0  0
    7.0788    7.7810   -3.6727 C   0  0  1  0  0  0  0  0  0  0  0  0
    7.0093    9.1915   -4.0998 N   0  3  0  0  0  0  0  0  0  0  0  0
    5.6723    7.1164   -3.6319 C   0  0  1  0  0  0  0  0  0  0  0  0
    5.7599    5.6166   -3.2538 C   0  0  1  0  0  0  0  0  0  0  0  0
    4.4547    5.0809   -3.4140 O   0  0  0  0  0  0  0  0  0  0  0  0
    6.7873    4.7913   -4.0969 C   0  0  2  0  0  0  0  0  0  0  0  0
    9.1426    4.8098   -4.9777 N   0  3  0  0  0  0  0  0  0  0  0  0
    1.9959    6.8979   -3.3736 C   0  0  0  0  0  0  0  0  0  0  0  0
    1.0774    7.5490   -2.3106 C   0  0  2  0  0  0  0  0  0  0  0  0
    0.1899    8.4236   -3.0061 O   0  0  0  0  0  0  0  0  0  0  0  0
    1.9568    8.3473   -1.2759 C   0  0  1  0  0  0  0  0  0  0  0  0
    3.0038    9.2879   -1.9635 C   0  0  2  0  0  0  0  0  0  0  0  0
    3.7647    8.6140   -3.1335 C   0  0  1  0  0  0  0  0  0  0  0  0
    4.8293    7.7619   -2.6352 O   0  0  0  0  0  0  0  0  0  0  0  0
    2.8501    7.8895   -4.0038 O   0  0  0  0  0  0  0  0  0  0  0  0
    3.9527    9.7865   -1.0243 O   0  0  0  0  0  0  0  0  0  0  0  0
    1.0719    9.1266   -0.3549 N   0  3  0  0  0  0  0  0  0  0  0  0
    0.4912    8.3992    0.7921 C   0  0  0  0  0  0  0  0  0  0  0  0
    0.2141    6.4418   -1.6573 C   0  0  0  0  0  0  0  0  0  0  0  0
  1  8  1  0  0  0  0
  1  9  1  1  0  0  0
  1  2  1  0  0  0  0
  2  3  1  0  0  0  0
  3  5  1  0  0  0  0
  3  4  1  6  0  0  0
  5  7  1  0  0  0  0
  5  6  1  6  0  0  0
  7  8  1  0  0  0  0
  9 10  1  0  0  0  0
 11 12  1  0  0  0  0
 11 18  1  0  0  0  0
 11 19  1  6  0  0  0
 12 13  1  0  0  0  0
 13 15  1  0  0  0  0
 13 14  1  6  0  0  0
 15 16  1  0  0  0  0
 15 26  1  1  0  0  0
 16 18  1  0  0  0  0
 16 17  1  6  0  0  0
 18  4  1  1  0  0  0
 20 21  1  0  0  0  0
 20 27  1  0  0  0  0
 21 31  1  1  0  0  0
 21 23  1  0  0  0  0
 21 22  1  0  0  0  0
 23 24  1  0  0  0  0
 23 29  1  6  0  0  0
 24 25  1  0  0  0  0
 24 28  1  1  0  0  0
 25 27  1  0  0  0  0
 25 26  1  1  0  0  0
 29 30  1  0  0  0  0
M  CHG  5   6   1  10   1  14   1  19   1  29   1
M  END
>  <CHROM.1>
-50.19394987,61.30352922,55.76562412,-66.18820378,63.41874174,118.44403762
-175.89825598,107.03250835,-177.58145517,166.94058672,-156.63112691,-174.96209576
-176.98684690,4.95317688,5.95241481,-2.33204115,0.54129856,-0.54544096,2.58220898

>  <Name>
1byj cryst

>  <RI>
0

>  <Rbt.Current_Directory>
/home/itssahil/PROJECTS/Mol_Feturizer/New_Systems/rnas/1byj

>  <Rbt.Executable>
rbdock ($Id: //depot/dev/client3/rdock/2013.1/src/exe/rbdock.cxx#4 $)

>  <Rbt.Library>
libRbt.so (2013.1, Build901 2013/11/27)

>  <Rbt.Parameter_File>
/export/apps/rDock/src/rDock_2013.1_src/data/scripts/dock_solv.prm

>  <Rbt.Receptor>
prm/pocket_docking_8.prm

>  <SCORE>
-35.8235

>  <SCORE.INTER>
-31.5268

>  <SCORE.INTER.CONST>
1

>  <SCORE.INTER.POLAR>
-4.73536

>  <SCORE.INTER.ROT>
6

>  <SCORE.INTER.SOLV>
20.7552

>  <SCORE.INTER.VDW>
-19.7517

>  <SCORE.INTER.norm>
-1.01699

>  <SCORE.INTRA>
-4.29671

>  <SCORE.INTRA.DIHEDRAL>
-5.5172

>  <SCORE.INTRA.DIHEDRAL.0>
18.4149

>  <SCORE.INTRA.POLAR>
0

>  <SCORE.INTRA.POLAR.0>
0

>  <SCORE.INTRA.REPUL>
-0.092687

>  <SCORE.INTRA.REPUL.0>
0.092687

>  <SCORE.INTRA.SOLV>
-1.74516

>  <SCORE.INTRA.SOLV.lig_0>
-120.37

>  <SCORE.INTRA.VDW>
-0.202099

>  <SCORE.INTRA.VDW.0>
-1.75542

>  <SCORE.INTRA.norm>
-0.138604

>  <SCORE.RESTR>
0

>  <SCORE.RESTR.CAVITY>
0

>  <SCORE.RESTR.norm>
0

>  <SCORE.SYSTEM>
0

>  <SCORE.SYSTEM.CONST>
0

>  <SCORE.SYSTEM.DIHEDRAL>
0

>  <SCORE.SYSTEM.SOLV>
0

>  <SCORE.SYSTEM.norm>
0

>  <SCORE.heavy>
31

>  <SCORE.norm>
-1.1556

>  <RMSD>
3.008

$$$$
1byj cryst
 OpenBabel11021811383D
libRbt.so/2013.1/901 2013/11/27
 31 33  0  0  0  0  0  0  0  0999 V2000
    7.9908    1.8334   -0.7248 C   0  0  1  0  0  0  0  0  0  0  0  0
    8.3701    3.1079   -1.3363 O   0  0  0  0  0  0  0  0  0  0  0  0
    8.5563    3.1623   -2.7823 C   0  0  2  0  0  0  0  0  0  0  0  0
    7.2888    2.9844   -3.4885 O   0  0  0  0  0  0  0  0  0  0  0  0
    9.5917    2.0780   -3.2096 C   0  0  2  0  0  0  0  0  0  0  0  0
    9.8462    2.0568   -4.6635 N   0  3  0  0  0  0  0  0  0  0  0  0
    9.1308    0.6805   -2.7214 C   0  0  0  0  0  0  0  0  0  0  0  0
    8.9073    0.6730   -1.2017 C   0  0  0  0  0  0  0  0  0  0  0  0
    8.0809    1.9547    0.8066 C   0  0  0  0  0  0  0  0  0  0  0  0
    7.1497    2.9348    1.3804 N   0  3  0  0  0  0  0  0  0  0  0  0
    7.3931    5.3857   -4.0300 C   0  0  1  0  0  0  0  0  0  0  0  0
    6.5775    6.6883   -4.2166 C   0  0  0  0  0  0  0  0  0  0  0  0
    5.7355    6.9889   -2.9475 C   0  0  1  0  0  0  0  0  0  0  0  0
    5.0246    8.2717   -3.1086 N   0  3  0  0  0  0  0  0  0  0  0  0
    4.7562    5.8142   -2.6599 C   0  0  1  0  0  0  0  0  0  0  0  0
    5.5015    4.4594   -2.5645 C   0  0  1  0  0  0  0  0  0  0  0  0
    4.5040    3.4531   -2.4734 O   0  0  0  0  0  0  0  0  0  0  0  0
    6.4614    4.1584   -3.7626 C   0  0  2  0  0  0  0  0  0  0  0  0
    8.2658    5.1641   -5.1964 N   0  3  0  0  0  0  0  0  0  0  0  0
    1.1989    5.3038   -2.1410 C   0  0  0  0  0  0  0  0  0  0  0  0
    0.3915    5.4104   -0.8240 C   0  0  2  0  0  0  0  0  0  0  0  0
   -0.5985    6.4187   -1.0225 O   0  0  0  0  0  0  0  0  0  0  0  0
    1.3608    5.7990    0.3553 C   0  0  1  0  0  0  0  0  0  0  0  0
    2.2899    7.0111    0.0064 C   0  0  2  0  0  0  0  0  0  0  0  0
    2.9289    6.9138   -1.4022 C   0  0  1  0  0  0  0  0  0  0  0  0
    4.0709    6.0174   -1.3912 O   0  0  0  0  0  0  0  0  0  0  0  0
    1.9416    6.5252   -2.3987 O   0  0  0  0  0  0  0  0  0  0  0  0
    3.3264    7.1683    0.9719 O   0  0  0  0  0  0  0  0  0  0  0  0
    0.5662    6.0816    1.5911 N   0  3  0  0  0  0  0  0  0  0  0  0
    0.2910    4.9400    2.4872 C   0  0  0  0  0  0  0  0  0  0  0  0
   -0.3539    4.0733   -0.5907 C   0  0  0  0  0  0  0  0  0  0  0  0
  1  8  1  0  0  0  0
  1  9  1  1  0  0  0
  1  2  1  0  0  0  0
  2  3  1  0  0  0  0
  3  5  1  0  0  0  0
  3  4  1  6  0  0  0
  5  7  1  0  0  0  0
  5  6  1  6  0  0  0
  7  8  1  0  0  0  0
  9 10  1  0  0  0  0
 11 12  1  0  0  0  0
 11 18  1  0  0  0  0
 11 19  1  6  0  0  0
 12 13  1  0  0  0  0
 13 15  1  0  0  0  0
 13 14  1  6  0  0  0
 15 16  1  0  0  0  0
 15 26  1  1  0  0  0
 16 18  1  0  0  0  0
 16 17  1  6  0  0  0
 18  4  1  1  0  0  0
 20 21  1  0  0  0  0
 20 27  1  0  0  0  0
 21 31  1  1  0  0  0
 21 23  1  0  0  0  0
 21 22  1  0  0  0  0
 23 24  1  0  0  0  0
 23 29  1  1  0  0  0
 24 25  1  0  0  0  0
 24 28  1  1  0  0  0
 25 27  1  0  0  0  0
 25 26  1  1  0  0  0
 29 30  1  0  0  0  0
M  CHG  5   6   1  10   1  14   1  19   1  29   1
M  END
>  <CHROM.1>
63.28828622,87.72607975,33.96599225,73.08949031,-62.78461397,145.63394731
-168.89816739,81.00494307,59.20445584,170.81703853,-149.24246872,63.86823064
178.99203229,5.03088547,4.65021475,-1.70935563,0.01755932,-0.51735405,2.26855829

>  <Name>
1byj cryst

>  <RI>
0

>  <Rbt.Current_Directory>
/home/itssahil/PROJECTS/Mol_Feturizer/New_Systems/rnas/1byj

>  <Rbt.Executable>
rbdock ($Id: //depot/dev/client3/rdock/2013.1/src/exe/rbdock.cxx#4 $)

>  <Rbt.Library>
libRbt.so (2013.1, Build901 2013/11/27)

>  <Rbt.Parameter_File>
/export/apps/rDock/src/rDock_2013.1_src/data/scripts/dock_solv.prm

>  <Rbt.Receptor>
prm/pocket_docking_6.prm

>  <SCORE>
-46.7043

>  <SCORE.INTER>
-44.9345

>  <SCORE.INTER.CONST>
1

>  <SCORE.INTER.POLAR>
-7.17661

>  <SCORE.INTER.ROT>
6

>  <SCORE.INTER.SOLV>
17.5195

>  <SCORE.INTER.VDW>
-19.4741

>  <SCORE.INTER.norm>
-1.4495

>  <SCORE.INTRA>
-1.7698

>  <SCORE.INTRA.DIHEDRAL>
-4.94845

>  <SCORE.INTRA.DIHEDRAL.0>
18.4149

>  <SCORE.INTRA.POLAR>
-0.0043194

>  <SCORE.INTRA.POLAR.0>
0

>  <SCORE.INTRA.REPUL>
-0.092687

>  <SCORE.INTRA.REPUL.0>
0.092687

>  <SCORE.INTRA.SOLV>
1.07657

>  <SCORE.INTRA.SOLV.lig_0>
-120.37

>  <SCORE.INTRA.VDW>
0.644257

>  <SCORE.INTRA.VDW.0>
-1.75542

>  <SCORE.INTRA.norm>
-0.0570904

>  <SCORE.RESTR>
0

>  <SCORE.RESTR.CAVITY>
0

>  <SCORE.RESTR.norm>
0

>  <SCORE.SYSTEM>
0

>  <SCORE.SYSTEM.CONST>
0

>  <SCORE.SYSTEM.DIHEDRAL>
0

>  <SCORE.SYSTEM.SOLV>
0

>  <SCORE.SYSTEM.norm>
0

>  <SCORE.heavy>
31

>  <SCORE.norm>
-1.50659

>  <RMSD>
3.013

$$$$
1byj cryst
 OpenBabel11021811383D
libRbt.so/2013.1/901 2013/11/27
 31 33  0  0  0  0  0  0  0  0999 V2000
    8.0982    1.7221   -0.8458 C   0  0  1  0  0  0  0  0  0  0  0  0
    8.5195    3.0014   -1.4185 O   0  0  0  0  0  0  0  0  0  0  0  0
    8.7149    3.0916   -2.8616 C   0  0  2  0  0  0  0  0  0  0  0  0
    7.4464    2.9730   -3.5782 O   0  0  0  0  0  0  0  0  0  0  0  0
    9.7190    1.9887   -3.3154 C   0  0  2  0  0  0  0  0  0  0  0  0
    9.9806    2.0015   -4.7681 N   0  3  0  0  0  0  0  0  0  0  0  0
    9.2130    0.5925   -2.8697 C   0  0  0  0  0  0  0  0  0  0  0  0
    8.9813    0.5483   -1.3519 C   0  0  0  0  0  0  0  0  0  0  0  0
    8.1838    1.7965    0.6889 C   0  0  0  0  0  0  0  0  0  0  0  0
    7.2433    2.7509    1.2904 N   0  3  0  0  0  0  0  0  0  0  0  0
    7.6536    5.3931   -3.9915 C   0  0  1  0  0  0  0  0  0  0  0  0
    6.8888    6.7272   -4.1694 C   0  0  0  0  0  0  0  0  0  0  0  0
    5.9675    6.9927   -2.9485 C   0  0  1  0  0  0  0  0  0  0  0  0
    5.3047    8.3027   -3.0948 N   0  3  0  0  0  0  0  0  0  0  0  0
    4.9389    5.8360   -2.7882 C   0  0  1  0  0  0  0  0  0  0  0  0
    5.6387    4.4561   -2.7085 C   0  0  1  0  0  0  0  0  0  0  0  0
    4.6104    3.4775   -2.7369 O   0  0  0  0  0  0  0  0  0  0  0  0
    6.6725    4.1833   -3.8505 C   0  0  2  0  0  0  0  0  0  0  0  0
    8.6005    5.2008   -5.1040 N   0  3  0  0  0  0  0  0  0  0  0  0
    1.3740    5.2282   -2.5108 C   0  0  0  0  0  0  0  0  0  0  0  0
    0.4805    5.2862   -1.2475 C   0  0  2  0  0  0  0  0  0  0  0  0
   -0.5214    6.2727   -1.4905 O   0  0  0  0  0  0  0  0  0  0  0  0
    1.3607    5.6745   -0.0002 C   0  0  1  0  0  0  0  0  0  0  0  0
    2.2773    6.9171   -0.2641 C   0  0  2  0  0  0  0  0  0  0  0  0
    3.0085    6.8662   -1.6296 C   0  0  1  0  0  0  0  0  0  0  0  0
    4.1711    5.9994   -1.5616 O   0  0  0  0  0  0  0  0  0  0  0  0
    2.0986    6.4735   -2.6958 O   0  0  0  0  0  0  0  0  0  0  0  0
    3.2446    7.0805    0.7698 O   0  0  0  0  0  0  0  0  0  0  0  0
    0.4804    5.9104    1.1864 N   0  3  0  0  0  0  0  0  0  0  0  0
    0.2504    4.7642    2.0893 C   0  0  0  0  0  0  0  0  0  0  0  0
   -0.2420    3.9257   -1.0894 C   0  0  0  0  0  0  0  0  0  0  0  0
  1  8  1  0  0  0  0
  1  9  1  1  0  0  0
  1  2  1  0  0  0  0
  2  3  1  0  0  0  0
  3  5  1  0  0  0  0
  3  4  1  6  0  0  0
  5  7  1  0  0  0  0
  5  6  1  6  0  0  0
  7  8  1  0  0  0  0
  9 10  1  0  0  0  0
 11 12  1  0  0  0  0
 11 18  1  0  0  0  0
 11 19  1  6  0  0  0
 12 13  1  0  0  0  0
 13 15  1  0  0  0  0
 13 14  1  6  0  0  0
 15 16  1  0  0  0  0
 15 26  1  1  0  0  0
 16 18  1  0  0  0  0
 16 17  1  6  0  0  0
 18  4  1  1  0  0  0
 20 21  1  0  0  0  0
 20 27  1  0  0  0  0
 21 31  1  1  0  0  0
 21 23  1  0  0  0  0
 21 22  1  0  0  0  0
 23 24  1  0  0  0  0
 23 29  1  1  0  0  0
 24 25  1  0  0  0  0
 24 28  1  1  0  0  0
 25 27  1  0  0  0  0
 25 26  1  1  0  0  0
 29 30  1  0  0  0  0
M  CHG  5   6   1  10   1  14   1  19   1  29   1
M  END
>  <CHROM.1>
65.51347165,89.19895804,29.55948655,-49.81007749,-61.34354546,-106.42325453
-55.25955329,84.67995643,63.85373318,-59.64240749,-145.35780753,59.57564984
178.72460609,5.15575671,4.58484357,-1.89241428,0.07626666,-0.48563767,2.33767726

>  <Name>
1byj cryst

>  <RI>
0

>  <Rbt.Current_Directory>
/home/itssahil/PROJECTS/Mol_Feturizer/New_Systems/rnas/1byj

>  <Rbt.Executable>
rbdock ($Id: //depot/dev/client3/rdock/2013.1/src/exe/rbdock.cxx#4 $)

>  <Rbt.Library>
libRbt.so (2013.1, Build901 2013/11/27)

>  <Rbt.Parameter_File>
/export/apps/rDock/src/rDock_2013.1_src/data/scripts/dock_solv.prm

>  <Rbt.Receptor>
prm/pocket_docking_6.prm

>  <SCORE>
-41.8681

>  <SCORE.INTER>
-40.293

>  <SCORE.INTER.CONST>
1

>  <SCORE.INTER.POLAR>
-6.11474

>  <SCORE.INTER.ROT>
6

>  <SCORE.INTER.SOLV>
17.622

>  <SCORE.INTER.VDW>
-19.9536

>  <SCORE.INTER.norm>
-1.29977

>  <SCORE.INTRA>
-1.57509

>  <SCORE.INTRA.DIHEDRAL>
-2.57282

>  <SCORE.INTRA.DIHEDRAL.0>
18.4149

>  <SCORE.INTRA.POLAR>
-0.0150407

>  <SCORE.INTRA.POLAR.0>
0

>  <SCORE.INTRA.REPUL>
-0.092687

>  <SCORE.INTRA.REPUL.0>
0.092687

>  <SCORE.INTRA.SOLV>
0.934017

>  <SCORE.INTRA.SOLV.lig_0>
-120.37

>  <SCORE.INTRA.VDW>
-0.241119

>  <SCORE.INTRA.VDW.0>
-1.75542

>  <SCORE.INTRA.norm>
-0.0508095

>  <SCORE.RESTR>
0

>  <SCORE.RESTR.CAVITY>
0

>  <SCORE.RESTR.norm>
0

>  <SCORE.SYSTEM>
0

>  <SCORE.SYSTEM.CONST>
0

>  <SCORE.SYSTEM.DIHEDRAL>
0

>  <SCORE.SYSTEM.SOLV>
0

>  <SCORE.SYSTEM.norm>
0

>  <SCORE.heavy>
31

>  <SCORE.norm>
-1.35058

>  <RMSD>
3.024

$$$$
1byj cryst
 OpenBabel11021811383D
libRbt.so/2013.1/901 2013/11/27
 31 33  0  0  0  0  0  0  0  0999 V2000
    6.1388    1.7652    0.5144 C   0  0  1  0  0  0  0  0  0  0  0  0
    6.7665    3.0269    0.1195 O   0  0  0  0  0  0  0  0  0  0  0  0
    8.0166    2.9817   -0.6315 C   0  0  2  0  0  0  0  0  0  0  0  0
    7.8101    2.4453   -1.9755 O   0  0  0  0  0  0  0  0  0  0  0  0
    9.0600    2.1320    0.1557 C   0  0  2  0  0  0  0  0  0  0  0  0
   10.3632    2.0288   -0.5299 N   0  3  0  0  0  0  0  0  0  0  0  0
    8.4878    0.7201    0.4440 C   0  0  0  0  0  0  0  0  0  0  0  0
    7.1536    0.8093    1.2000 C   0  0  0  0  0  0  0  0  0  0  0  0
    4.9785    2.0531    1.4834 C   0  0  0  0  0  0  0  0  0  0  0  0
    4.0810    0.9091    1.6915 N   0  3  0  0  0  0  0  0  0  0  0  0
    8.5677    4.0309   -3.7025 C   0  0  1  0  0  0  0  0  0  0  0  0
    8.1279    5.0790   -4.7535 C   0  0  0  0  0  0  0  0  0  0  0  0
    7.2598    6.1822   -4.0907 C   0  0  1  0  0  0  0  0  0  0  0  0
    6.9132    7.2144   -5.0863 N   0  3  0  0  0  0  0  0  0  0  0  0
    5.9933    5.5534   -3.4410 C   0  0  1  0  0  0  0  0  0  0  0  0
    6.3619    4.4203   -2.4508 C   0  0  1  0  0  0  0  0  0  0  0  0
    5.1405    3.8136   -2.0556 O   0  0  0  0  0  0  0  0  0  0  0  0
    7.3360    3.3414   -3.0291 C   0  0  2  0  0  0  0  0  0  0  0  0
    9.4745    3.0464   -4.3189 N   0  3  0  0  0  0  0  0  0  0  0  0
    2.4314    5.4308   -2.3729 C   0  0  0  0  0  0  0  0  0  0  0  0
    1.6495    6.5002   -1.5712 C   0  0  2  0  0  0  0  0  0  0  0  0
    0.5752    6.9402   -2.4008 O   0  0  0  0  0  0  0  0  0  0  0  0
    2.6112    7.6961   -1.2157 C   0  0  1  0  0  0  0  0  0  0  0  0
    3.4284    8.2086   -2.4501 C   0  0  2  0  0  0  0  0  0  0  0  0
    4.0395    7.0679   -3.3028 C   0  0  1  0  0  0  0  0  0  0  0  0
    5.2516    6.5560   -2.6892 O   0  0  0  0  0  0  0  0  0  0  0  0
    3.0643    6.0143   -3.5429 O   0  0  0  0  0  0  0  0  0  0  0  0
    4.4710    9.0955   -2.0532 O   0  0  0  0  0  0  0  0  0  0  0  0
    1.8256    8.8119   -0.6026 N   0  3  0  0  0  0  0  0  0  0  0  0
    1.7446    8.8439    0.8720 C   0  0  0  0  0  0  0  0  0  0  0  0
    1.0229    5.8254   -0.3261 C   0  0  0  0  0  0  0  0  0  0  0  0
  1  8  1  0  0  0  0
  1  9  1  1  0  0  0
  1  2  1  0  0  0  0
  2  3  1  0  0  0  0
  3  5  1  0  0  0  0
  3  4  1  6  0  0  0
  5  7  1  0  0  0  0
  5  6  1  6  0  0  0
  7  8  1  0  0  0  0
  9 10  1  0  0  0  0
 11 12  1  0  0  0  0
 11 18  1  0  0  0  0
 11 19  1  6  0  0  0
 12 13  1  0  0  0  0
 13 15  1  0  0  0  0
 13 14  1  6  0  0  0
 15 16  1  0  0  0  0
 15 26  1  1  0  0  0
 16 18  1  0  0  0  0
 16 17  1  6  0  0  0
 18  4  1  1  0  0  0
 20 21  1  0  0  0  0
 20 27  1  0  0  0  0
 21 31  1  1  0  0  0
 21 23  1  0  0  0  0
 21 22  1  0  0  0  0
 23 24  1  0  0  0  0
 23 29  1  6  0  0  0
 24 25  1  0  0  0  0
 24 28  1  1  0  0  0
 25 27  1  0  0  0  0
 25 26  1  1  0  0  0
 29 30  1  0  0  0  0
M  CHG  5   6   1  10   1  14   1  19   1  29   1
M  END
>  <CHROM.1>
166.10796841,82.82817649,87.62583047,157.21873991,-173.39763926,-178.75422184
-163.29761085,104.00077131,-171.17105192,-58.25801492,-145.18766942,-61.32373571
-175.07328543,5.47478006,4.80425157,-1.68615653,0.59482858,-0.51550452,2.35648541

>  <Name>
1byj cryst

>  <RI>
0

>  <Rbt.Current_Directory>
/home/itssahil/PROJECTS/Mol_Feturizer/New_Systems/rnas/1byj

>  <Rbt.Executable>
rbdock ($Id: //depot/dev/client3/rdock/2013.1/src/exe/rbdock.cxx#4 $)

>  <Rbt.Library>
libRbt.so (2013.1, Build901 2013/11/27)

>  <Rbt.Parameter_File>
/export/apps/rDock/src/rDock_2013.1_src/data/scripts/dock_solv.prm

>  <Rbt.Receptor>
prm/pocket_docking_6.prm

>  <SCORE>
-44.4792

>  <SCORE.INTER>
-39.9812

>  <SCORE.INTER.CONST>
1

>  <SCORE.INTER.POLAR>
-6.1651

>  <SCORE.INTER.ROT>
6

>  <SCORE.INTER.SOLV>
24.6209

>  <SCORE.INTER.VDW>
-21.9108

>  <SCORE.INTER.norm>
-1.28972

>  <SCORE.INTRA>
-4.49796

>  <SCORE.INTRA.DIHEDRAL>
-1.39034

>  <SCORE.INTRA.DIHEDRAL.0>
18.4149

>  <SCORE.INTRA.POLAR>
-0.385622

>  <SCORE.INTRA.POLAR.0>
0

>  <SCORE.INTRA.REPUL>
-0.092687

>  <SCORE.INTRA.REPUL.0>
0.092687

>  <SCORE.INTRA.SOLV>
-1.43379

>  <SCORE.INTRA.SOLV.lig_0>
-120.37

>  <SCORE.INTRA.VDW>
-1.31135

>  <SCORE.INTRA.VDW.0>
-1.75542

>  <SCORE.INTRA.norm>
-0.145095

>  <SCORE.RESTR>
0

>  <SCORE.RESTR.CAVITY>
0

>  <SCORE.RESTR.norm>
0

>  <SCORE.SYSTEM>
0

>  <SCORE.SYSTEM.CONST>
0

>  <SCORE.SYSTEM.DIHEDRAL>
0

>  <SCORE.SYSTEM.SOLV>
0

>  <SCORE.SYSTEM.norm>
0

>  <SCORE.heavy>
31

>  <SCORE.norm>
-1.43481

>  <RMSD>
3.032

$$$$
1byj cryst
 OpenBabel11021811383D
libRbt.so/2013.1/901 2013/11/27
 31 33  0  0  0  0  0  0  0  0999 V2000
    9.7249    1.5760   -3.0334 C   0  0  1  0  0  0  0  0  0  0  0  0
    8.2710    1.6732   -3.1705 O   0  0  0  0  0  0  0  0  0  0  0  0
    7.5091    2.3152   -2.1048 C   0  0  2  0  0  0  0  0  0  0  0  0
    7.7884    3.7486   -2.0409 O   0  0  0  0  0  0  0  0  0  0  0  0
    7.8353    1.6207   -0.7477 C   0  0  2  0  0  0  0  0  0  0  0  0
    7.1074    2.2055    0.3955 N   0  3  0  0  0  0  0  0  0  0  0  0
    9.3636    1.6517   -0.4881 C   0  0  0  0  0  0  0  0  0  0  0  0
   10.1337    1.0033   -1.6483 C   0  0  0  0  0  0  0  0  0  0  0  0
   10.2831    0.6675   -4.1430 C   0  0  0  0  0  0  0  0  0  0  0  0
   10.1721    1.2399   -5.4910 N   0  3  0  0  0  0  0  0  0  0  0  0
    8.2649    5.7432   -3.4066 C   0  0  1  0  0  0  0  0  0  0  0  0
    7.6858    6.7725   -4.4074 C   0  0  0  0  0  0  0  0  0  0  0  0
    6.4211    7.4523   -3.8171 C   0  0  1  0  0  0  0  0  0  0  0  0
    5.9255    8.4849   -4.7472 N   0  3  0  0  0  0  0  0  0  0  0  0
    5.3336    6.3850   -3.5012 C   0  0  1  0  0  0  0  0  0  0  0  0
    5.8825    5.2646   -2.5827 C   0  0  1  0  0  0  0  0  0  0  0  0
    4.8699    4.2724   -2.5035 O   0  0  0  0  0  0  0  0  0  0  0  0
    7.2255    4.6250   -3.0671 C   0  0  2  0  0  0  0  0  0  0  0  0
    9.5211    5.1792   -3.9314 N   0  3  0  0  0  0  0  0  0  0  0  0
    3.2985    9.8843   -3.1773 C   0  0  0  0  0  0  0  0  0  0  0  0
    2.2935   10.1492   -2.0295 C   0  0  2  0  0  0  0  0  0  0  0  0
    2.8346   11.2053   -1.2372 O   0  0  0  0  0  0  0  0  0  0  0  0
    2.1172    8.8383   -1.1740 C   0  0  1  0  0  0  0  0  0  0  0  0
    3.4829    8.1866   -0.7689 C   0  0  2  0  0  0  0  0  0  0  0  0
    4.5015    8.1123   -1.9347 C   0  0  1  0  0  0  0  0  0  0  0  0
    4.2051    6.9924   -2.8097 O   0  0  0  0  0  0  0  0  0  0  0  0
    4.5563    9.3718   -2.6624 O   0  0  0  0  0  0  0  0  0  0  0  0
    3.2982    6.8780   -0.2354 O   0  0  0  0  0  0  0  0  0  0  0  0
    1.2926    9.1331    0.0391 N   0  3  0  0  0  0  0  0  0  0  0  0
   -0.1735    9.0233   -0.1036 C   0  0  0  0  0  0  0  0  0  0  0  0
    0.9680   10.6657   -2.6415 C   0  0  0  0  0  0  0  0  0  0  0  0
  1  8  1  0  0  0  0
  1  9  1  6  0  0  0
  1  2  1  0  0  0  0
  2  3  1  0  0  0  0
  3  5  1  0  0  0  0
  3  4  1  1  0  0  0
  5  7  1  0  0  0  0
  5  6  1  1  0  0  0
  7  8  1  0  0  0  0
  9 10  1  0  0  0  0
 11 12  1  0  0  0  0
 11 18  1  0  0  0  0
 11 19  1  6  0  0  0
 12 13  1  0  0  0  0
 13 15  1  0  0  0  0
 13 14  1  6  0  0  0
 15 16  1  0  0  0  0
 15 26  1  1  0  0  0
 16 18  1  0  0  0  0
 16 17  1  6  0  0  0
 18  4  1  1  0  0  0
 20 21  1  0  0  0  0
 20 27  1  0  0  0  0
 21 31  1  6  0  0  0
 21 23  1  0  0  0  0
 21 22  1  0  0  0  0
 23 24  1  0  0  0  0
 23 29  1  1  0  0  0
 24 25  1  0  0  0  0
 24 28  1  6  0  0  0
 25 27  1  0  0  0  0
 25 26  1  6  0  0  0
 29 30  1  0  0  0  0
M  CHG  5   6   1  10   1  14   1  19   1  29   1
M  END
>  <CHROM.1>
68.14587284,74.07620849,-143.03904779,-177.45964120,71.91153116,53.62876523
-30.30421985,-32.17964651,-175.71848063,-60.38781830,-151.18458703,-62.18674401
-150.48271308,5.85983016,5.82475175,-2.35653965,-0.51233298,0.70199740,-0.69439656

>  <Name>
1byj cryst

>  <RI>
0

>  <Rbt.Current_Directory>
/home/itssahil/PROJECTS/Mol_Feturizer/New_Systems/rnas/1byj

>  <Rbt.Executable>
rbdock ($Id: //depot/dev/client3/rdock/2013.1/src/exe/rbdock.cxx#4 $)

>  <Rbt.Library>
libRbt.so (2013.1, Build901 2013/11/27)

>  <Rbt.Parameter_File>
/export/apps/rDock/src/rDock_2013.1_src/data/scripts/dock_solv.prm

>  <Rbt.Receptor>
prm/pocket_docking_4.prm

>  <SCORE>
-45.5589

>  <SCORE.INTER>
-41.7167

>  <SCORE.INTER.CONST>
1

>  <SCORE.INTER.POLAR>
-4.75164

>  <SCORE.INTER.ROT>
6

>  <SCORE.INTER.SOLV>
24.2799

>  <SCORE.INTER.VDW>
-27.6656

>  <SCORE.INTER.norm>
-1.3457

>  <SCORE.INTRA>
-3.84218

>  <SCORE.INTRA.DIHEDRAL>
-1.44682

>  <SCORE.INTRA.DIHEDRAL.0>
18.4149

>  <SCORE.INTRA.POLAR>
-0.880333

>  <SCORE.INTRA.POLAR.0>
0

>  <SCORE.INTRA.REPUL>
-0.092687

>  <SCORE.INTRA.REPUL.0>
0.092687

>  <SCORE.INTRA.SOLV>
0.667328

>  <SCORE.INTRA.SOLV.lig_0>
-120.37

>  <SCORE.INTRA.VDW>
0.00413681

>  <SCORE.INTRA.VDW.0>
-1.75542

>  <SCORE.INTRA.norm>
-0.123941

>  <SCORE.RESTR>
0

>  <SCORE.RESTR.CAVITY>
0

>  <SCORE.RESTR.norm>
0

>  <SCORE.SYSTEM>
0

>  <SCORE.SYSTEM.CONST>
0

>  <SCORE.SYSTEM.DIHEDRAL>
0

>  <SCORE.SYSTEM.SOLV>
0

>  <SCORE.SYSTEM.norm>
0

>  <SCORE.heavy>
31

>  <SCORE.norm>
-1.46964

>  <RMSD>
3.036

$$$$
1byj cryst
 OpenBabel11021811383D
libRbt.so/2013.1/901 2013/11/27
 31 33  0  0  0  0  0  0  0  0999 V2000
    7.1313    2.5278   -1.2360 C   0  0  1  0  0  0  0  0  0  0  0  0
    7.9860    3.6093   -1.7280 O   0  0  0  0  0  0  0  0  0  0  0  0
    8.5111    3.5232   -3.0865 C   0  0  2  0  0  0  0  0  0  0  0  0
    7.4456    3.6593   -4.0779 O   0  0  0  0  0  0  0  0  0  0  0  0
    9.2686    2.1719   -3.2614 C   0  0  2  0  0  0  0  0  0  0  0  0
    9.8379    1.9939   -4.6117 N   0  3  0  0  0  0  0  0  0  0  0  0
    8.3320    0.9874   -2.9095 C   0  0  0  0  0  0  0  0  0  0  0  0
    7.7682    1.1333   -1.4881 C   0  0  0  0  0  0  0  0  0  0  0  0
    6.8930    2.7114    0.2732 C   0  0  0  0  0  0  0  0  0  0  0  0
    6.0479    1.6699    0.8718 N   0  3  0  0  0  0  0  0  0  0  0  0
    7.5537    6.0863   -3.6675 C   0  0  1  0  0  0  0  0  0  0  0  0
    6.7407    7.3991   -3.5565 C   0  0  0  0  0  0  0  0  0  0  0  0
    5.6083    7.2498   -2.5052 C   0  0  1  0  0  0  0  0  0  0  0  0
    4.8919    8.5307   -2.3533 N   0  3  0  0  0  0  0  0  0  0  0  0
    4.6493    6.0920   -2.9069 C   0  0  1  0  0  0  0  0  0  0  0  0
    5.4183    4.7667   -3.1358 C   0  0  1  0  0  0  0  0  0  0  0  0
    4.4796    3.8379   -3.6576 O   0  0  0  0  0  0  0  0  0  0  0  0
    6.6483    4.8848   -4.0952 C   0  0  2  0  0  0  0  0  0  0  0  0
    8.6877    6.2703   -4.5903 N   0  3  0  0  0  0  0  0  0  0  0  0
    1.0794    5.0670   -3.2616 C   0  0  0  0  0  0  0  0  0  0  0  0
    0.0553    4.8169   -2.1275 C   0  0  2  0  0  0  0  0  0  0  0  0
   -1.0042    5.7554   -2.3081 O   0  0  0  0  0  0  0  0  0  0  0  0
    0.7571    5.0233   -0.7324 C   0  0  1  0  0  0  0  0  0  0  0  0
    1.5744    6.3574   -0.6527 C   0  0  2  0  0  0  0  0  0  0  0  0
    2.4480    6.6220   -1.9052 C   0  0  1  0  0  0  0  0  0  0  0  0
    3.6739    5.8460   -1.8540 O   0  0  0  0  0  0  0  0  0  0  0  0
    1.6980    6.3745   -3.1279 O   0  0  0  0  0  0  0  0  0  0  0  0
    2.4064    6.3908    0.5039 O   0  0  0  0  0  0  0  0  0  0  0  0
   -0.2626    4.9629    0.3607 N   0  3  0  0  0  0  0  0  0  0  0  0
    0.2169    4.5824    1.7050 C   0  0  0  0  0  0  0  0  0  0  0  0
   -0.5474    3.4019   -2.3080 C   0  0  0  0  0  0  0  0  0  0  0  0
  1  8  1  0  0  0  0
  1  9  1  1  0  0  0
  1  2  1  0  0  0  0
  2  3  1  0  0  0  0
  3  5  1  0  0  0  0
  3  4  1  6  0  0  0
  5  7  1  0  0  0  0
  5  6  1  6  0  0  0
  7  8  1  0  0  0  0
  9 10  1  0  0  0  0
 11 12  1  0  0  0  0
 11 18  1  0  0  0  0
 11 19  1  6  0  0  0
 12 13  1  0  0  0  0
 13 15  1  0  0  0  0
 13 14  1  6  0  0  0
 15 16  1  0  0  0  0
 15 26  1  1  0  0  0
 16 18  1  0  0  0  0
 16 17  1  6  0  0  0
 18  4  1  1  0  0  0
 20 21  1  0  0  0  0
 20 27  1  0  0  0  0
 21 31  1  6  0  0  0
 21 23  1  0  0  0  0
 21 22  1  0  0  0  0
 23 24  1  0  0  0  0
 23 29  1  1  0  0  0
 24 25  1  0  0  0  0
 24 28  1  1  0  0  0
 25 27  1  0  0  0  0
 25 26  1  1  0  0  0
 29 30  1  0  0  0  0
M  CHG  5   6   1  10   1  14   1  19   1  29   1
M  END
>  <CHROM.1>
-179.72163109,59.76694169,33.15588789,64.22811335,-40.91047364,63.77469028
-42.06314736,88.18240399,-168.10974952,-178.48613722,-83.37162770,-65.70148509
-174.37170671,4.69009137,4.65833029,-2.16327454,0.10334502,-0.35373966,2.58979579

>  <Name>
1byj cryst

>  <RI>
0

>  <Rbt.Current_Directory>
/home/itssahil/PROJECTS/Mol_Feturizer/New_Systems/rnas/1byj

>  <Rbt.Executable>
rbdock ($Id: //depot/dev/client3/rdock/2013.1/src/exe/rbdock.cxx#4 $)

>  <Rbt.Library>
libRbt.so (2013.1, Build901 2013/11/27)

>  <Rbt.Parameter_File>
/export/apps/rDock/src/rDock_2013.1_src/data/scripts/dock_solv.prm

>  <Rbt.Receptor>
prm/pocket_docking_3.prm

>  <SCORE>
-36.0804

>  <SCORE.INTER>
-30.8272

>  <SCORE.INTER.CONST>
1

>  <SCORE.INTER.POLAR>
-4.60981

>  <SCORE.INTER.ROT>
6

>  <SCORE.INTER.SOLV>
19.1647

>  <SCORE.INTER.VDW>
-19.1737

>  <SCORE.INTER.norm>
-0.994425

>  <SCORE.INTRA>
-5.26486

>  <SCORE.INTRA.DIHEDRAL>
-7.83633

>  <SCORE.INTRA.DIHEDRAL.0>
18.4149

>  <SCORE.INTRA.POLAR>
0

>  <SCORE.INTRA.POLAR.0>
0

>  <SCORE.INTRA.REPUL>
-0.092687

>  <SCORE.INTRA.REPUL.0>
0.092687

>  <SCORE.INTRA.SOLV>
-1.12387

>  <SCORE.INTRA.SOLV.lig_0>
-120.37

>  <SCORE.INTRA.VDW>
-0.321325

>  <SCORE.INTRA.VDW.0>
-1.75542

>  <SCORE.INTRA.norm>
-0.169834

>  <SCORE.RESTR>
0.0116698

>  <SCORE.RESTR.CAVITY>
0.0116698

>  <SCORE.RESTR.norm>
0.000376446

>  <SCORE.SYSTEM>
0

>  <SCORE.SYSTEM.CONST>
0

>  <SCORE.SYSTEM.DIHEDRAL>
0

>  <SCORE.SYSTEM.SOLV>
0

>  <SCORE.SYSTEM.norm>
0

>  <SCORE.heavy>
31

>  <SCORE.norm>
-1.16388

>  <RMSD>
3.040

$$$$
1byj cryst
 OpenBabel11021811383D
libRbt.so/2013.1/901 2013/11/27
 31 33  0  0  0  0  0  0  0  0999 V2000
    7.9633    1.7559   -0.7241 C   0  0  1  0  0  0  0  0  0  0  0  0
    8.3500    3.0468   -1.2951 O   0  0  0  0  0  0  0  0  0  0  0  0
    8.5547    3.1412   -2.7366 C   0  0  2  0  0  0  0  0  0  0  0  0
    7.2964    2.9830   -3.4637 O   0  0  0  0  0  0  0  0  0  0  0  0
    9.5959    2.0691   -3.1804 C   0  0  2  0  0  0  0  0  0  0  0  0
    9.8690    2.0882   -4.6310 N   0  3  0  0  0  0  0  0  0  0  0  0
    9.1292    0.6586   -2.7370 C   0  0  0  0  0  0  0  0  0  0  0  0
    8.8862    0.6091   -1.2211 C   0  0  0  0  0  0  0  0  0  0  0  0
    8.0337    1.8347    0.8112 C   0  0  0  0  0  0  0  0  0  0  0  0
    7.1626    0.8704    1.4957 N   0  3  0  0  0  0  0  0  0  0  0  0
    7.4766    5.3716   -4.0401 C   0  0  1  0  0  0  0  0  0  0  0  0
    6.7000    6.6912   -4.2685 C   0  0  0  0  0  0  0  0  0  0  0  0
    5.8338    7.0340   -3.0267 C   0  0  1  0  0  0  0  0  0  0  0  0
    5.1607    8.3316   -3.2266 N   0  3  0  0  0  0  0  0  0  0  0  0
    4.8174    5.8895   -2.7463 C   0  0  1  0  0  0  0  0  0  0  0  0
    5.5247    4.5180   -2.6100 C   0  0  1  0  0  0  0  0  0  0  0  0
    4.4995    3.5390   -2.5291 O   0  0  0  0  0  0  0  0  0  0  0  0
    6.5070    4.1729   -3.7777 C   0  0  2  0  0  0  0  0  0  0  0  0
    8.3731    5.1087   -5.1797 N   0  3  0  0  0  0  0  0  0  0  0  0
    1.3698    5.3851   -0.3672 C   0  0  0  0  0  0  0  0  0  0  0  0
    1.1135    6.3889    0.7835 C   0  0  2  0  0  0  0  0  0  0  0  0
   -0.0599    7.1250    0.4408 O   0  0  0  0  0  0  0  0  0  0  0  0
    2.3552    7.3470    0.9300 C   0  0  1  0  0  0  0  0  0  0  0  0
    2.8197    7.9560   -0.4366 C   0  0  2  0  0  0  0  0  0  0  0  0
    2.8874    6.9169   -1.5844 C   0  0  1  0  0  0  0  0  0  0  0  0
    4.1051    6.1310   -1.4993 O   0  0  0  0  0  0  0  0  0  0  0  0
    1.6982    6.0776   -1.6011 O   0  0  0  0  0  0  0  0  0  0  0  0
    4.0884    8.5943   -0.3185 O   0  0  0  0  0  0  0  0  0  0  0  0
    2.0443    8.4315    1.9127 N   0  3  0  0  0  0  0  0  0  0  0  0
    3.1734    9.2681    2.3677 C   0  0  0  0  0  0  0  0  0  0  0  0
    0.7969    5.5928    2.0735 C   0  0  0  0  0  0  0  0  0  0  0  0
  1  8  1  0  0  0  0
  1  9  1  1  0  0  0
  1  2  1  0  0  0  0
  2  3  1  0  0  0  0
  3  5  1  0  0  0  0
  3  4  1  6  0  0  0
  5  7  1  0  0  0  0
  5  6  1  6  0  0  0
  7  8  1  0  0  0  0
  9 10  1  0  0  0  0
 11 12  1  0  0  0  0
 11 18  1  0  0  0  0
 11 19  1  6  0  0  0
 12 13  1  0  0  0  0
 13 15  1  0  0  0  0
 13 14  1  6  0  0  0
 15 16  1  0  0  0  0
 15 26  1  1  0  0  0
 16 18  1  0  0  0  0
 16 17  1  6  0  0  0
 18  4  1  1  0  0  0
 20 21  1  0  0  0  0
 20 27  1  0  0  0  0
 21 31  1  1  0  0  0
 21 23  1  0  0  0  0
 21 22  1  0  0  0  0
 23 24  1  0  0  0  0
 23 29  1  1  0  0  0
 24 25  1  0  0  0  0
 24 28  1  1  0  0  0
 25 27  1  0  0  0  0
 25 26  1  1  0  0  0
 29 30  1  0  0  0  0
M  CHG  5   6   1  10   1  14   1  19   1  29   1
M  END
>  <CHROM.1>
155.22950416,90.93345063,33.49447820,75.99157396,-132.28318050,26.82676677
-167.42895813,88.69051384,68.33742681,179.10086130,-70.24739458,50.40893798
-136.62009694,5.34412060,5.01178874,-1.49130525,0.13542882,-0.72231193,2.33589220

>  <Name>
1byj cryst

>  <RI>
0

>  <Rbt.Current_Directory>
/home/itssahil/PROJECTS/Mol_Feturizer/New_Systems/rnas/1byj

>  <Rbt.Executable>
rbdock ($Id: //depot/dev/client3/rdock/2013.1/src/exe/rbdock.cxx#4 $)

>  <Rbt.Library>
libRbt.so (2013.1, Build901 2013/11/27)

>  <Rbt.Parameter_File>
/export/apps/rDock/src/rDock_2013.1_src/data/scripts/dock_solv.prm

>  <Rbt.Receptor>
prm/pocket_docking_6.prm

>  <SCORE>
-40.0635

>  <SCORE.INTER>
-41.3264

>  <SCORE.INTER.CONST>
1

>  <SCORE.INTER.POLAR>
-6.59903

>  <SCORE.INTER.ROT>
6

>  <SCORE.INTER.SOLV>
22.6888

>  <SCORE.INTER.VDW>
-20.7171

>  <SCORE.INTER.norm>
-1.33311

>  <SCORE.INTRA>
1.26292

>  <SCORE.INTRA.DIHEDRAL>
7.12873

>  <SCORE.INTRA.DIHEDRAL.0>
18.4149

>  <SCORE.INTRA.POLAR>
-0.926074

>  <SCORE.INTRA.POLAR.0>
0

>  <SCORE.INTRA.REPUL>
-0.092687

>  <SCORE.INTRA.REPUL.0>
0.092687

>  <SCORE.INTRA.SOLV>
3.10262

>  <SCORE.INTRA.SOLV.lig_0>
-120.37

>  <SCORE.INTRA.VDW>
-0.240668

>  <SCORE.INTRA.VDW.0>
-1.75542

>  <SCORE.INTRA.norm>
0.0407394

>  <SCORE.RESTR>
0

>  <SCORE.RESTR.CAVITY>
0

>  <SCORE.RESTR.norm>
0

>  <SCORE.SYSTEM>
0

>  <SCORE.SYSTEM.CONST>
0

>  <SCORE.SYSTEM.DIHEDRAL>
0

>  <SCORE.SYSTEM.SOLV>
0

>  <SCORE.SYSTEM.norm>
0

>  <SCORE.heavy>
31

>  <SCORE.norm>
-1.29237

>  <RMSD>
3.046

$$$$
1byj cryst
 OpenBabel11021811383D
libRbt.so/2013.1/901 2013/11/27
 31 33  0  0  0  0  0  0  0  0999 V2000
    7.3418    2.5716   -1.8390 C   0  0  1  0  0  0  0  0  0  0  0  0
    8.4466    3.4780   -2.1552 O   0  0  0  0  0  0  0  0  0  0  0  0
    9.0691    3.3897   -3.4718 C   0  0  2  0  0  0  0  0  0  0  0  0
    8.1551    3.8331   -4.5228 O   0  0  0  0  0  0  0  0  0  0  0  0
    9.5405    1.9249   -3.7216 C   0  0  2  0  0  0  0  0  0  0  0  0
   10.1861    1.7370   -5.0357 N   0  3  0  0  0  0  0  0  0  0  0  0
    8.3478    0.9474   -3.5609 C   0  0  0  0  0  0  0  0  0  0  0  0
    7.6940    1.0971   -2.1790 C   0  0  0  0  0  0  0  0  0  0  0  0
    7.0043    2.6804   -0.3415 C   0  0  0  0  0  0  0  0  0  0  0  0
    5.8317    1.8932    0.0615 N   0  3  0  0  0  0  0  0  0  0  0  0
    8.5403    6.1213   -3.6944 C   0  0  1  0  0  0  0  0  0  0  0  0
    7.9075    7.5124   -3.4478 C   0  0  0  0  0  0  0  0  0  0  0  0
    6.6377    7.3831   -2.5642 C   0  0  1  0  0  0  0  0  0  0  0  0
    6.0900    8.7217   -2.2728 N   0  3  0  0  0  0  0  0  0  0  0  0
    5.5899    6.4651   -3.2577 C   0  0  1  0  0  0  0  0  0  0  0  0
    6.1932    5.0867   -3.6266 C   0  0  1  0  0  0  0  0  0  0  0  0
    5.2124    4.4074   -4.3964 O   0  0  0  0  0  0  0  0  0  0  0  0
    7.5425    5.1563   -4.4151 C   0  0  2  0  0  0  0  0  0  0  0  0
    9.7996    6.2647   -4.4461 N   0  3  0  0  0  0  0  0  0  0  0  0
    2.7452    3.7339   -1.9098 C   0  0  0  0  0  0  0  0  0  0  0  0
    1.4734    4.2418   -1.1872 C   0  0  2  0  0  0  0  0  0  0  0  0
    0.3643    3.9357   -2.0311 O   0  0  0  0  0  0  0  0  0  0  0  0
    1.5889    5.7951   -0.9522 C   0  0  1  0  0  0  0  0  0  0  0  0
    2.0183    6.5762   -2.2403 C   0  0  2  0  0  0  0  0  0  0  0  0
    3.1904    5.9098   -3.0046 C   0  0  1  0  0  0  0  0  0  0  0  0
    4.4608    6.2164   -2.3723 O   0  0  0  0  0  0  0  0  0  0  0  0
    2.9804    4.4754   -3.1365 O   0  0  0  0  0  0  0  0  0  0  0  0
    2.3724    7.9235   -1.9393 O   0  0  0  0  0  0  0  0  0  0  0  0
    0.2939    6.3240   -0.4212 N   0  3  0  0  0  0  0  0  0  0  0  0
    0.2915    7.7142    0.0780 C   0  0  0  0  0  0  0  0  0  0  0  0
    1.2922    3.4346    0.1219 C   0  0  0  0  0  0  0  0  0  0  0  0
  1  8  1  0  0  0  0
  1  9  1  1  0  0  0
  1  2  1  0  0  0  0
  2  3  1  0  0  0  0
  3  5  1  0  0  0  0
  3  4  1  6  0  0  0
  5  7  1  0  0  0  0
  5  6  1  6  0  0  0
  7  8  1  0  0  0  0
  9 10  1  0  0  0  0
 11 12  1  0  0  0  0
 11 18  1  0  0  0  0
 11 19  1  6  0  0  0
 12 13  1  0  0  0  0
 13 15  1  0  0  0  0
 13 14  1  6  0  0  0
 15 16  1  0  0  0  0
 15 26  1  1  0  0  0
 16 18  1  0  0  0  0
 16 17  1  6  0  0  0
 18  4  1  1  0  0  0
 20 21  1  0  0  0  0
 20 27  1  0  0  0  0
 21 31  1  1  0  0  0
 21 23  1  0  0  0  0
 21 22  1  0  0  0  0
 23 24  1  0  0  0  0
 23 29  1  6  0  0  0
 24 25  1  0  0  0  0
 24 28  1  1  0  0  0
 25 27  1  0  0  0  0
 25 26  1  1  0  0  0
 29 30  1  0  0  0  0
M  CHG  5   6   1  10   1  14   1  19   1  29   1
M  END
>  <CHROM.1>
175.13812112,54.29914588,32.22789382,174.20976209,-54.41680151,-171.65071357
-56.03355796,153.72465110,-72.81447075,59.17895393,-69.28224238,-177.24245239
-141.43566069,5.40345186,4.74843976,-2.51449496,0.24101959,-0.37366982,2.92800338

>  <Name>
1byj cryst

>  <RI>
0

>  <Rbt.Current_Directory>
/home/itssahil/PROJECTS/Mol_Feturizer/New_Systems/rnas/1byj

>  <Rbt.Executable>
rbdock ($Id: //depot/dev/client3/rdock/2013.1/src/exe/rbdock.cxx#4 $)

>  <Rbt.Library>
libRbt.so (2013.1, Build901 2013/11/27)

>  <Rbt.Parameter_File>
/export/apps/rDock/src/rDock_2013.1_src/data/scripts/dock_solv.prm

>  <Rbt.Receptor>
prm/pocket_docking_8.prm

>  <SCORE>
-39.269

>  <SCORE.INTER>
-33.0566

>  <SCORE.INTER.CONST>
1

>  <SCORE.INTER.POLAR>
-5.2687

>  <SCORE.INTER.ROT>
6

>  <SCORE.INTER.SOLV>
23.4648

>  <SCORE.INTER.VDW>
-19.897

>  <SCORE.INTER.norm>
-1.06634

>  <SCORE.INTRA>
-6.21238

>  <SCORE.INTRA.DIHEDRAL>
-5.18109

>  <SCORE.INTRA.DIHEDRAL.0>
18.4149

>  <SCORE.INTRA.POLAR>
-0.904939

>  <SCORE.INTRA.POLAR.0>
0

>  <SCORE.INTRA.REPUL>
-0.092687

>  <SCORE.INTRA.REPUL.0>
0.092687

>  <SCORE.INTRA.SOLV>
-1.92022

>  <SCORE.INTRA.SOLV.lig_0>
-120.37

>  <SCORE.INTRA.VDW>
0.878501

>  <SCORE.INTRA.VDW.0>
-1.75542

>  <SCORE.INTRA.norm>
-0.200399

>  <SCORE.RESTR>
0

>  <SCORE.RESTR.CAVITY>
0

>  <SCORE.RESTR.norm>
0

>  <SCORE.SYSTEM>
0

>  <SCORE.SYSTEM.CONST>
0

>  <SCORE.SYSTEM.DIHEDRAL>
0

>  <SCORE.SYSTEM.SOLV>
0

>  <SCORE.SYSTEM.norm>
0

>  <SCORE.heavy>
31

>  <SCORE.norm>
-1.26674

>  <RMSD>
3.064

$$$$
1byj cryst
 OpenBabel11021811383D
libRbt.so/2013.1/901 2013/11/27
 31 33  0  0  0  0  0  0  0  0999 V2000
    7.2678    2.4341   -1.1655 C   0  0  1  0  0  0  0  0  0  0  0  0
    8.1147    3.5134   -1.6754 O   0  0  0  0  0  0  0  0  0  0  0  0
    8.5953    3.4355   -3.0507 C   0  0  2  0  0  0  0  0  0  0  0  0
    7.4997    3.5886   -4.0061 O   0  0  0  0  0  0  0  0  0  0  0  0
    9.3362    2.0801   -3.2616 C   0  0  2  0  0  0  0  0  0  0  0  0
    9.8605    1.9100   -4.6310 N   0  3  0  0  0  0  0  0  0  0  0  0
    8.4020    0.8997   -2.8901 C   0  0  0  0  0  0  0  0  0  0  0  0
    7.8852    1.0371   -1.4502 C   0  0  0  0  0  0  0  0  0  0  0  0
    7.0795    2.6059    0.3521 C   0  0  0  0  0  0  0  0  0  0  0  0
    6.1183    1.6646    0.9414 N   0  3  0  0  0  0  0  0  0  0  0  0
    7.8692    6.0146   -3.7864 C   0  0  1  0  0  0  0  0  0  0  0  0
    7.2019    7.4115   -3.7800 C   0  0  0  0  0  0  0  0  0  0  0  0
    6.0667    7.4667   -2.7226 C   0  0  1  0  0  0  0  0  0  0  0  0
    5.4923    8.8248   -2.6728 N   0  3  0  0  0  0  0  0  0  0  0  0
    4.9869    6.3905   -3.0346 C   0  0  1  0  0  0  0  0  0  0  0  0
    5.6084    4.9767   -3.1577 C   0  0  1  0  0  0  0  0  0  0  0  0
    4.5725    4.1159   -3.6073 O   0  0  0  0  0  0  0  0  0  0  0  0
    6.8379    4.8873   -4.1208 C   0  0  2  0  0  0  0  0  0  0  0  0
    9.0105    6.0037   -4.7183 N   0  3  0  0  0  0  0  0  0  0  0  0
    1.2782    7.4468   -2.7956 C   0  0  0  0  0  0  0  0  0  0  0  0
    0.4133    7.4167   -1.5116 C   0  0  2  0  0  0  0  0  0  0  0  0
    0.0431    8.7650   -1.2266 O   0  0  0  0  0  0  0  0  0  0  0  0
    1.2524    6.8023   -0.3285 C   0  0  1  0  0  0  0  0  0  0  0  0
    2.6767    7.4409   -0.1955 C   0  0  2  0  0  0  0  0  0  0  0  0
    3.4133    7.5949   -1.5503 C   0  0  1  0  0  0  0  0  0  0  0  0
    3.9974    6.3331   -1.9678 O   0  0  0  0  0  0  0  0  0  0  0  0
    2.5295    8.1479   -2.5662 O   0  0  0  0  0  0  0  0  0  0  0  0
    3.5020    6.6938    0.6944 O   0  0  0  0  0  0  0  0  0  0  0  0
    0.4924    6.9356    0.9533 N   0  3  0  0  0  0  0  0  0  0  0  0
    0.9299    6.0910    2.0834 C   0  0  0  0  0  0  0  0  0  0  0  0
   -0.8897    6.6351   -1.8106 C   0  0  0  0  0  0  0  0  0  0  0  0
  1  8  1  0  0  0  0
  1  9  1  1  0  0  0
  1  2  1  0  0  0  0
  2  3  1  0  0  0  0
  3  5  1  0  0  0  0
  3  4  1  6  0  0  0
  5  7  1  0  0  0  0
  5  6  1  6  0  0  0
  7  8  1  0  0  0  0
  9 10  1  0  0  0  0
 11 12  1  0  0  0  0
 11 18  1  0  0  0  0
 11 19  1  6  0  0  0
 12 13  1  0  0  0  0
 13 15  1  0  0  0  0
 13 14  1  6  0  0  0
 15 16  1  0  0  0  0
 15 26  1  1  0  0  0
 16 18  1  0  0  0  0
 16 17  1  6  0  0  0
 18  4  1  1  0  0  0
 20 21  1  0  0  0  0
 20 27  1  0  0  0  0
 21 31  1  6  0  0  0
 21 23  1  0  0  0  0
 21 22  1  0  0  0  0
 23 24  1  0  0  0  0
 23 29  1  1  0  0  0
 24 25  1  0  0  0  0
 24 28  1  1  0  0  0
 25 27  1  0  0  0  0
 25 26  1  6  0  0  0
 29 30  1  0  0  0  0
M  CHG  5   6   1  10   1  14   1  19   1  29   1
M  END
>  <CHROM.1>
173.28946433,68.53062634,30.17183312,-58.65954255,-170.42189382,-49.90497588
-128.47052084,49.95780889,-175.11775104,-59.37241749,-75.92127394,-175.96175041
-165.26491711,5.07013304,5.34819654,-2.00993977,0.24855761,-0.56609073,2.46612204

>  <Name>
1byj cryst

>  <RI>
0

>  <Rbt.Current_Directory>
/home/itssahil/PROJECTS/Mol_Feturizer/New_Systems/rnas/1byj

>  <Rbt.Executable>
rbdock ($Id: //depot/dev/client3/rdock/2013.1/src/exe/rbdock.cxx#4 $)

>  <Rbt.Library>
libRbt.so (2013.1, Build901 2013/11/27)

>  <Rbt.Parameter_File>
/export/apps/rDock/src/rDock_2013.1_src/data/scripts/dock_solv.prm

>  <Rbt.Receptor>
prm/pocket_docking_4.prm

>  <SCORE>
-39.7163

>  <SCORE.INTER>
-35.4659

>  <SCORE.INTER.CONST>
1

>  <SCORE.INTER.POLAR>
-5.21473

>  <SCORE.INTER.ROT>
6

>  <SCORE.INTER.SOLV>
19.087

>  <SCORE.INTER.VDW>
-20.2238

>  <SCORE.INTER.norm>
-1.14406

>  <SCORE.INTRA>
-4.25048

>  <SCORE.INTRA.DIHEDRAL>
-7.68594

>  <SCORE.INTRA.DIHEDRAL.0>
18.4149

>  <SCORE.INTRA.POLAR>
-0.928674

>  <SCORE.INTRA.POLAR.0>
0

>  <SCORE.INTRA.REPUL>
-0.092687

>  <SCORE.INTRA.REPUL.0>
0.092687

>  <SCORE.INTRA.SOLV>
-0.0513588

>  <SCORE.INTRA.SOLV.lig_0>
-120.37

>  <SCORE.INTRA.VDW>
3.2391

>  <SCORE.INTRA.VDW.0>
-1.75542

>  <SCORE.INTRA.norm>
-0.137112

>  <SCORE.RESTR>
0

>  <SCORE.RESTR.CAVITY>
0

>  <SCORE.RESTR.norm>
0

>  <SCORE.SYSTEM>
0

>  <SCORE.SYSTEM.CONST>
0

>  <SCORE.SYSTEM.DIHEDRAL>
0

>  <SCORE.SYSTEM.SOLV>
0

>  <SCORE.SYSTEM.norm>
0

>  <SCORE.heavy>
31

>  <SCORE.norm>
-1.28117

>  <RMSD>
3.065

$$$$
1byj cryst
 OpenBabel11021811383D
libRbt.so/2013.1/901 2013/11/27
 31 33  0  0  0  0  0  0  0  0999 V2000
    9.3142    1.8133   -3.8449 C   0  0  1  0  0  0  0  0  0  0  0  0
    7.8772    1.8691   -3.5728 O   0  0  0  0  0  0  0  0  0  0  0  0
    7.4280    2.3988   -2.2897 C   0  0  2  0  0  0  0  0  0  0  0  0
    7.6956    3.8319   -2.1832 O   0  0  0  0  0  0  0  0  0  0  0  0
    8.1224    1.6128   -1.1363 C   0  0  2  0  0  0  0  0  0  0  0  0
    7.7279    2.0806    0.2071 N   0  3  0  0  0  0  0  0  0  0  0  0
    9.6629    1.6778   -1.3002 C   0  0  0  0  0  0  0  0  0  0  0  0
   10.0940    1.1494   -2.6766 C   0  0  0  0  0  0  0  0  0  0  0  0
    9.5588    1.0143   -5.1371 C   0  0  0  0  0  0  0  0  0  0  0  0
   10.9795    0.8286   -5.4603 N   0  3  0  0  0  0  0  0  0  0  0  0
    7.2157    6.2216   -2.5428 C   0  0  1  0  0  0  0  0  0  0  0  0
    6.3447    7.2470   -3.3087 C   0  0  0  0  0  0  0  0  0  0  0  0
    4.8368    6.9562   -3.0817 C   0  0  1  0  0  0  0  0  0  0  0  0
    4.0202    7.9857   -3.7525 N   0  3  0  0  0  0  0  0  0  0  0  0
    4.4843    5.5229   -3.5749 C   0  0  1  0  0  0  0  0  0  0  0  0
    5.3949    4.4537   -2.9209 C   0  0  1  0  0  0  0  0  0  0  0  0
    5.1024    3.2227   -3.5651 O   0  0  0  0  0  0  0  0  0  0  0  0
    6.9266    4.7582   -3.0129 C   0  0  2  0  0  0  0  0  0  0  0  0
    8.6416    6.5670   -2.6801 N   0  3  0  0  0  0  0  0  0  0  0  0
    0.8765    6.6241   -1.7263 C   0  0  0  0  0  0  0  0  0  0  0  0
   -0.1298    5.5170   -1.3272 C   0  0  2  0  0  0  0  0  0  0  0  0
   -0.1943    5.5065    0.0982 O   0  0  0  0  0  0  0  0  0  0  0  0
    0.3724    4.1290   -1.8773 C   0  0  1  0  0  0  0  0  0  0  0  0
    1.8794    3.8529   -1.5503 C   0  0  2  0  0  0  0  0  0  0  0  0
    2.8018    5.0697   -1.8160 C   0  0  1  0  0  0  0  0  0  0  0  0
    3.1103    5.1857   -3.2299 O   0  0  0  0  0  0  0  0  0  0  0  0
    2.2199    6.2932   -1.2838 O   0  0  0  0  0  0  0  0  0  0  0  0
    2.3743    2.7327   -2.2793 O   0  0  0  0  0  0  0  0  0  0  0  0
   -0.4930    3.0308   -1.3449 N   0  3  0  0  0  0  0  0  0  0  0  0
   -0.2602    1.6740   -1.8804 C   0  0  0  0  0  0  0  0  0  0  0  0
   -1.5333    5.9124   -1.8486 C   0  0  0  0  0  0  0  0  0  0  0  0
  1  8  1  0  0  0  0
  1  9  1  6  0  0  0
  1  2  1  0  0  0  0
  2  3  1  0  0  0  0
  3  5  1  0  0  0  0
  3  4  1  6  0  0  0
  5  7  1  0  0  0  0
  5  6  1  1  0  0  0
  7  8  1  0  0  0  0
  9 10  1  0  0  0  0
 11 12  1  0  0  0  0
 11 18  1  0  0  0  0
 11 19  1  6  0  0  0
 12 13  1  0  0  0  0
 13 15  1  0  0  0  0
 13 14  1  6  0  0  0
 15 16  1  0  0  0  0
 15 26  1  1  0  0  0
 16 18  1  0  0  0  0
 16 17  1  6  0  0  0
 18  4  1  1  0  0  0
 20 21  1  0  0  0  0
 20 27  1  0  0  0  0
 21 31  1  6  0  0  0
 21 23  1  0  0  0  0
 21 22  1  0  0  0  0
 23 24  1  0  0  0  0
 23 29  1  1  0  0  0
 24 25  1  0  0  0  0
 24 28  1  6  0  0  0
 25 27  1  0  0  0  0
 25 26  1  6  0  0  0
 29 30  1  0  0  0  0
M  CHG  5   6   1  10   1  14   1  19   1  29   1
M  END
>  <CHROM.1>
-176.54251293,69.69391773,170.27691737,-171.23709819,57.66957799,79.21347588
-62.40620563,-65.61845164,-65.09217810,-57.32097864,-65.67007541,52.29448866
-138.36602924,4.91411666,4.08002506,-2.44717000,0.27942096,-0.22131058,2.99786977

>  <Name>
1byj cryst

>  <RI>
0

>  <Rbt.Current_Directory>
/home/itssahil/PROJECTS/Mol_Feturizer/New_Systems/rnas/1byj

>  <Rbt.Executable>
rbdock ($Id: //depot/dev/client3/rdock/2013.1/src/exe/rbdock.cxx#4 $)

>  <Rbt.Library>
libRbt.so (2013.1, Build901 2013/11/27)

>  <Rbt.Parameter_File>
/export/apps/rDock/src/rDock_2013.1_src/data/scripts/dock_solv.prm

>  <Rbt.Receptor>
prm/pocket_docking_7.prm

>  <SCORE>
-52.3328

>  <SCORE.INTER>
-44.1414

>  <SCORE.INTER.CONST>
1

>  <SCORE.INTER.POLAR>
-6.47758

>  <SCORE.INTER.ROT>
6

>  <SCORE.INTER.SOLV>
27.7955

>  <SCORE.INTER.VDW>
-24.7008

>  <SCORE.INTER.norm>
-1.42392

>  <SCORE.INTRA>
-8.19141

>  <SCORE.INTRA.DIHEDRAL>
-9.70841

>  <SCORE.INTRA.DIHEDRAL.0>
18.4149

>  <SCORE.INTRA.POLAR>
-0.614351

>  <SCORE.INTRA.POLAR.0>
0

>  <SCORE.INTRA.REPUL>
-0.092687

>  <SCORE.INTRA.REPUL.0>
0.092687

>  <SCORE.INTRA.SOLV>
-3.13268

>  <SCORE.INTRA.SOLV.lig_0>
-120.37

>  <SCORE.INTRA.VDW>
0.78136

>  <SCORE.INTRA.VDW.0>
-1.75542

>  <SCORE.INTRA.norm>
-0.264239

>  <SCORE.RESTR>
0

>  <SCORE.RESTR.CAVITY>
0

>  <SCORE.RESTR.norm>
0

>  <SCORE.SYSTEM>
0

>  <SCORE.SYSTEM.CONST>
0

>  <SCORE.SYSTEM.DIHEDRAL>
0

>  <SCORE.SYSTEM.SOLV>
0

>  <SCORE.SYSTEM.norm>
0

>  <SCORE.heavy>
31

>  <SCORE.norm>
-1.68816

>  <RMSD>
3.086

$$$$
1byj cryst
 OpenBabel11021811383D
libRbt.so/2013.1/901 2013/11/27
 31 33  0  0  0  0  0  0  0  0999 V2000
    8.0440    1.7727   -0.6632 C   0  0  1  0  0  0  0  0  0  0  0  0
    8.3795    3.0682   -1.2560 O   0  0  0  0  0  0  0  0  0  0  0  0
    8.5321    3.1565   -2.7043 C   0  0  2  0  0  0  0  0  0  0  0  0
    7.2537    2.9628   -3.3863 O   0  0  0  0  0  0  0  0  0  0  0  0
    9.5829    2.1063   -3.1767 C   0  0  2  0  0  0  0  0  0  0  0  0
    9.8054    2.1209   -4.6359 N   0  3  0  0  0  0  0  0  0  0  0  0
    9.1660    0.6884   -2.7079 C   0  0  0  0  0  0  0  0  0  0  0  0
    8.9766    0.6446   -1.1841 C   0  0  0  0  0  0  0  0  0  0  0  0
    8.1653    1.8648    0.8681 C   0  0  0  0  0  0  0  0  0  0  0  0
    7.2367    2.8238    1.4807 N   0  3  0  0  0  0  0  0  0  0  0  0
    7.2331    5.3753   -3.8862 C   0  0  1  0  0  0  0  0  0  0  0  0
    6.3621    6.6518   -3.9789 C   0  0  0  0  0  0  0  0  0  0  0  0
    5.6187    6.9011   -2.6391 C   0  0  1  0  0  0  0  0  0  0  0  0
    4.8548    8.1610   -2.7154 N   0  3  0  0  0  0  0  0  0  0  0  0
    4.7061    5.6883   -2.2955 C   0  0  1  0  0  0  0  0  0  0  0  0
    5.5013    4.3587   -2.2889 C   0  0  1  0  0  0  0  0  0  0  0  0
    4.5486    3.3170   -2.1363 O   0  0  0  0  0  0  0  0  0  0  0  0
    6.3680    4.1119   -3.5677 C   0  0  2  0  0  0  0  0  0  0  0  0
    8.0130    5.2043   -5.1247 N   0  3  0  0  0  0  0  0  0  0  0  0
    1.2357    6.0021   -1.9532 C   0  0  0  0  0  0  0  0  0  0  0  0
    0.3639    5.9757   -0.6738 C   0  0  2  0  0  0  0  0  0  0  0  0
   -0.3677    7.2005   -0.6425 O   0  0  0  0  0  0  0  0  0  0  0  0
    1.2932    5.8438    0.5913 C   0  0  1  0  0  0  0  0  0  0  0  0
    2.4855    6.8598    0.5803 C   0  0  2  0  0  0  0  0  0  0  0  0
    3.2030    6.9550   -0.7901 C   0  0  1  0  0  0  0  0  0  0  0  0
    4.1219    5.8457   -0.9709 O   0  0  0  0  0  0  0  0  0  0  0  0
    2.2411    7.0478   -1.8787 O   0  0  0  0  0  0  0  0  0  0  0  0
    3.4484    6.5445    1.5826 O   0  0  0  0  0  0  0  0  0  0  0  0
    0.4782    6.0000    1.8362 N   0  3  0  0  0  0  0  0  0  0  0  0
    0.8141    5.1184    2.9728 C   0  0  0  0  0  0  0  0  0  0  0  0
   -0.6669    4.8271   -0.8007 C   0  0  0  0  0  0  0  0  0  0  0  0
  1  8  1  0  0  0  0
  1  9  1  1  0  0  0
  1  2  1  0  0  0  0
  2  3  1  0  0  0  0
  3  5  1  0  0  0  0
  3  4  1  6  0  0  0
  5  7  1  0  0  0  0
  5  6  1  6  0  0  0
  7  8  1  0  0  0  0
  9 10  1  0  0  0  0
 11 12  1  0  0  0  0
 11 18  1  0  0  0  0
 11 19  1  6  0  0  0
 12 13  1  0  0  0  0
 13 15  1  0  0  0  0
 13 14  1  6  0  0  0
 15 16  1  0  0  0  0
 15 26  1  1  0  0  0
 16 18  1  0  0  0  0
 16 17  1  6  0  0  0
 18  4  1  1  0  0  0
 20 21  1  0  0  0  0
 20 27  1  0  0  0  0
 21 31  1  6  0  0  0
 21 23  1  0  0  0  0
 21 22  1  0  0  0  0
 23 24  1  0  0  0  0
 23 29  1  1  0  0  0
 24 25  1  0  0  0  0
 24 28  1  1  0  0  0
 25 27  1  0  0  0  0
 25 26  1  6  0  0  0
 29 30  1  0  0  0  0
M  CHG  5   6   1  10   1  14   1  19   1  29   1
M  END
>  <CHROM.1>
62.50386076,85.18749837,37.93204532,-41.80350828,-176.98838811,54.52207965
100.94400538,64.87094799,-58.70450005,179.82424735,-98.25644987,63.61145109
170.53254562,5.04515260,4.70262686,-1.47476689,-0.01825196,-0.55926307,2.17933584

>  <Name>
1byj cryst

>  <RI>
0

>  <Rbt.Current_Directory>
/home/itssahil/PROJECTS/Mol_Feturizer/New_Systems/rnas/1byj

>  <Rbt.Executable>
rbdock ($Id: //depot/dev/client3/rdock/2013.1/src/exe/rbdock.cxx#4 $)

>  <Rbt.Library>
libRbt.so (2013.1, Build901 2013/11/27)

>  <Rbt.Parameter_File>
/export/apps/rDock/src/rDock_2013.1_src/data/scripts/dock_solv.prm

>  <Rbt.Receptor>
prm/pocket_docking_6.prm

>  <SCORE>
-47.0833

>  <SCORE.INTER>
-41.7139

>  <SCORE.INTER.CONST>
1

>  <SCORE.INTER.POLAR>
-6.66974

>  <SCORE.INTER.ROT>
6

>  <SCORE.INTER.SOLV>
17.1104

>  <SCORE.INTER.VDW>
-18.8803

>  <SCORE.INTER.norm>
-1.34561

>  <SCORE.INTRA>
-5.36934

>  <SCORE.INTRA.DIHEDRAL>
-6.32666

>  <SCORE.INTRA.DIHEDRAL.0>
18.4149

>  <SCORE.INTRA.POLAR>
-0.919841

>  <SCORE.INTRA.POLAR.0>
0

>  <SCORE.INTRA.REPUL>
-0.092687

>  <SCORE.INTRA.REPUL.0>
0.092687

>  <SCORE.INTRA.SOLV>
2.05402

>  <SCORE.INTRA.SOLV.lig_0>
-120.37

>  <SCORE.INTRA.VDW>
0.357877

>  <SCORE.INTRA.VDW.0>
-1.75542

>  <SCORE.INTRA.norm>
-0.173204

>  <SCORE.RESTR>
0

>  <SCORE.RESTR.CAVITY>
0

>  <SCORE.RESTR.norm>
0

>  <SCORE.SYSTEM>
0

>  <SCORE.SYSTEM.CONST>
0

>  <SCORE.SYSTEM.DIHEDRAL>
0

>  <SCORE.SYSTEM.SOLV>
0

>  <SCORE.SYSTEM.norm>
0

>  <SCORE.heavy>
31

>  <SCORE.norm>
-1.51881

>  <RMSD>
3.141

$$$$
1byj cryst
 OpenBabel11021811383D
libRbt.so/2013.1/901 2013/11/27
 31 33  0  0  0  0  0  0  0  0999 V2000
    6.0317    1.7686    0.4659 C   0  0  1  0  0  0  0  0  0  0  0  0
    6.6688    3.0372    0.1098 O   0  0  0  0  0  0  0  0  0  0  0  0
    7.9455    3.0053   -0.5955 C   0  0  2  0  0  0  0  0  0  0  0  0
    7.7902    2.4852   -1.9527 O   0  0  0  0  0  0  0  0  0  0  0  0
    8.9627    2.1493    0.2187 C   0  0  2  0  0  0  0  0  0  0  0  0
   10.2904    2.0588   -0.4202 N   0  3  0  0  0  0  0  0  0  0  0  0
    8.3855    0.7320    0.4684 C   0  0  0  0  0  0  0  0  0  0  0  0
    7.0244    0.8075    1.1763 C   0  0  0  0  0  0  0  0  0  0  0  0
    4.8358    2.0406    1.3954 C   0  0  0  0  0  0  0  0  0  0  0  0
    3.9529    0.8817    1.5816 N   0  3  0  0  0  0  0  0  0  0  0  0
    8.5763    4.0448   -3.6905 C   0  0  1  0  0  0  0  0  0  0  0  0
    8.1562    5.0988   -4.7437 C   0  0  0  0  0  0  0  0  0  0  0  0
    7.3184    6.2253   -4.0811 C   0  0  1  0  0  0  0  0  0  0  0  0
    6.9914    7.2614   -5.0794 N   0  3  0  0  0  0  0  0  0  0  0  0
    6.0407    5.6299   -3.4220 C   0  0  1  0  0  0  0  0  0  0  0  0
    6.3873    4.4924   -2.4289 C   0  0  1  0  0  0  0  0  0  0  0  0
    5.1538    3.9170   -2.0246 O   0  0  0  0  0  0  0  0  0  0  0  0
    7.3320    3.3879   -3.0077 C   0  0  2  0  0  0  0  0  0  0  0  0
    9.4559    3.0363   -4.3074 N   0  3  0  0  0  0  0  0  0  0  0  0
    2.3302    6.1731   -2.9963 C   0  0  0  0  0  0  0  0  0  0  0  0
    1.6428    7.3182   -2.2128 C   0  0  2  0  0  0  0  0  0  0  0  0
    0.8679    8.0603   -3.1535 O   0  0  0  0  0  0  0  0  0  0  0  0
    2.7406    8.2297   -1.5455 C   0  0  1  0  0  0  0  0  0  0  0  0
    3.8735    8.6488   -2.5431 C   0  0  2  0  0  0  0  0  0  0  0  0
    4.3927    7.4776   -3.4152 C   0  0  1  0  0  0  0  0  0  0  0  0
    5.3274    6.6532   -2.6706 O   0  0  0  0  0  0  0  0  0  0  0  0
    3.2883    6.6971   -3.9540 O   0  0  0  0  0  0  0  0  0  0  0  0
    4.9770    9.2386   -1.8608 O   0  0  0  0  0  0  0  0  0  0  0  0
    2.0965    9.4371   -0.9409 N   0  3  0  0  0  0  0  0  0  0  0  0
    1.5153   10.4248   -1.8728 C   0  0  0  0  0  0  0  0  0  0  0  0
    0.6570    6.6976   -1.1924 C   0  0  0  0  0  0  0  0  0  0  0  0
  1  8  1  0  0  0  0
  1  9  1  1  0  0  0
  1  2  1  0  0  0  0
  2  3  1  0  0  0  0
  3  5  1  0  0  0  0
  3  4  1  6  0  0  0
  5  7  1  0  0  0  0
  5  6  1  6  0  0  0
  7  8  1  0  0  0  0
  9 10  1  0  0  0  0
 11 12  1  0  0  0  0
 11 18  1  0  0  0  0
 11 19  1  6  0  0  0
 12 13  1  0  0  0  0
 13 15  1  0  0  0  0
 13 14  1  6  0  0  0
 15 16  1  0  0  0  0
 15 26  1  1  0  0  0
 16 18  1  0  0  0  0
 16 17  1  6  0  0  0
 18  4  1  1  0  0  0
 20 21  1  0  0  0  0
 20 27  1  0  0  0  0
 21 31  1  1  0  0  0
 21 23  1  0  0  0  0
 21 22  1  0  0  0  0
 23 24  1  0  0  0  0
 23 29  1  6  0  0  0
 24 25  1  0  0  0  0
 24 28  1  1  0  0  0
 25 27  1  0  0  0  0
 25 26  1  1  0  0  0
 29 30  1  0  0  0  0
M  CHG  5   6   1  10   1  14   1  19   1  29   1
M  END
>  <CHROM.1>
167.47307597,81.91192536,90.98290334,-81.87452883,-57.91605978,59.69765376
-43.53709188,85.60049871,-165.25102319,-44.01897682,52.62901000,62.85349393
-171.46013696,5.50788522,5.07747227,-1.89548963,0.76356236,-0.49175447,2.40868887

>  <Name>
1byj cryst

>  <RI>
0

>  <Rbt.Current_Directory>
/home/itssahil/PROJECTS/Mol_Feturizer/New_Systems/rnas/1byj

>  <Rbt.Executable>
rbdock ($Id: //depot/dev/client3/rdock/2013.1/src/exe/rbdock.cxx#4 $)

>  <Rbt.Library>
libRbt.so (2013.1, Build901 2013/11/27)

>  <Rbt.Parameter_File>
/export/apps/rDock/src/rDock_2013.1_src/data/scripts/dock_solv.prm

>  <Rbt.Receptor>
prm/pocket_docking_8.prm

>  <SCORE>
-50.0287

>  <SCORE.INTER>
-45.3887

>  <SCORE.INTER.CONST>
1

>  <SCORE.INTER.POLAR>
-6.78075

>  <SCORE.INTER.ROT>
6

>  <SCORE.INTER.SOLV>
25.0097

>  <SCORE.INTER.VDW>
-23.5932

>  <SCORE.INTER.norm>
-1.46415

>  <SCORE.INTRA>
-4.64001

>  <SCORE.INTRA.DIHEDRAL>
-4.20592

>  <SCORE.INTRA.DIHEDRAL.0>
18.4149

>  <SCORE.INTRA.POLAR>
-0.533195

>  <SCORE.INTRA.POLAR.0>
0

>  <SCORE.INTRA.REPUL>
-0.092687

>  <SCORE.INTRA.REPUL.0>
0.092687

>  <SCORE.INTRA.SOLV>
-2.54274

>  <SCORE.INTRA.SOLV.lig_0>
-120.37

>  <SCORE.INTRA.VDW>
1.01062

>  <SCORE.INTRA.VDW.0>
-1.75542

>  <SCORE.INTRA.norm>
-0.149678

>  <SCORE.RESTR>
0

>  <SCORE.RESTR.CAVITY>
0

>  <SCORE.RESTR.norm>
0

>  <SCORE.SYSTEM>
0

>  <SCORE.SYSTEM.CONST>
0

>  <SCORE.SYSTEM.DIHEDRAL>
0

>  <SCORE.SYSTEM.SOLV>
0

>  <SCORE.SYSTEM.norm>
0

>  <SCORE.heavy>
31

>  <SCORE.norm>
-1.61383

>  <RMSD>
3.177

$$$$
1byj cryst
 OpenBabel11021811383D
libRbt.so/2013.1/901 2013/11/27
 31 33  0  0  0  0  0  0  0  0999 V2000
    8.0130    1.8360   -0.7198 C   0  0  1  0  0  0  0  0  0  0  0  0
    8.4054    3.1035   -1.3375 O   0  0  0  0  0  0  0  0  0  0  0  0
    8.5952    3.1482   -2.7834 C   0  0  2  0  0  0  0  0  0  0  0  0
    7.3277    2.9782   -3.4914 O   0  0  0  0  0  0  0  0  0  0  0  0
    9.6214    2.0519   -3.2024 C   0  0  2  0  0  0  0  0  0  0  0  0
    9.8788    2.0203   -4.6556 N   0  3  0  0  0  0  0  0  0  0  0  0
    9.1464    0.6614   -2.7075 C   0  0  0  0  0  0  0  0  0  0  0  0
    8.9196    0.6645   -1.1883 C   0  0  0  0  0  0  0  0  0  0  0  0
    8.1009    1.9648    0.8111 C   0  0  0  0  0  0  0  0  0  0  0  0
    7.0992    2.8702    1.3892 N   0  3  0  0  0  0  0  0  0  0  0  0
    7.2787    5.4079   -3.8970 C   0  0  1  0  0  0  0  0  0  0  0  0
    6.3949    6.6785   -3.9299 C   0  0  0  0  0  0  0  0  0  0  0  0
    5.6653    6.8685   -2.5730 C   0  0  1  0  0  0  0  0  0  0  0  0
    4.8889    8.1230   -2.5914 N   0  3  0  0  0  0  0  0  0  0  0  0
    4.7681    5.6346   -2.2662 C   0  0  1  0  0  0  0  0  0  0  0  0
    5.5756    4.3135   -2.3205 C   0  0  1  0  0  0  0  0  0  0  0  0
    4.6345    3.2575   -2.1974 O   0  0  0  0  0  0  0  0  0  0  0  0
    6.4292    4.1248   -3.6178 C   0  0  2  0  0  0  0  0  0  0  0  0
    8.0454    5.2926   -5.1501 N   0  3  0  0  0  0  0  0  0  0  0  0
    1.3494    5.7250   -2.0266 C   0  0  0  0  0  0  0  0  0  0  0  0
    0.4333    5.5534   -0.7901 C   0  0  2  0  0  0  0  0  0  0  0  0
   -0.3950    6.7133   -0.7209 O   0  0  0  0  0  0  0  0  0  0  0  0
    1.3202    5.4181    0.5047 C   0  0  1  0  0  0  0  0  0  0  0  0
    2.4265    6.5227    0.6039 C   0  0  2  0  0  0  0  0  0  0  0  0
    3.1869    6.7562   -0.7262 C   0  0  1  0  0  0  0  0  0  0  0  0
    4.1984    5.7349   -0.9298 O   0  0  0  0  0  0  0  0  0  0  0  0
    2.2639    6.8394   -1.8487 O   0  0  0  0  0  0  0  0  0  0  0  0
    3.3718    6.2233    1.6277 O   0  0  0  0  0  0  0  0  0  0  0  0
    0.4473    5.4346    1.7197 N   0  3  0  0  0  0  0  0  0  0  0  0
   -0.0732    4.1345    2.1894 C   0  0  0  0  0  0  0  0  0  0  0  0
   -0.4961    4.3377   -1.0274 C   0  0  0  0  0  0  0  0  0  0  0  0
  1  8  1  0  0  0  0
  1  9  1  1  0  0  0
  1  2  1  0  0  0  0
  2  3  1  0  0  0  0
  3  5  1  0  0  0  0
  3  4  1  6  0  0  0
  5  7  1  0  0  0  0
  5  6  1  6  0  0  0
  7  8  1  0  0  0  0
  9 10  1  0  0  0  0
 11 12  1  0  0  0  0
 11 18  1  0  0  0  0
 11 19  1  6  0  0  0
 12 13  1  0  0  0  0
 13 15  1  0  0  0  0
 13 14  1  6  0  0  0
 15 16  1  0  0  0  0
 15 26  1  1  0  0  0
 16 18  1  0  0  0  0
 16 17  1  6  0  0  0
 18  4  1  1  0  0  0
 20 21  1  0  0  0  0
 20 27  1  0  0  0  0
 21 31  1  6  0  0  0
 21 23  1  0  0  0  0
 21 22  1  0  0  0  0
 23 24  1  0  0  0  0
 23 29  1  1  0  0  0
 24 25  1  0  0  0  0
 24 28  1  1  0  0  0
 25 27  1  0  0  0  0
 25 26  1  6  0  0  0
 29 30  1  0  0  0  0
M  CHG  5   6   1  10   1  14   1  19   1  29   1
M  END
>  <CHROM.1>
68.29828026,79.68002781,39.68047726,76.02663781,-169.69205960,-68.92028941
105.79367541,69.93972232,-175.84289781,-57.56259519,-149.94589791,-174.64681214
165.77785563,5.04406815,4.54938206,-1.53222829,0.00038975,-0.51622349,2.28328005

>  <Name>
1byj cryst

>  <RI>
0

>  <Rbt.Current_Directory>
/home/itssahil/PROJECTS/Mol_Feturizer/New_Systems/rnas/1byj

>  <Rbt.Executable>
rbdock ($Id: //depot/dev/client3/rdock/2013.1/src/exe/rbdock.cxx#4 $)

>  <Rbt.Library>
libRbt.so (2013.1, Build901 2013/11/27)

>  <Rbt.Parameter_File>
/export/apps/rDock/src/rDock_2013.1_src/data/scripts/dock_solv.prm

>  <Rbt.Receptor>
prm/pocket_docking_4.prm

>  <SCORE>
-44.0022

>  <SCORE.INTER>
-37.015

>  <SCORE.INTER.CONST>
1

>  <SCORE.INTER.POLAR>
-5.91331

>  <SCORE.INTER.ROT>
6

>  <SCORE.INTER.SOLV>
16.7692

>  <SCORE.INTER.VDW>
-18.1553

>  <SCORE.INTER.norm>
-1.19403

>  <SCORE.INTRA>
-6.98728

>  <SCORE.INTRA.DIHEDRAL>
-6.66202

>  <SCORE.INTRA.DIHEDRAL.0>
18.4149

>  <SCORE.INTRA.POLAR>
-1.07626

>  <SCORE.INTRA.POLAR.0>
0

>  <SCORE.INTRA.REPUL>
-0.092687

>  <SCORE.INTRA.REPUL.0>
0.092687

>  <SCORE.INTRA.SOLV>
0.441544

>  <SCORE.INTRA.SOLV.lig_0>
-120.37

>  <SCORE.INTRA.VDW>
0.245683

>  <SCORE.INTRA.VDW.0>
-1.75542

>  <SCORE.INTRA.norm>
-0.225396

>  <SCORE.RESTR>
0

>  <SCORE.RESTR.CAVITY>
0

>  <SCORE.RESTR.norm>
0

>  <SCORE.SYSTEM>
0

>  <SCORE.SYSTEM.CONST>
0

>  <SCORE.SYSTEM.DIHEDRAL>
0

>  <SCORE.SYSTEM.SOLV>
0

>  <SCORE.SYSTEM.norm>
0

>  <SCORE.heavy>
31

>  <SCORE.norm>
-1.41943

>  <RMSD>
3.206

$$$$
1byj cryst
 OpenBabel11021811383D
libRbt.so/2013.1/901 2013/11/27
 31 33  0  0  0  0  0  0  0  0999 V2000
    9.2411    1.6609   -3.9735 C   0  0  1  0  0  0  0  0  0  0  0  0
    7.8282    2.0425   -3.9862 O   0  0  0  0  0  0  0  0  0  0  0  0
    7.2383    2.5831   -2.7662 C   0  0  2  0  0  0  0  0  0  0  0  0
    7.7864    3.9006   -2.4493 O   0  0  0  0  0  0  0  0  0  0  0  0
    7.4728    1.5829   -1.5935 C   0  0  2  0  0  0  0  0  0  0  0  0
    6.9081    2.0466   -0.3109 N   0  3  0  0  0  0  0  0  0  0  0  0
    8.9872    1.2868   -1.4415 C   0  0  0  0  0  0  0  0  0  0  0  0
    9.5805    0.7576   -2.7558 C   0  0  0  0  0  0  0  0  0  0  0  0
    9.5790    0.9090   -5.2729 C   0  0  0  0  0  0  0  0  0  0  0  0
   11.0200    0.7641   -5.5175 N   0  3  0  0  0  0  0  0  0  0  0  0
    8.4095    5.7279   -3.9801 C   0  0  1  0  0  0  0  0  0  0  0  0
    7.9445    7.0407   -4.6561 C   0  0  0  0  0  0  0  0  0  0  0  0
    7.4767    8.0657   -3.5883 C   0  0  1  0  0  0  0  0  0  0  0  0
    7.1104    9.3379   -4.2397 N   0  3  0  0  0  0  0  0  0  0  0  0
    6.2992    7.4786   -2.7572 C   0  0  1  0  0  0  0  0  0  0  0  0
    6.6663    6.1077   -2.1360 C   0  0  1  0  0  0  0  0  0  0  0  0
    5.4773    5.5950   -1.5533 O   0  0  0  0  0  0  0  0  0  0  0  0
    7.2593    5.0721   -3.1476 C   0  0  2  0  0  0  0  0  0  0  0  0
    8.9474    4.8012   -4.9917 N   0  3  0  0  0  0  0  0  0  0  0  0
    3.2687    8.2453   -3.1056 C   0  0  0  0  0  0  0  0  0  0  0  0
    2.2095    8.6202   -2.0402 C   0  0  2  0  0  0  0  0  0  0  0  0
    1.5564    9.8027   -2.4998 O   0  0  0  0  0  0  0  0  0  0  0  0
    2.9223    8.8728   -0.6584 C   0  0  1  0  0  0  0  0  0  0  0  0
    4.1605    9.8251   -0.7764 C   0  0  2  0  0  0  0  0  0  0  0  0
    5.0858    9.4895   -1.9736 C   0  0  1  0  0  0  0  0  0  0  0  0
    5.9537    8.3692   -1.6581 O   0  0  0  0  0  0  0  0  0  0  0  0
    4.3112    9.2539   -3.1833 O   0  0  0  0  0  0  0  0  0  0  0  0
    4.9361    9.8225    0.4192 O   0  0  0  0  0  0  0  0  0  0  0  0
    1.9353    9.4103    0.3292 N   0  3  0  0  0  0  0  0  0  0  0  0
    2.2978    9.3174    1.7581 C   0  0  0  0  0  0  0  0  0  0  0  0
    1.1440    7.4978   -1.9852 C   0  0  0  0  0  0  0  0  0  0  0  0
  1  8  1  0  0  0  0
  1  9  1  6  0  0  0
  1  2  1  0  0  0  0
  2  3  1  0  0  0  0
  3  5  1  0  0  0  0
  3  4  1  1  0  0  0
  5  7  1  0  0  0  0
  5  6  1  1  0  0  0
  7  8  1  0  0  0  0
  9 10  1  0  0  0  0
 11 12  1  0  0  0  0
 11 18  1  0  0  0  0
 11 19  1  6  0  0  0
 12 13  1  0  0  0  0
 13 15  1  0  0  0  0
 13 14  1  6  0  0  0
 15 16  1  0  0  0  0
 15 26  1  1  0  0  0
 16 18  1  0  0  0  0
 16 17  1  6  0  0  0
 18  4  1  1  0  0  0
 20 21  1  0  0  0  0
 20 27  1  0  0  0  0
 21 31  1  1  0  0  0
 21 23  1  0  0  0  0
 21 22  1  0  0  0  0
 23 24  1  0  0  0  0
 23 29  1  1  0  0  0
 24 25  1  0  0  0  0
 24 28  1  1  0  0  0
 25 27  1  0  0  0  0
 25 26  1  1  0  0  0
 29 30  1  0  0  0  0
M  CHG  5   6   1  10   1  14   1  19   1  29   1
M  END
>  <CHROM.1>
166.00894253,80.64119557,-117.41234402,61.38412133,176.99950566,28.46069733
144.51909222,82.22759146,-70.13415634,-58.92749102,-77.23465229,-174.09496749
146.62389304,6.15733979,5.99611618,-2.46225074,0.58692800,-0.75849578,2.66343880

>  <Name>
1byj cryst

>  <RI>
0

>  <Rbt.Current_Directory>
/home/itssahil/PROJECTS/Mol_Feturizer/New_Systems/rnas/1byj

>  <Rbt.Executable>
rbdock ($Id: //depot/dev/client3/rdock/2013.1/src/exe/rbdock.cxx#4 $)

>  <Rbt.Library>
libRbt.so (2013.1, Build901 2013/11/27)

>  <Rbt.Parameter_File>
/export/apps/rDock/src/rDock_2013.1_src/data/scripts/dock_solv.prm

>  <Rbt.Receptor>
prm/pocket_docking_5.prm

>  <SCORE>
-43.272

>  <SCORE.INTER>
-43.0892

>  <SCORE.INTER.CONST>
1

>  <SCORE.INTER.POLAR>
-5.81113

>  <SCORE.INTER.ROT>
6

>  <SCORE.INTER.SOLV>
25.7688

>  <SCORE.INTER.VDW>
-25.5453

>  <SCORE.INTER.norm>
-1.38997

>  <SCORE.INTRA>
-0.182828

>  <SCORE.INTRA.DIHEDRAL>
3.7258

>  <SCORE.INTRA.DIHEDRAL.0>
18.4149

>  <SCORE.INTRA.POLAR>
-0.904997

>  <SCORE.INTRA.POLAR.0>
0

>  <SCORE.INTRA.REPUL>
-0.092687

>  <SCORE.INTRA.REPUL.0>
0.092687

>  <SCORE.INTRA.SOLV>
0.858692

>  <SCORE.INTRA.SOLV.lig_0>
-120.37

>  <SCORE.INTRA.VDW>
1.06535

>  <SCORE.INTRA.VDW.0>
-1.75542

>  <SCORE.INTRA.norm>
-0.00589769

>  <SCORE.RESTR>
0

>  <SCORE.RESTR.CAVITY>
0

>  <SCORE.RESTR.norm>
0

>  <SCORE.SYSTEM>
0

>  <SCORE.SYSTEM.CONST>
0

>  <SCORE.SYSTEM.DIHEDRAL>
0

>  <SCORE.SYSTEM.SOLV>
0

>  <SCORE.SYSTEM.norm>
0

>  <SCORE.heavy>
31

>  <SCORE.norm>
-1.39587

>  <RMSD>
3.207

$$$$
1byj cryst
 OpenBabel11021811383D
libRbt.so/2013.1/901 2013/11/27
 31 33  0  0  0  0  0  0  0  0999 V2000
    7.9297    2.1269   -0.8622 C   0  0  1  0  0  0  0  0  0  0  0  0
    8.3980    3.3285   -1.5542 O   0  0  0  0  0  0  0  0  0  0  0  0
    8.5922    3.2730   -2.9991 C   0  0  2  0  0  0  0  0  0  0  0  0
    7.3179    3.1356   -3.7019 O   0  0  0  0  0  0  0  0  0  0  0  0
    9.5518    2.0941   -3.3450 C   0  0  2  0  0  0  0  0  0  0  0  0
    9.8091    1.9581   -4.7922 N   0  3  0  0  0  0  0  0  0  0  0  0
    8.9940    0.7673   -2.7684 C   0  0  0  0  0  0  0  0  0  0  0  0
    8.7654    0.8770   -1.2534 C   0  0  0  0  0  0  0  0  0  0  0  0
    8.0228    2.3440    0.6585 C   0  0  0  0  0  0  0  0  0  0  0  0
    9.0407    3.3250    1.0569 N   0  3  0  0  0  0  0  0  0  0  0  0
    7.1490    5.5936   -3.6942 C   0  0  1  0  0  0  0  0  0  0  0  0
    6.2007    6.8069   -3.5363 C   0  0  0  0  0  0  0  0  0  0  0  0
    5.4381    6.7287   -2.1864 C   0  0  1  0  0  0  0  0  0  0  0  0
    4.5975    7.9290   -2.0141 N   0  3  0  0  0  0  0  0  0  0  0  0
    4.6014    5.4186   -2.1153 C   0  0  1  0  0  0  0  0  0  0  0  0
    5.4778    4.1666   -2.3697 C   0  0  1  0  0  0  0  0  0  0  0  0
    4.5912    3.0605   -2.4509 O   0  0  0  0  0  0  0  0  0  0  0  0
    6.3631    4.2420   -3.6573 C   0  0  2  0  0  0  0  0  0  0  0  0
    7.9429    5.7295   -4.9282 N   0  3  0  0  0  0  0  0  0  0  0  0
    2.6787    3.7205    1.4803 C   0  0  0  0  0  0  0  0  0  0  0  0
    1.6302    4.6902    2.0786 C   0  0  2  0  0  0  0  0  0  0  0  0
    0.3531    4.0748    1.9166 O   0  0  0  0  0  0  0  0  0  0  0  0
    1.6922    6.0661    1.3142 C   0  0  1  0  0  0  0  0  0  0  0  0
    1.6793    5.8991   -0.2434 C   0  0  2  0  0  0  0  0  0  0  0  0
    2.6323    4.7884   -0.7532 C   0  0  1  0  0  0  0  0  0  0  0  0
    4.0035    5.2633   -0.7966 O   0  0  0  0  0  0  0  0  0  0  0  0
    2.5004    3.5787    0.0457 O   0  0  0  0  0  0  0  0  0  0  0  0
    2.0033    7.1210   -0.9014 O   0  0  0  0  0  0  0  0  0  0  0  0
    0.5656    6.9438    1.7603 N   0  3  0  0  0  0  0  0  0  0  0  0
    0.5242    8.3138    1.2096 C   0  0  0  0  0  0  0  0  0  0  0  0
    1.8883    4.8210    3.5999 C   0  0  0  0  0  0  0  0  0  0  0  0
  1  8  1  0  0  0  0
  1  9  1  1  0  0  0
  1  2  1  0  0  0  0
  2  3  1  0  0  0  0
  3  5  1  0  0  0  0
  3  4  1  6  0  0  0
  5  7  1  0  0  0  0
  5  6  1  6  0  0  0
  7  8  1  0  0  0  0
  9 10  1  0  0  0  0
 11 12  1  0  0  0  0
 11 18  1  0  0  0  0
 11 19  1  6  0  0  0
 12 13  1  0  0  0  0
 13 15  1  0  0  0  0
 13 14  1  6  0  0  0
 15 16  1  0  0  0  0
 15 26  1  1  0  0  0
 16 18  1  0  0  0  0
 16 17  1  6  0  0  0
 18  4  1  1  0  0  0
 20 21  1  0  0  0  0
 20 27  1  0  0  0  0
 21 31  1  1  0  0  0
 21 23  1  0  0  0  0
 21 22  1  0  0  0  0
 23 24  1  0  0  0  0
 23 29  1  1  0  0  0
 24 25  1  0  0  0  0
 24 28  1  6  0  0  0
 25 27  1  0  0  0  0
 25 26  1  1  0  0  0
 29 30  1  0  0  0  0
M  CHG  5   6   1  10   1  14   1  19   1  29   1
M  END
>  <CHROM.1>
-25.90786525,66.75548172,36.52824235,73.62841347,-95.42694938,162.59146714
159.13932983,138.52146199,-179.31292205,-60.84476927,-62.95622255,-174.65897892
-112.08503459,5.18093925,4.47611620,-1.16130640,-0.10664944,-0.61163849,2.31243055

>  <Name>
1byj cryst

>  <RI>
0

>  <Rbt.Current_Directory>
/home/itssahil/PROJECTS/Mol_Feturizer/New_Systems/rnas/1byj

>  <Rbt.Executable>
rbdock ($Id: //depot/dev/client3/rdock/2013.1/src/exe/rbdock.cxx#4 $)

>  <Rbt.Library>
libRbt.so (2013.1, Build901 2013/11/27)

>  <Rbt.Parameter_File>
/export/apps/rDock/src/rDock_2013.1_src/data/scripts/dock_solv.prm

>  <Rbt.Receptor>
prm/pocket_docking_5.prm

>  <SCORE>
-39.1443

>  <SCORE.INTER>
-35.7404

>  <SCORE.INTER.CONST>
1

>  <SCORE.INTER.POLAR>
-6.03477

>  <SCORE.INTER.ROT>
6

>  <SCORE.INTER.SOLV>
20.0607

>  <SCORE.INTER.VDW>
-17.9979

>  <SCORE.INTER.norm>
-1.15292

>  <SCORE.INTRA>
-3.40389

>  <SCORE.INTRA.DIHEDRAL>
4.74842

>  <SCORE.INTRA.DIHEDRAL.0>
18.4149

>  <SCORE.INTRA.POLAR>
-1.49519

>  <SCORE.INTRA.POLAR.0>
0

>  <SCORE.INTRA.REPUL>
-0.092687

>  <SCORE.INTRA.REPUL.0>
0.092687

>  <SCORE.INTRA.SOLV>
1.01297

>  <SCORE.INTRA.SOLV.lig_0>
-120.37

>  <SCORE.INTRA.VDW>
-0.737506

>  <SCORE.INTRA.VDW.0>
-1.75542

>  <SCORE.INTRA.norm>
-0.109803

>  <SCORE.RESTR>
0

>  <SCORE.RESTR.CAVITY>
0

>  <SCORE.RESTR.norm>
0

>  <SCORE.SYSTEM>
0

>  <SCORE.SYSTEM.CONST>
0

>  <SCORE.SYSTEM.DIHEDRAL>
0

>  <SCORE.SYSTEM.SOLV>
0

>  <SCORE.SYSTEM.norm>
0

>  <SCORE.heavy>
31

>  <SCORE.norm>
-1.26272

>  <RMSD>
3.288

$$$$
1byj cryst
 OpenBabel11021811383D
libRbt.so/2013.1/901 2013/11/27
 31 33  0  0  0  0  0  0  0  0999 V2000
    6.9920    3.9121   -3.0097 C   0  0  1  0  0  0  0  0  0  0  0  0
    6.9330    5.3020   -2.5549 O   0  0  0  0  0  0  0  0  0  0  0  0
    7.6052    6.3265   -3.3469 C   0  0  2  0  0  0  0  0  0  0  0  0
    6.9433    6.5217   -4.6355 O   0  0  0  0  0  0  0  0  0  0  0  0
    9.1004    5.9295   -3.5405 C   0  0  2  0  0  0  0  0  0  0  0  0
    9.8654    6.9113   -4.3341 N   0  3  0  0  0  0  0  0  0  0  0  0
    9.1982    4.5217   -4.1827 C   0  0  0  0  0  0  0  0  0  0  0  0
    8.4463    3.4785   -3.3426 C   0  0  0  0  0  0  0  0  0  0  0  0
    6.4263    2.9916   -1.9139 C   0  0  0  0  0  0  0  0  0  0  0  0
    6.3057    1.5861   -2.3231 N   0  3  0  0  0  0  0  0  0  0  0  0
    6.6575    8.9662   -4.5201 C   0  0  1  0  0  0  0  0  0  0  0  0
    5.6416   10.1342   -4.5348 C   0  0  0  0  0  0  0  0  0  0  0  0
    4.5683    9.9349   -3.4310 C   0  0  1  0  0  0  0  0  0  0  0  0
    3.6536   11.0923   -3.4051 N   0  3  0  0  0  0  0  0  0  0  0  0
    3.8061    8.5970   -3.6560 C   0  0  1  0  0  0  0  0  0  0  0  0
    4.7786    7.3951   -3.7551 C   0  0  1  0  0  0  0  0  0  0  0  0
    3.9964    6.2700   -4.1272 O   0  0  0  0  0  0  0  0  0  0  0  0
    5.9549    7.5910   -4.7677 C   0  0  2  0  0  0  0  0  0  0  0  0
    7.7290    9.2156   -5.5005 N   0  3  0  0  0  0  0  0  0  0  0  0
    0.8120    6.1541   -2.0789 C   0  0  0  0  0  0  0  0  0  0  0  0
   -0.0834    6.6841   -0.9321 C   0  0  2  0  0  0  0  0  0  0  0  0
   -1.4060    6.7991   -1.4551 O   0  0  0  0  0  0  0  0  0  0  0  0
    0.4545    8.0844   -0.4512 C   0  0  1  0  0  0  0  0  0  0  0  0
    0.7279    9.0719   -1.6361 C   0  0  2  0  0  0  0  0  0  0  0  0
    1.4814    8.4190   -2.8227 C   0  0  1  0  0  0  0  0  0  0  0  0
    2.9036    8.3284   -2.5451 O   0  0  0  0  0  0  0  0  0  0  0  0
    0.9086    7.1232   -3.1566 O   0  0  0  0  0  0  0  0  0  0  0  0
    1.4569   10.2172   -1.2025 O   0  0  0  0  0  0  0  0  0  0  0  0
   -0.5047    8.6860    0.5267 N   0  3  0  0  0  0  0  0  0  0  0  0
    0.0652    9.5515    1.5794 C   0  0  0  0  0  0  0  0  0  0  0  0
   -0.1248    5.6225    0.1946 C   0  0  0  0  0  0  0  0  0  0  0  0
  1  8  1  0  0  0  0
  1  9  1  1  0  0  0
  1  2  1  0  0  0  0
  2  3  1  0  0  0  0
  3  5  1  0  0  0  0
  3  4  1  6  0  0  0
  5  7  1  0  0  0  0
  5  6  1  6  0  0  0
  7  8  1  0  0  0  0
  9 10  1  0  0  0  0
 11 12  1  0  0  0  0
 11 18  1  0  0  0  0
 11 19  1  6  0  0  0
 12 13  1  0  0  0  0
 13 15  1  0  0  0  0
 13 14  1  6  0  0  0
 15 16  1  0  0  0  0
 15 26  1  1  0  0  0
 16 18  1  0  0  0  0
 16 17  1  6  0  0  0
 18  4  1  1  0  0  0
 20 21  1  0  0  0  0
 20 27  1  0  0  0  0
 21 31  1  1  0  0  0
 21 23  1  0  0  0  0
 21 22  1  0  0  0  0
 23 24  1  0  0  0  0
 23 29  1  1  0  0  0
 24 25  1  0  0  0  0
 24 28  1  1  0  0  0
 25 27  1  0  0  0  0
 25 26  1  1  0  0  0
 29 30  1  0  0  0  0
M  CHG  5   6   1  10   1  14   1  19   1  29   1
M  END
>  <CHROM.1>
173.81877356,95.30092336,62.46313334,-81.74146239,56.65553907,85.23215924
57.11329210,110.70385998,-65.07224633,-73.69334703,-90.20553142,-62.58366535
-140.87670389,4.21504425,7.15223700,-2.73563053,0.19297108,-0.43403735,2.85735945

>  <Name>
1byj cryst

>  <RI>
0

>  <Rbt.Current_Directory>
/home/itssahil/PROJECTS/Mol_Feturizer/New_Systems/rnas/1byj

>  <Rbt.Executable>
rbdock ($Id: //depot/dev/client3/rdock/2013.1/src/exe/rbdock.cxx#4 $)

>  <Rbt.Library>
libRbt.so (2013.1, Build901 2013/11/27)

>  <Rbt.Parameter_File>
/export/apps/rDock/src/rDock_2013.1_src/data/scripts/dock_solv.prm

>  <Rbt.Receptor>
prm/pocket_docking_3.prm

>  <SCORE>
-43.6226

>  <SCORE.INTER>
-41.9504

>  <SCORE.INTER.CONST>
1

>  <SCORE.INTER.POLAR>
-5.83505

>  <SCORE.INTER.ROT>
6

>  <SCORE.INTER.SOLV>
33.2563

>  <SCORE.INTER.VDW>
-27.2022

>  <SCORE.INTER.norm>
-1.35324

>  <SCORE.INTRA>
-1.87285

>  <SCORE.INTRA.DIHEDRAL>
3.88764

>  <SCORE.INTRA.DIHEDRAL.0>
18.4149

>  <SCORE.INTRA.POLAR>
-0.897555

>  <SCORE.INTRA.POLAR.0>
0

>  <SCORE.INTRA.REPUL>
-0.092687

>  <SCORE.INTRA.REPUL.0>
0.092687

>  <SCORE.INTRA.SOLV>
2.9769

>  <SCORE.INTRA.SOLV.lig_0>
-120.37

>  <SCORE.INTRA.VDW>
-1.78999

>  <SCORE.INTRA.VDW.0>
-1.75542

>  <SCORE.INTRA.norm>
-0.0604144

>  <SCORE.RESTR>
0.200582

>  <SCORE.RESTR.CAVITY>
0.200582

>  <SCORE.RESTR.norm>
0.00647038

>  <SCORE.SYSTEM>
0

>  <SCORE.SYSTEM.CONST>
0

>  <SCORE.SYSTEM.DIHEDRAL>
0

>  <SCORE.SYSTEM.SOLV>
0

>  <SCORE.SYSTEM.norm>
0

>  <SCORE.heavy>
31

>  <SCORE.norm>
-1.40718

>  <RMSD>
3.292

$$$$
1byj cryst
 OpenBabel11021811383D
libRbt.so/2013.1/901 2013/11/27
 31 33  0  0  0  0  0  0  0  0999 V2000
    8.0939    2.1163   -0.5609 C   0  0  1  0  0  0  0  0  0  0  0  0
    8.2736    3.3811   -1.2750 O   0  0  0  0  0  0  0  0  0  0  0  0
    8.4301    3.3497   -2.7253 C   0  0  2  0  0  0  0  0  0  0  0  0
    7.1930    2.9353   -3.3846 O   0  0  0  0  0  0  0  0  0  0  0  0
    9.6076    2.3977   -3.0959 C   0  0  2  0  0  0  0  0  0  0  0  0
    9.8427    2.3010   -4.5500 N   0  3  0  0  0  0  0  0  0  0  0  0
    9.3636    0.9900   -2.4933 C   0  0  0  0  0  0  0  0  0  0  0  0
    9.1642    1.0680   -0.9723 C   0  0  0  0  0  0  0  0  0  0  0  0
    8.1860    2.3677    0.9545 C   0  0  0  0  0  0  0  0  0  0  0  0
    8.1220    1.1440    1.7643 N   0  3  0  0  0  0  0  0  0  0  0  0
    6.9337    5.3143   -3.9707 C   0  0  1  0  0  0  0  0  0  0  0  0
    5.9278    6.4615   -4.2332 C   0  0  0  0  0  0  0  0  0  0  0  0
    4.9711    6.6331   -3.0228 C   0  0  1  0  0  0  0  0  0  0  0  0
    4.0700    7.7784   -3.2532 N   0  3  0  0  0  0  0  0  0  0  0  0
    4.1827    5.3158   -2.7682 C   0  0  1  0  0  0  0  0  0  0  0  0
    5.1336    4.1044   -2.5997 C   0  0  1  0  0  0  0  0  0  0  0  0
    4.3117    2.9478   -2.5460 O   0  0  0  0  0  0  0  0  0  0  0  0
    6.2021    3.9527   -3.7322 C   0  0  2  0  0  0  0  0  0  0  0  0
    7.9014    5.2269   -5.0785 N   0  3  0  0  0  0  0  0  0  0  0  0
    1.1798    4.6521   -3.5018 C   0  0  0  0  0  0  0  0  0  0  0  0
    0.0508    4.0514   -2.6287 C   0  0  2  0  0  0  0  0  0  0  0  0
   -1.0996    4.8761   -2.8097 O   0  0  0  0  0  0  0  0  0  0  0  0
    0.5035    4.0416   -1.1200 C   0  0  1  0  0  0  0  0  0  0  0  0
    1.0918    5.4157   -0.6513 C   0  0  2  0  0  0  0  0  0  0  0  0
    2.0887    6.0376   -1.6619 C   0  0  1  0  0  0  0  0  0  0  0  0
    3.3962    5.4173   -1.5468 O   0  0  0  0  0  0  0  0  0  0  0  0
    1.5698    5.9657   -3.0200 O   0  0  0  0  0  0  0  0  0  0  0  0
    1.7324    5.3032    0.6169 O   0  0  0  0  0  0  0  0  0  0  0  0
   -0.6437    3.6343   -0.2503 N   0  3  0  0  0  0  0  0  0  0  0  0
   -0.8164    2.1885   -0.0015 C   0  0  0  0  0  0  0  0  0  0  0  0
   -0.3009    2.6451   -3.1733 C   0  0  0  0  0  0  0  0  0  0  0  0
  1  8  1  0  0  0  0
  1  9  1  1  0  0  0
  1  2  1  0  0  0  0
  2  3  1  0  0  0  0
  3  5  1  0  0  0  0
  3  4  1  6  0  0  0
  5  7  1  0  0  0  0
  5  6  1  6  0  0  0
  7  8  1  0  0  0  0
  9 10  1  0  0  0  0
 11 12  1  0  0  0  0
 11 18  1  0  0  0  0
 11 19  1  6  0  0  0
 12 13  1  0  0  0  0
 13 15  1  0  0  0  0
 13 14  1  6  0  0  0
 15 16  1  0  0  0  0
 15 26  1  1  0  0  0
 16 18  1  0  0  0  0
 16 17  1  6  0  0  0
 18  4  1  1  0  0  0
 20 21  1  0  0  0  0
 20 27  1  0  0  0  0
 21 31  1  6  0  0  0
 21 23  1  0  0  0  0
 21 22  1  0  0  0  0
 23 24  1  0  0  0  0
 23 29  1  1  0  0  0
 24 25  1  0  0  0  0
 24 28  1  1  0  0  0
 25 27  1  0  0  0  0
 25 26  1  6  0  0  0
 29 30  1  0  0  0  0
M  CHG  5   6   1  10   1  14   1  19   1  29   1
M  END
>  <CHROM.1>
-175.54409357,88.09306546,27.97514477,86.66371174,-6.15763550,-92.40559978
113.71539879,84.73931524,-176.62822590,164.57173708,-150.27475647,-62.24509137
147.79398584,4.64702391,3.99693783,-2.15938878,0.10334637,-0.21628614,2.30189193

>  <Name>
1byj cryst

>  <RI>
0

>  <Rbt.Current_Directory>
/home/itssahil/PROJECTS/Mol_Feturizer/New_Systems/rnas/1byj

>  <Rbt.Executable>
rbdock ($Id: //depot/dev/client3/rdock/2013.1/src/exe/rbdock.cxx#4 $)

>  <Rbt.Library>
libRbt.so (2013.1, Build901 2013/11/27)

>  <Rbt.Parameter_File>
/export/apps/rDock/src/rDock_2013.1_src/data/scripts/dock_solv.prm

>  <Rbt.Receptor>
prm/pocket_docking_4.prm

>  <SCORE>
-36.4469

>  <SCORE.INTER>
-41.1219

>  <SCORE.INTER.CONST>
1

>  <SCORE.INTER.POLAR>
-6.57854

>  <SCORE.INTER.ROT>
6

>  <SCORE.INTER.SOLV>
25.644

>  <SCORE.INTER.VDW>
-21.6341

>  <SCORE.INTER.norm>
-1.32651

>  <SCORE.INTRA>
4.67496

>  <SCORE.INTRA.DIHEDRAL>
8.97758

>  <SCORE.INTRA.DIHEDRAL.0>
18.4149

>  <SCORE.INTRA.POLAR>
-1.10629

>  <SCORE.INTRA.POLAR.0>
0

>  <SCORE.INTRA.REPUL>
-0.092687

>  <SCORE.INTRA.REPUL.0>
0.092687

>  <SCORE.INTRA.SOLV>
2.45391

>  <SCORE.INTRA.SOLV.lig_0>
-120.37

>  <SCORE.INTRA.VDW>
3.18405

>  <SCORE.INTRA.VDW.0>
-1.75542

>  <SCORE.INTRA.norm>
0.150805

>  <SCORE.RESTR>
0

>  <SCORE.RESTR.CAVITY>
0

>  <SCORE.RESTR.norm>
0

>  <SCORE.SYSTEM>
0

>  <SCORE.SYSTEM.CONST>
0

>  <SCORE.SYSTEM.DIHEDRAL>
0

>  <SCORE.SYSTEM.SOLV>
0

>  <SCORE.SYSTEM.norm>
0

>  <SCORE.heavy>
31

>  <SCORE.norm>
-1.17571

>  <RMSD>
3.328

$$$$
1byj cryst
 OpenBabel11021811383D
libRbt.so/2013.1/901 2013/11/27
 31 33  0  0  0  0  0  0  0  0999 V2000
    6.6091    5.1502   -1.6875 C   0  0  1  0  0  0  0  0  0  0  0  0
    7.3769    6.2734   -2.2270 O   0  0  0  0  0  0  0  0  0  0  0  0
    7.8001    6.2257   -3.6224 C   0  0  2  0  0  0  0  0  0  0  0  0
    6.6573    6.3264   -4.5283 O   0  0  0  0  0  0  0  0  0  0  0  0
    8.5991    4.9108   -3.8738 C   0  0  2  0  0  0  0  0  0  0  0  0
    9.0709    4.7732   -5.2657 N   0  3  0  0  0  0  0  0  0  0  0  0
    7.7433    3.6827   -3.4694 C   0  0  0  0  0  0  0  0  0  0  0  0
    7.2837    3.7877   -2.0075 C   0  0  0  0  0  0  0  0  0  0  0  0
    6.4788    5.3061   -0.1622 C   0  0  0  0  0  0  0  0  0  0  0  0
    7.6794    4.9010    0.5807 N   0  3  0  0  0  0  0  0  0  0  0  0
    6.9255    8.7657   -4.3079 C   0  0  1  0  0  0  0  0  0  0  0  0
    6.1976   10.1316   -4.2757 C   0  0  0  0  0  0  0  0  0  0  0  0
    5.0922   10.1329   -3.1858 C   0  0  1  0  0  0  0  0  0  0  0  0
    4.4600   11.4640   -3.1132 N   0  3  0  0  0  0  0  0  0  0  0  0
    4.0524    9.0109   -3.4717 C   0  0  1  0  0  0  0  0  0  0  0  0
    4.7319    7.6265   -3.6192 C   0  0  1  0  0  0  0  0  0  0  0  0
    3.7225    6.7222   -4.0428 O   0  0  0  0  0  0  0  0  0  0  0  0
    5.9358    7.5950   -4.6177 C   0  0  2  0  0  0  0  0  0  0  0  0
    8.0387    8.8085   -5.2724 N   0  3  0  0  0  0  0  0  0  0  0  0
    1.2024    6.5147   -2.2831 C   0  0  0  0  0  0  0  0  0  0  0  0
    0.1982    6.8303   -1.1476 C   0  0  2  0  0  0  0  0  0  0  0  0
   -1.0984    6.8844   -1.7409 O   0  0  0  0  0  0  0  0  0  0  0  0
    0.5715    8.2102   -0.4859 C   0  0  1  0  0  0  0  0  0  0  0  0
    0.8138    9.3450   -1.5384 C   0  0  2  0  0  0  0  0  0  0  0  0
    1.6910    8.8995   -2.7359 C   0  0  1  0  0  0  0  0  0  0  0  0
    3.0978    8.9061   -2.3770 O   0  0  0  0  0  0  0  0  0  0  0  0
    1.2648    7.6033   -3.2428 O   0  0  0  0  0  0  0  0  0  0  0  0
    1.4042   10.4951   -0.9384 O   0  0  0  0  0  0  0  0  0  0  0  0
   -0.4937    8.6100    0.4856 N   0  3  0  0  0  0  0  0  0  0  0  0
   -0.0906    9.4983    1.5949 C   0  0  0  0  0  0  0  0  0  0  0  0
    0.1969    5.6495   -0.1456 C   0  0  0  0  0  0  0  0  0  0  0  0
  1  8  1  0  0  0  0
  1  9  1  1  0  0  0
  1  2  1  0  0  0  0
  2  3  1  0  0  0  0
  3  5  1  0  0  0  0
  3  4  1  6  0  0  0
  5  7  1  0  0  0  0
  5  6  1  6  0  0  0
  7  8  1  0  0  0  0
  9 10  1  0  0  0  0
 11 12  1  0  0  0  0
 11 18  1  0  0  0  0
 11 19  1  6  0  0  0
 12 13  1  0  0  0  0
 13 15  1  0  0  0  0
 13 14  1  6  0  0  0
 15 16  1  0  0  0  0
 15 26  1  1  0  0  0
 16 18  1  0  0  0  0
 16 17  1  6  0  0  0
 18  4  1  1  0  0  0
 20 21  1  0  0  0  0
 20 27  1  0  0  0  0
 21 31  1  1  0  0  0
 21 23  1  0  0  0  0
 21 22  1  0  0  0  0
 23 24  1  0  0  0  0
 23 29  1  1  0  0  0
 24 25  1  0  0  0  0
 24 28  1  1  0  0  0
 25 27  1  0  0  0  0
 25 26  1  1  0  0  0
 29 30  1  0  0  0  0
M  CHG  5   6   1  10   1  14   1  19   1  29   1
M  END
>  <CHROM.1>
-78.98176505,69.25092776,29.13761491,30.32588920,157.09586277,-147.58179167
175.87869091,130.03680174,-164.02203643,-76.68222019,-84.97416391,62.56012571
-157.48761811,4.29325080,7.40000846,-2.47018321,0.10649888,-0.45033344,2.62973729

>  <Name>
1byj cryst

>  <RI>
0

>  <Rbt.Current_Directory>
/home/itssahil/PROJECTS/Mol_Feturizer/New_Systems/rnas/1byj

>  <Rbt.Executable>
rbdock ($Id: //depot/dev/client3/rdock/2013.1/src/exe/rbdock.cxx#4 $)

>  <Rbt.Library>
libRbt.so (2013.1, Build901 2013/11/27)

>  <Rbt.Parameter_File>
/export/apps/rDock/src/rDock_2013.1_src/data/scripts/dock_solv.prm

>  <Rbt.Receptor>
prm/pocket_docking_3.prm

>  <SCORE>
-44.4767

>  <SCORE.INTER>
-47.5123

>  <SCORE.INTER.CONST>
1

>  <SCORE.INTER.POLAR>
-7.51523

>  <SCORE.INTER.ROT>
6

>  <SCORE.INTER.SOLV>
27.467

>  <SCORE.INTER.VDW>
-23.3798

>  <SCORE.INTER.norm>
-1.53266

>  <SCORE.INTRA>
2.81548

>  <SCORE.INTRA.DIHEDRAL>
4.93583

>  <SCORE.INTRA.DIHEDRAL.0>
18.4149

>  <SCORE.INTRA.POLAR>
0

>  <SCORE.INTRA.POLAR.0>
0

>  <SCORE.INTRA.REPUL>
0.134178

>  <SCORE.INTRA.REPUL.0>
0.092687

>  <SCORE.INTRA.SOLV>
0.190543

>  <SCORE.INTRA.SOLV.lig_0>
-120.37

>  <SCORE.INTRA.VDW>
-0.418605

>  <SCORE.INTRA.VDW.0>
-1.75542

>  <SCORE.INTRA.norm>
0.0908218

>  <SCORE.RESTR>
0.220124

>  <SCORE.RESTR.CAVITY>
0.220124

>  <SCORE.RESTR.norm>
0.00710077

>  <SCORE.SYSTEM>
0

>  <SCORE.SYSTEM.CONST>
0

>  <SCORE.SYSTEM.DIHEDRAL>
0

>  <SCORE.SYSTEM.SOLV>
0

>  <SCORE.SYSTEM.norm>
0

>  <SCORE.heavy>
31

>  <SCORE.norm>
-1.43473

>  <RMSD>
3.366

$$$$
1byj cryst
 OpenBabel11021811383D
libRbt.so/2013.1/901 2013/11/27
 31 33  0  0  0  0  0  0  0  0999 V2000
    4.6485    2.5121   -1.5145 C   0  0  1  0  0  0  0  0  0  0  0  0
    5.5010    3.6914   -1.3576 O   0  0  0  0  0  0  0  0  0  0  0  0
    6.7117    3.7922   -2.1654 C   0  0  2  0  0  0  0  0  0  0  0  0
    6.3930    3.9772   -3.5800 O   0  0  0  0  0  0  0  0  0  0  0  0
    7.5823    2.5170   -1.9502 C   0  0  2  0  0  0  0  0  0  0  0  0
    8.8348    2.5284   -2.7313 N   0  3  0  0  0  0  0  0  0  0  0  0
    6.7547    1.2467   -2.2748 C   0  0  0  0  0  0  0  0  0  0  0  0
    5.4698    1.1957   -1.4345 C   0  0  0  0  0  0  0  0  0  0  0  0
    3.5744    2.5078   -0.4126 C   0  0  0  0  0  0  0  0  0  0  0  0
    2.5476    1.4724   -0.5885 N   0  3  0  0  0  0  0  0  0  0  0  0
    7.6995    5.9372   -4.3023 C   0  0  1  0  0  0  0  0  0  0  0  0
    7.6369    7.4176   -4.7508 C   0  0  0  0  0  0  0  0  0  0  0  0
    6.8948    8.2757   -3.6912 C   0  0  1  0  0  0  0  0  0  0  0  0
    6.9107    9.6950   -4.0936 N   0  3  0  0  0  0  0  0  0  0  0  0
    5.4458    7.7458   -3.4876 C   0  0  1  0  0  0  0  0  0  0  0  0
    5.4334    6.2369   -3.1367 C   0  0  1  0  0  0  0  0  0  0  0  0
    4.0731    5.8300   -3.1437 O   0  0  0  0  0  0  0  0  0  0  0  0
    6.2692    5.3362   -4.1049 C   0  0  2  0  0  0  0  0  0  0  0  0
    8.4938    5.1510   -5.2627 N   0  3  0  0  0  0  0  0  0  0  0  0
    1.8221    8.2176   -3.0538 C   0  0  0  0  0  0  0  0  0  0  0  0
    1.0851    8.9203   -1.8874 C   0  0  2  0  0  0  0  0  0  0  0  0
    0.3614   10.0138   -2.4501 O   0  0  0  0  0  0  0  0  0  0  0  0
    2.1382    9.4274   -0.8313 C   0  0  1  0  0  0  0  0  0  0  0  0
    3.3240   10.2164   -1.4836 C   0  0  2  0  0  0  0  0  0  0  0  0
    3.8984    9.5322   -2.7501 C   0  0  1  0  0  0  0  0  0  0  0  0
    4.7933    8.4470   -2.3908 O   0  0  0  0  0  0  0  0  0  0  0  0
    2.8308    9.0872   -3.6338 O   0  0  0  0  0  0  0  0  0  0  0  0
    4.3836   10.4273   -0.5541 O   0  0  0  0  0  0  0  0  0  0  0  0
    1.4542   10.2633    0.2040 N   0  3  0  0  0  0  0  0  0  0  0  0
    0.6879    9.5478    1.2445 C   0  0  0  0  0  0  0  0  0  0  0  0
    0.0459    7.9371   -1.2946 C   0  0  0  0  0  0  0  0  0  0  0  0
  1  8  1  0  0  0  0
  1  9  1  1  0  0  0
  1  2  1  0  0  0  0
  2  3  1  0  0  0  0
  3  5  1  0  0  0  0
  3  4  1  6  0  0  0
  5  7  1  0  0  0  0
  5  6  1  6  0  0  0
  7  8  1  0  0  0  0
  9 10  1  0  0  0  0
 11 12  1  0  0  0  0
 11 18  1  0  0  0  0
 11 19  1  6  0  0  0
 12 13  1  0  0  0  0
 13 15  1  0  0  0  0
 13 14  1  6  0  0  0
 15 16  1  0  0  0  0
 15 26  1  1  0  0  0
 16 18  1  0  0  0  0
 16 17  1  6  0  0  0
 18  4  1  1  0  0  0
 20 21  1  0  0  0  0
 20 27  1  0  0  0  0
 21 31  1  1  0  0  0
 21 23  1  0  0  0  0
 21 22  1  0  0  0  0
 23 24  1  0  0  0  0
 23 29  1  1  0  0  0
 24 25  1  0  0  0  0
 24 28  1  1  0  0  0
 25 27  1  0  0  0  0
 25 26  1  1  0  0  0
 29 30  1  0  0  0  0
M  CHG  5   6   1  10   1  14   1  19   1  29   1
M  END
>  <CHROM.1>
171.74063325,91.18643615,77.02948453,62.29867569,-62.44145412,135.43697917
-61.60174442,98.86283665,55.51778329,76.82986746,-161.60462308,68.25583002
-177.78250638,4.62360890,6.43522651,-2.35151629,0.84619495,-0.52958473,2.90080122

>  <Name>
1byj cryst

>  <RI>
0

>  <Rbt.Current_Directory>
/home/itssahil/PROJECTS/Mol_Feturizer/New_Systems/rnas/1byj

>  <Rbt.Executable>
rbdock ($Id: //depot/dev/client3/rdock/2013.1/src/exe/rbdock.cxx#4 $)

>  <Rbt.Library>
libRbt.so (2013.1, Build901 2013/11/27)

>  <Rbt.Parameter_File>
/export/apps/rDock/src/rDock_2013.1_src/data/scripts/dock_solv.prm

>  <Rbt.Receptor>
prm/pocket_docking_5.prm

>  <SCORE>
-35.8249

>  <SCORE.INTER>
-34.9084

>  <SCORE.INTER.CONST>
1

>  <SCORE.INTER.POLAR>
-5.43652

>  <SCORE.INTER.ROT>
6

>  <SCORE.INTER.SOLV>
17.4726

>  <SCORE.INTER.VDW>
-18.5747

>  <SCORE.INTER.norm>
-1.12608

>  <SCORE.INTRA>
-0.916497

>  <SCORE.INTRA.DIHEDRAL>
-1.80238

>  <SCORE.INTRA.DIHEDRAL.0>
18.4149

>  <SCORE.INTRA.POLAR>
-0.0848387

>  <SCORE.INTRA.POLAR.0>
0

>  <SCORE.INTRA.REPUL>
-0.092687

>  <SCORE.INTRA.REPUL.0>
0.092687

>  <SCORE.INTRA.SOLV>
-0.498625

>  <SCORE.INTRA.SOLV.lig_0>
-120.37

>  <SCORE.INTRA.VDW>
0.985892

>  <SCORE.INTRA.VDW.0>
-1.75542

>  <SCORE.INTRA.norm>
-0.0295644

>  <SCORE.RESTR>
0

>  <SCORE.RESTR.CAVITY>
0

>  <SCORE.RESTR.norm>
0

>  <SCORE.SYSTEM>
0

>  <SCORE.SYSTEM.CONST>
0

>  <SCORE.SYSTEM.DIHEDRAL>
0

>  <SCORE.SYSTEM.SOLV>
0

>  <SCORE.SYSTEM.norm>
0

>  <SCORE.heavy>
31

>  <SCORE.norm>
-1.15564

>  <RMSD>
3.436

$$$$
1byj cryst
 OpenBabel11021811383D
libRbt.so/2013.1/901 2013/11/27
 31 33  0  0  0  0  0  0  0  0999 V2000
    5.8691    3.4934   -0.4319 C   0  0  1  0  0  0  0  0  0  0  0  0
    6.9259    4.1294   -1.2197 O   0  0  0  0  0  0  0  0  0  0  0  0
    7.4696    3.4131   -2.3687 C   0  0  2  0  0  0  0  0  0  0  0  0
    6.4808    3.2967   -3.4390 O   0  0  0  0  0  0  0  0  0  0  0  0
    7.9671    2.0081   -1.9115 C   0  0  2  0  0  0  0  0  0  0  0  0
    8.5366    1.2057   -3.0119 N   0  3  0  0  0  0  0  0  0  0  0  0
    6.8150    1.2350   -1.2192 C   0  0  0  0  0  0  0  0  0  0  0  0
    6.2425    2.0369   -0.0408 C   0  0  0  0  0  0  0  0  0  0  0  0
    5.6204    4.3140    0.8460 C   0  0  0  0  0  0  0  0  0  0  0  0
    6.8392    4.6016    1.6135 N   0  3  0  0  0  0  0  0  0  0  0  0
    7.0342    5.5945   -4.1351 C   0  0  1  0  0  0  0  0  0  0  0  0
    6.4701    6.9492   -4.6281 C   0  0  0  0  0  0  0  0  0  0  0  0
    5.3984    7.4835   -3.6404 C   0  0  1  0  0  0  0  0  0  0  0  0
    4.9262    8.8101   -4.0809 N   0  3  0  0  0  0  0  0  0  0  0  0
    4.2294    6.4645   -3.5107 C   0  0  1  0  0  0  0  0  0  0  0  0
    4.7407    5.0555   -3.1189 C   0  0  1  0  0  0  0  0  0  0  0  0
    3.6237    4.1824   -3.1974 O   0  0  0  0  0  0  0  0  0  0  0  0
    5.9088    4.5158   -4.0086 C   0  0  2  0  0  0  0  0  0  0  0  0
    8.1218    5.1465   -5.0227 N   0  3  0  0  0  0  0  0  0  0  0  0
    2.4198    9.5232   -1.2130 C   0  0  0  0  0  0  0  0  0  0  0  0
    1.7912    9.1384    0.1488 C   0  0  2  0  0  0  0  0  0  0  0  0
    2.5701    9.7734    1.1618 O   0  0  0  0  0  0  0  0  0  0  0  0
    1.8206    7.5724    0.3162 C   0  0  1  0  0  0  0  0  0  0  0  0
    3.2224    6.9513   -0.0055 C   0  0  2  0  0  0  0  0  0  0  0  0
    3.8653    7.5146   -1.2983 C   0  0  1  0  0  0  0  0  0  0  0  0
    3.2952    6.8853   -2.4759 O   0  0  0  0  0  0  0  0  0  0  0  0
    3.7540    8.9651   -1.3487 O   0  0  0  0  0  0  0  0  0  0  0  0
    3.1525    5.5315   -0.1075 O   0  0  0  0  0  0  0  0  0  0  0  0
    1.3844    7.2031    1.6988 N   0  3  0  0  0  0  0  0  0  0  0  0
    1.0684    5.7814    1.9452 C   0  0  0  0  0  0  0  0  0  0  0  0
    0.3648    9.7369    0.2222 C   0  0  0  0  0  0  0  0  0  0  0  0
  1  8  1  0  0  0  0
  1  9  1  1  0  0  0
  1  2  1  0  0  0  0
  2  3  1  0  0  0  0
  3  5  1  0  0  0  0
  3  4  1  6  0  0  0
  5  7  1  0  0  0  0
  5  6  1  6  0  0  0
  7  8  1  0  0  0  0
  9 10  1  0  0  0  0
 11 12  1  0  0  0  0
 11 18  1  0  0  0  0
 11 19  1  6  0  0  0
 12 13  1  0  0  0  0
 13 15  1  0  0  0  0
 13 14  1  6  0  0  0
 15 16  1  0  0  0  0
 15 26  1  1  0  0  0
 16 18  1  0  0  0  0
 16 17  1  6  0  0  0
 18  4  1  1  0  0  0
 20 21  1  0  0  0  0
 20 27  1  0  0  0  0
 21 31  1  1  0  0  0
 21 23  1  0  0  0  0
 21 22  1  0  0  0  0
 23 24  1  0  0  0  0
 23 29  1  1  0  0  0
 24 25  1  0  0  0  0
 24 28  1  6  0  0  0
 25 27  1  0  0  0  0
 25 26  1  6  0  0  0
 29 30  1  0  0  0  0
M  CHG  5   6   1  10   1  14   1  19   1  29   1
M  END
>  <CHROM.1>
-51.49407667,58.65233766,39.41596637,57.38690399,-71.42366243,147.91755675
-167.01437296,-36.79642125,-70.03375763,57.60872534,-71.90444600,53.91486552
-135.34481047,4.77672815,5.76423390,-1.52112046,0.18190963,-0.84149035,2.28305641

>  <Name>
1byj cryst

>  <RI>
0

>  <Rbt.Current_Directory>
/home/itssahil/PROJECTS/Mol_Feturizer/New_Systems/rnas/1byj

>  <Rbt.Executable>
rbdock ($Id: //depot/dev/client3/rdock/2013.1/src/exe/rbdock.cxx#4 $)

>  <Rbt.Library>
libRbt.so (2013.1, Build901 2013/11/27)

>  <Rbt.Parameter_File>
/export/apps/rDock/src/rDock_2013.1_src/data/scripts/dock_solv.prm

>  <Rbt.Receptor>
prm/pocket_docking_4.prm

>  <SCORE>
-34.4364

>  <SCORE.INTER>
-29.0404

>  <SCORE.INTER.CONST>
1

>  <SCORE.INTER.POLAR>
-5.14212

>  <SCORE.INTER.ROT>
6

>  <SCORE.INTER.SOLV>
18.227

>  <SCORE.INTER.VDW>
-15.8955

>  <SCORE.INTER.norm>
-0.936787

>  <SCORE.INTRA>
-5.39602

>  <SCORE.INTRA.DIHEDRAL>
-3.76286

>  <SCORE.INTRA.DIHEDRAL.0>
18.4149

>  <SCORE.INTRA.POLAR>
-0.917999

>  <SCORE.INTRA.POLAR.0>
0

>  <SCORE.INTRA.REPUL>
-0.092687

>  <SCORE.INTRA.REPUL.0>
0.092687

>  <SCORE.INTRA.SOLV>
0.409932

>  <SCORE.INTRA.SOLV.lig_0>
-120.37

>  <SCORE.INTRA.VDW>
-0.134922

>  <SCORE.INTRA.VDW.0>
-1.75542

>  <SCORE.INTRA.norm>
-0.174065

>  <SCORE.RESTR>
0

>  <SCORE.RESTR.CAVITY>
0

>  <SCORE.RESTR.norm>
0

>  <SCORE.SYSTEM>
0

>  <SCORE.SYSTEM.CONST>
0

>  <SCORE.SYSTEM.DIHEDRAL>
0

>  <SCORE.SYSTEM.SOLV>
0

>  <SCORE.SYSTEM.norm>
0

>  <SCORE.heavy>
31

>  <SCORE.norm>
-1.11085

>  <RMSD>
3.478

$$$$
1byj cryst
 OpenBabel11021811383D
libRbt.so/2013.1/901 2013/11/27
 31 33  0  0  0  0  0  0  0  0999 V2000
    6.1233    1.7883    0.4892 C   0  0  1  0  0  0  0  0  0  0  0  0
    6.7808    3.0574    0.1741 O   0  0  0  0  0  0  0  0  0  0  0  0
    8.0428    3.0289   -0.5574 C   0  0  2  0  0  0  0  0  0  0  0  0
    7.8503    2.5704   -1.9319 O   0  0  0  0  0  0  0  0  0  0  0  0
    9.0566    2.1180    0.1995 C   0  0  2  0  0  0  0  0  0  0  0  0
   10.3695    2.0271   -0.4691 N   0  3  0  0  0  0  0  0  0  0  0  0
    8.4538    0.7038    0.4008 C   0  0  0  0  0  0  0  0  0  0  0  0
    7.1084    0.7774    1.1383 C   0  0  0  0  0  0  0  0  0  0  0  0
    4.9516    2.0454    1.4531 C   0  0  0  0  0  0  0  0  0  0  0  0
    4.0159    0.9187    1.5640 N   0  3  0  0  0  0  0  0  0  0  0  0
    8.7272    4.0312   -3.7116 C   0  0  1  0  0  0  0  0  0  0  0  0
    8.3870    5.1454   -4.7312 C   0  0  0  0  0  0  0  0  0  0  0  0
    7.7538    6.3662   -4.0112 C   0  0  1  0  0  0  0  0  0  0  0  0
    7.5067    7.4493   -4.9821 N   0  3  0  0  0  0  0  0  0  0  0  0
    6.4522    5.9405   -3.2722 C   0  0  1  0  0  0  0  0  0  0  0  0
    6.7046    4.7543   -2.3080 C   0  0  1  0  0  0  0  0  0  0  0  0
    5.4331    4.3456   -1.8262 O   0  0  0  0  0  0  0  0  0  0  0  0
    7.4519    3.5398   -2.9514 C   0  0  2  0  0  0  0  0  0  0  0  0
    9.4206    2.9210   -4.3883 N   0  3  0  0  0  0  0  0  0  0  0  0
    3.0431    6.9257   -3.4468 C   0  0  0  0  0  0  0  0  0  0  0  0
    2.2748    7.9514   -2.5777 C   0  0  2  0  0  0  0  0  0  0  0  0
    1.7483    8.9376   -3.4645 O   0  0  0  0  0  0  0  0  0  0  0  0
    3.2629    8.6014   -1.5372 C   0  0  1  0  0  0  0  0  0  0  0  0
    4.5954    9.1010   -2.1919 C   0  0  2  0  0  0  0  0  0  0  0  0
    5.2158    8.0837   -3.1829 C   0  0  1  0  0  0  0  0  0  0  0  0
    5.9338    7.0412   -2.4720 O   0  0  0  0  0  0  0  0  0  0  0  0
    4.2026    7.5364   -4.0733 O   0  0  0  0  0  0  0  0  0  0  0  0
    5.5684    9.4337   -1.2051 O   0  0  0  0  0  0  0  0  0  0  0  0
    2.5765    9.7195   -0.8181 N   0  3  0  0  0  0  0  0  0  0  0  0
    1.8468    9.3736    0.4188 C   0  0  0  0  0  0  0  0  0  0  0  0
    1.0704    7.2367   -1.9169 C   0  0  0  0  0  0  0  0  0  0  0  0
  1  8  1  0  0  0  0
  1  9  1  1  0  0  0
  1  2  1  0  0  0  0
  2  3  1  0  0  0  0
  3  5  1  0  0  0  0
  3  4  1  6  0  0  0
  5  7  1  0  0  0  0
  5  6  1  6  0  0  0
  7  8  1  0  0  0  0
  9 10  1  0  0  0  0
 11 12  1  0  0  0  0
 11 18  1  0  0  0  0
 11 19  1  6  0  0  0
 12 13  1  0  0  0  0
 13 15  1  0  0  0  0
 13 14  1  6  0  0  0
 15 16  1  0  0  0  0
 15 26  1  1  0  0  0
 16 18  1  0  0  0  0
 16 17  1  6  0  0  0
 18  4  1  1  0  0  0
 20 21  1  0  0  0  0
 20 27  1  0  0  0  0
 21 31  1  1  0  0  0
 21 23  1  0  0  0  0
 21 22  1  0  0  0  0
 23 24  1  0  0  0  0
 23 29  1  6  0  0  0
 24 25  1  0  0  0  0
 24 28  1  1  0  0  0
 25 27  1  0  0  0  0
 25 26  1  1  0  0  0
 29 30  1  0  0  0  0
M  CHG  5   6   1  10   1  14   1  19   1  29   1
M  END
>  <CHROM.1>
165.00663899,84.73020128,96.51568385,151.08416681,-174.17458077,-174.09281821
79.97441961,78.01869683,-165.15950795,53.55486705,-149.39525419,59.50082438
173.88457156,5.85745299,5.28231260,-1.81435032,0.82151971,-0.57215913,2.42669924

>  <Name>
1byj cryst

>  <RI>
0

>  <Rbt.Current_Directory>
/home/itssahil/PROJECTS/Mol_Feturizer/New_Systems/rnas/1byj

>  <Rbt.Executable>
rbdock ($Id: //depot/dev/client3/rdock/2013.1/src/exe/rbdock.cxx#4 $)

>  <Rbt.Library>
libRbt.so (2013.1, Build901 2013/11/27)

>  <Rbt.Parameter_File>
/export/apps/rDock/src/rDock_2013.1_src/data/scripts/dock_solv.prm

>  <Rbt.Receptor>
prm/pocket_docking_4.prm

>  <SCORE>
-51.4848

>  <SCORE.INTER>
-46.1992

>  <SCORE.INTER.CONST>
1

>  <SCORE.INTER.POLAR>
-7.03208

>  <SCORE.INTER.ROT>
6

>  <SCORE.INTER.SOLV>
24.0001

>  <SCORE.INTER.VDW>
-22.9592

>  <SCORE.INTER.norm>
-1.4903

>  <SCORE.INTRA>
-5.28564

>  <SCORE.INTRA.DIHEDRAL>
-2.52182

>  <SCORE.INTRA.DIHEDRAL.0>
18.4149

>  <SCORE.INTRA.POLAR>
-0.900426

>  <SCORE.INTRA.POLAR.0>
0

>  <SCORE.INTRA.REPUL>
-0.092687

>  <SCORE.INTRA.REPUL.0>
0.092687

>  <SCORE.INTRA.SOLV>
-1.74445

>  <SCORE.INTRA.SOLV.lig_0>
-120.37

>  <SCORE.INTRA.VDW>
0.372382

>  <SCORE.INTRA.VDW.0>
-1.75542

>  <SCORE.INTRA.norm>
-0.170505

>  <SCORE.RESTR>
0

>  <SCORE.RESTR.CAVITY>
0

>  <SCORE.RESTR.norm>
0

>  <SCORE.SYSTEM>
0

>  <SCORE.SYSTEM.CONST>
0

>  <SCORE.SYSTEM.DIHEDRAL>
0

>  <SCORE.SYSTEM.SOLV>
0

>  <SCORE.SYSTEM.norm>
0

>  <SCORE.heavy>
31

>  <SCORE.norm>
-1.6608

>  <RMSD>
3.489

$$$$
1byj cryst
 OpenBabel11021811383D
libRbt.so/2013.1/901 2013/11/27
 31 33  0  0  0  0  0  0  0  0999 V2000
    7.5687    2.4369   -1.3123 C   0  0  1  0  0  0  0  0  0  0  0  0
    8.5551    3.3825   -1.8366 O   0  0  0  0  0  0  0  0  0  0  0  0
    8.9287    3.2954   -3.2443 C   0  0  2  0  0  0  0  0  0  0  0  0
    7.8183    3.6803   -4.1136 O   0  0  0  0  0  0  0  0  0  0  0  0
    9.4110    1.8471   -3.5607 C   0  0  2  0  0  0  0  0  0  0  0  0
    9.8119    1.6616   -4.9692 N   0  3  0  0  0  0  0  0  0  0  0  0
    8.3128    0.8238   -3.1723 C   0  0  0  0  0  0  0  0  0  0  0  0
    7.9179    0.9722   -1.6952 C   0  0  0  0  0  0  0  0  0  0  0  0
    7.5075    2.5598    0.2205 C   0  0  0  0  0  0  0  0  0  0  0  0
    8.1596    3.7665    0.7458 N   0  3  0  0  0  0  0  0  0  0  0  0
    8.7587    5.9565   -4.0430 C   0  0  1  0  0  0  0  0  0  0  0  0
    8.4364    7.4706   -4.0397 C   0  0  0  0  0  0  0  0  0  0  0  0
    7.4581    7.8157   -2.8849 C   0  0  1  0  0  0  0  0  0  0  0  0
    7.2211    9.2714   -2.8454 N   0  3  0  0  0  0  0  0  0  0  0  0
    6.1329    7.0156   -3.0442 C   0  0  1  0  0  0  0  0  0  0  0  0
    6.3951    5.4929   -3.1584 C   0  0  1  0  0  0  0  0  0  0  0  0
    5.1482    4.8887   -3.4688 O   0  0  0  0  0  0  0  0  0  0  0  0
    7.4664    5.0949   -4.2267 C   0  0  2  0  0  0  0  0  0  0  0  0
    9.7659    5.6561   -5.0757 N   0  3  0  0  0  0  0  0  0  0  0  0
    2.9610    8.6732   -3.2543 C   0  0  0  0  0  0  0  0  0  0  0  0
    1.8830    8.8544   -2.1575 C   0  0  2  0  0  0  0  0  0  0  0  0
    1.6872   10.2583   -1.9935 O   0  0  0  0  0  0  0  0  0  0  0  0
    2.3834    8.1963   -0.8167 C   0  0  1  0  0  0  0  0  0  0  0  0
    3.8430    8.6204   -0.4373 C   0  0  2  0  0  0  0  0  0  0  0  0
    4.8291    8.5763   -1.6320 C   0  0  1  0  0  0  0  0  0  0  0  0
    5.2705    7.2171   -1.8883 O   0  0  0  0  0  0  0  0  0  0  0  0
    4.2451    9.1910   -2.8152 O   0  0  0  0  0  0  0  0  0  0  0  0
    4.3622    7.8151    0.6177 O   0  0  0  0  0  0  0  0  0  0  0  0
    1.4337    8.5229    0.2923 N   0  3  0  0  0  0  0  0  0  0  0  0
    0.2309    7.6746    0.4168 C   0  0  0  0  0  0  0  0  0  0  0  0
    0.5486    8.2606   -2.6721 C   0  0  0  0  0  0  0  0  0  0  0  0
  1  8  1  0  0  0  0
  1  9  1  1  0  0  0
  1  2  1  0  0  0  0
  2  3  1  0  0  0  0
  3  5  1  0  0  0  0
  3  4  1  6  0  0  0
  5  7  1  0  0  0  0
  5  6  1  6  0  0  0
  7  8  1  0  0  0  0
  9 10  1  0  0  0  0
 11 12  1  0  0  0  0
 11 18  1  0  0  0  0
 11 19  1  6  0  0  0
 12 13  1  0  0  0  0
 13 15  1  0  0  0  0
 13 14  1  6  0  0  0
 15 16  1  0  0  0  0
 15 26  1  1  0  0  0
 16 18  1  0  0  0  0
 16 17  1  6  0  0  0
 18  4  1  1  0  0  0
 20 21  1  0  0  0  0
 20 27  1  0  0  0  0
 21 31  1  6  0  0  0
 21 23  1  0  0  0  0
 21 22  1  0  0  0  0
 23 24  1  0  0  0  0
 23 29  1  1  0  0  0
 24 25  1  0  0  0  0
 24 28  1  1  0  0  0
 25 27  1  0  0  0  0
 25 26  1  6  0  0  0
 29 30  1  0  0  0  0
M  CHG  5   6   1  10   1  14   1  19   1  29   1
M  END
>  <CHROM.1>
14.28898935,74.30541621,30.99117750,-57.02068526,-18.91688257,177.37750453
102.56828505,61.51113643,-177.05441469,177.49543210,-155.81400871,-172.52554896
175.98400289,5.94944570,5.98878010,-2.31237010,0.46658312,-0.63508074,2.57209286

>  <Name>
1byj cryst

>  <RI>
0

>  <Rbt.Current_Directory>
/home/itssahil/PROJECTS/Mol_Feturizer/New_Systems/rnas/1byj

>  <Rbt.Executable>
rbdock ($Id: //depot/dev/client3/rdock/2013.1/src/exe/rbdock.cxx#4 $)

>  <Rbt.Library>
libRbt.so (2013.1, Build901 2013/11/27)

>  <Rbt.Parameter_File>
/export/apps/rDock/src/rDock_2013.1_src/data/scripts/dock_solv.prm

>  <Rbt.Receptor>
prm/pocket_docking_4.prm

>  <SCORE>
-34.0528

>  <SCORE.INTER>
-31.7433

>  <SCORE.INTER.CONST>
1

>  <SCORE.INTER.POLAR>
-5.41516

>  <SCORE.INTER.ROT>
6

>  <SCORE.INTER.SOLV>
23.4234

>  <SCORE.INTER.VDW>
-18.5195

>  <SCORE.INTER.norm>
-1.02398

>  <SCORE.INTRA>
-2.30955

>  <SCORE.INTRA.DIHEDRAL>
-1.79945

>  <SCORE.INTRA.DIHEDRAL.0>
18.4149

>  <SCORE.INTRA.POLAR>
-1.26753

>  <SCORE.INTRA.POLAR.0>
0

>  <SCORE.INTRA.REPUL>
-0.092687

>  <SCORE.INTRA.REPUL.0>
0.092687

>  <SCORE.INTRA.SOLV>
0.935622

>  <SCORE.INTRA.SOLV.lig_0>
-120.37

>  <SCORE.INTRA.VDW>
2.89541

>  <SCORE.INTRA.VDW.0>
-1.75542

>  <SCORE.INTRA.norm>
-0.0745017

>  <SCORE.RESTR>
0

>  <SCORE.RESTR.CAVITY>
0

>  <SCORE.RESTR.norm>
0

>  <SCORE.SYSTEM>
0

>  <SCORE.SYSTEM.CONST>
0

>  <SCORE.SYSTEM.DIHEDRAL>
0

>  <SCORE.SYSTEM.SOLV>
0

>  <SCORE.SYSTEM.norm>
0

>  <SCORE.heavy>
31

>  <SCORE.norm>
-1.09848

>  <RMSD>
3.524

$$$$
1byj cryst
 OpenBabel11021811383D
libRbt.so/2013.1/901 2013/11/27
 31 33  0  0  0  0  0  0  0  0999 V2000
    8.6152    1.7025   -1.0255 C   0  0  1  0  0  0  0  0  0  0  0  0
    9.0107    2.9415   -1.6968 O   0  0  0  0  0  0  0  0  0  0  0  0
    9.0643    2.9611   -3.1547 C   0  0  2  0  0  0  0  0  0  0  0  0
    7.7283    2.8495   -3.7373 O   0  0  0  0  0  0  0  0  0  0  0  0
    9.9894    1.8089   -3.6518 C   0  0  2  0  0  0  0  0  0  0  0  0
   10.1057    1.7488   -5.1221 N   0  3  0  0  0  0  0  0  0  0  0  0
    9.4939    0.4501   -3.0930 C   0  0  0  0  0  0  0  0  0  0  0  0
    9.4128    0.4808   -1.5594 C   0  0  0  0  0  0  0  0  0  0  0  0
    8.8545    1.8427    0.4881 C   0  0  0  0  0  0  0  0  0  0  0  0
   10.0222    2.6650    0.8310 N   0  3  0  0  0  0  0  0  0  0  0  0
    7.6546    5.2970   -4.0106 C   0  0  1  0  0  0  0  0  0  0  0  0
    6.7898    6.5722   -3.8605 C   0  0  0  0  0  0  0  0  0  0  0  0
    6.2518    6.6964   -2.4097 C   0  0  1  0  0  0  0  0  0  0  0  0
    5.4951    7.9542   -2.2606 N   0  3  0  0  0  0  0  0  0  0  0  0
    5.3891    5.4531   -2.0467 C   0  0  1  0  0  0  0  0  0  0  0  0
    6.1659    4.1324   -2.2754 C   0  0  1  0  0  0  0  0  0  0  0  0
    5.2372    3.0764   -2.0794 O   0  0  0  0  0  0  0  0  0  0  0  0
    6.8350    4.0058   -3.6838 C   0  0  2  0  0  0  0  0  0  0  0  0
    8.2444    5.2419   -5.3599 N   0  3  0  0  0  0  0  0  0  0  0  0
    3.3705    5.6047    1.9331 C   0  0  0  0  0  0  0  0  0  0  0  0
    1.9213    5.9171    1.4862 C   0  0  2  0  0  0  0  0  0  0  0  0
    1.1106    4.8195    1.9037 O   0  0  0  0  0  0  0  0  0  0  0  0
    1.8796    6.0829   -0.0797 C   0  0  1  0  0  0  0  0  0  0  0  0
    2.6072    4.9194   -0.8353 C   0  0  2  0  0  0  0  0  0  0  0  0
    3.9813    4.5489   -0.2218 C   0  0  1  0  0  0  0  0  0  0  0  0
    5.0055    5.4879   -0.6424 O   0  0  0  0  0  0  0  0  0  0  0  0
    3.8969    4.4490    1.2280 O   0  0  0  0  0  0  0  0  0  0  0  0
    2.7874    5.2265   -2.2153 O   0  0  0  0  0  0  0  0  0  0  0  0
    0.4605    6.2037   -0.5380 N   0  3  0  0  0  0  0  0  0  0  0  0
    0.2200    6.9613   -1.7830 C   0  0  0  0  0  0  0  0  0  0  0  0
    1.4272    7.1706    2.2496 C   0  0  0  0  0  0  0  0  0  0  0  0
  1  8  1  0  0  0  0
  1  9  1  1  0  0  0
  1  2  1  0  0  0  0
  2  3  1  0  0  0  0
  3  5  1  0  0  0  0
  3  4  1  6  0  0  0
  5  7  1  0  0  0  0
  5  6  1  6  0  0  0
  7  8  1  0  0  0  0
  9 10  1  0  0  0  0
 11 12  1  0  0  0  0
 11 18  1  0  0  0  0
 11 19  1  6  0  0  0
 12 13  1  0  0  0  0
 13 15  1  0  0  0  0
 13 14  1  6  0  0  0
 15 16  1  0  0  0  0
 15 26  1  1  0  0  0
 16 18  1  0  0  0  0
 16 17  1  6  0  0  0
 18  4  1  1  0  0  0
 20 21  1  0  0  0  0
 20 27  1  0  0  0  0
 21 31  1  1  0  0  0
 21 23  1  0  0  0  0
 21 22  1  0  0  0  0
 23 24  1  0  0  0  0
 23 29  1  6  0  0  0
 24 25  1  0  0  0  0
 24 28  1  6  0  0  0
 25 27  1  0  0  0  0
 25 26  1  1  0  0  0
 29 30  1  0  0  0  0
M  CHG  5   6   1  10   1  14   1  19   1  29   1
M  END
>  <CHROM.1>
-33.92041309,74.04401518,41.92571140,-169.30980467,-78.83752521,-70.95418026
178.49338703,167.80093671,-176.95533116,-63.03858793,-86.58671270,-73.06508261
-68.73196206,5.76402569,4.36951713,-1.53301290,-0.12263386,-0.57622291,2.06986540

>  <Name>
1byj cryst

>  <RI>
0

>  <Rbt.Current_Directory>
/home/itssahil/PROJECTS/Mol_Feturizer/New_Systems/rnas/1byj

>  <Rbt.Executable>
rbdock ($Id: //depot/dev/client3/rdock/2013.1/src/exe/rbdock.cxx#4 $)

>  <Rbt.Library>
libRbt.so (2013.1, Build901 2013/11/27)

>  <Rbt.Parameter_File>
/export/apps/rDock/src/rDock_2013.1_src/data/scripts/dock_solv.prm

>  <Rbt.Receptor>
prm/pocket_docking_5.prm

>  <SCORE>
-43.6055

>  <SCORE.INTER>
-38.6411

>  <SCORE.INTER.CONST>
1

>  <SCORE.INTER.POLAR>
-6.33533

>  <SCORE.INTER.ROT>
6

>  <SCORE.INTER.SOLV>
28.5279

>  <SCORE.INTER.VDW>
-21.7523

>  <SCORE.INTER.norm>
-1.24649

>  <SCORE.INTRA>
-4.96439

>  <SCORE.INTRA.DIHEDRAL>
-8.65065

>  <SCORE.INTRA.DIHEDRAL.0>
18.4149

>  <SCORE.INTRA.POLAR>
-0.135914

>  <SCORE.INTRA.POLAR.0>
0

>  <SCORE.INTRA.REPUL>
-0.092687

>  <SCORE.INTRA.REPUL.0>
0.092687

>  <SCORE.INTRA.SOLV>
0.414144

>  <SCORE.INTRA.SOLV.lig_0>
-120.37

>  <SCORE.INTRA.VDW>
0.0794101

>  <SCORE.INTRA.VDW.0>
-1.75542

>  <SCORE.INTRA.norm>
-0.160142

>  <SCORE.RESTR>
0

>  <SCORE.RESTR.CAVITY>
0

>  <SCORE.RESTR.norm>
0

>  <SCORE.SYSTEM>
0

>  <SCORE.SYSTEM.CONST>
0

>  <SCORE.SYSTEM.DIHEDRAL>
0

>  <SCORE.SYSTEM.SOLV>
0

>  <SCORE.SYSTEM.norm>
0

>  <SCORE.heavy>
31

>  <SCORE.norm>
-1.40663

>  <RMSD>
3.528

$$$$
1byj cryst
 OpenBabel11021811383D
libRbt.so/2013.1/901 2013/11/27
 31 33  0  0  0  0  0  0  0  0999 V2000
    8.3447    1.6201   -0.6232 C   0  0  1  0  0  0  0  0  0  0  0  0
    8.5557    2.9367   -1.2266 O   0  0  0  0  0  0  0  0  0  0  0  0
    8.6159    3.0384   -2.6808 C   0  0  2  0  0  0  0  0  0  0  0  0
    7.3155    2.7594   -3.2875 O   0  0  0  0  0  0  0  0  0  0  0  0
    9.7059    2.0634   -3.2209 C   0  0  2  0  0  0  0  0  0  0  0  0
    9.8401    2.0964   -4.6905 N   0  3  0  0  0  0  0  0  0  0  0  0
    9.4148    0.6194   -2.7371 C   0  0  0  0  0  0  0  0  0  0  0  0
    9.3194    0.5593   -1.2052 C   0  0  0  0  0  0  0  0  0  0  0  0
    8.5500    1.7168    0.8988 C   0  0  0  0  0  0  0  0  0  0  0  0
    9.7479    2.4714    1.2896 N   0  3  0  0  0  0  0  0  0  0  0  0
    7.0669    5.1765   -3.6956 C   0  0  1  0  0  0  0  0  0  0  0  0
    6.0907    6.3780   -3.6881 C   0  0  0  0  0  0  0  0  0  0  0  0
    5.4160    6.5215   -2.2975 C   0  0  1  0  0  0  0  0  0  0  0  0
    4.5487    7.7150   -2.2807 N   0  3  0  0  0  0  0  0  0  0  0  0
    4.6287    5.2264   -1.9444 C   0  0  1  0  0  0  0  0  0  0  0  0
    5.5284    3.9684   -2.0352 C   0  0  1  0  0  0  0  0  0  0  0  0
    4.6752    2.8464   -1.8638 O   0  0  0  0  0  0  0  0  0  0  0  0
    6.3295    3.8357   -3.3723 C   0  0  2  0  0  0  0  0  0  0  0  0
    7.7781    5.1108   -4.9845 N   0  3  0  0  0  0  0  0  0  0  0  0
    3.4365    3.9980    2.0975 C   0  0  0  0  0  0  0  0  0  0  0  0
    2.1860    4.7525    2.6120 C   0  0  2  0  0  0  0  0  0  0  0  0
    1.1379    3.7913    2.7289 O   0  0  0  0  0  0  0  0  0  0  0  0
    1.7985    5.8848    1.5876 C   0  0  1  0  0  0  0  0  0  0  0  0
    1.7460    5.3754    0.1072 C   0  0  2  0  0  0  0  0  0  0  0  0
    2.9516    4.4827   -0.2818 C   0  0  1  0  0  0  0  0  0  0  0  0
    4.1189    5.2921   -0.5819 O   0  0  0  0  0  0  0  0  0  0  0  0
    3.2257    3.4946    0.7513 O   0  0  0  0  0  0  0  0  0  0  0  0
    1.6599    6.4592   -0.8143 O   0  0  0  0  0  0  0  0  0  0  0  0
    0.4919    6.4978    1.9817 N   0  3  0  0  0  0  0  0  0  0  0  0
    0.3774    7.9658    1.8649 C   0  0  0  0  0  0  0  0  0  0  0  0
    2.4812    5.2870    4.0351 C   0  0  0  0  0  0  0  0  0  0  0  0
  1  8  1  0  0  0  0
  1  9  1  1  0  0  0
  1  2  1  0  0  0  0
  2  3  1  0  0  0  0
  3  5  1  0  0  0  0
  3  4  1  6  0  0  0
  5  7  1  0  0  0  0
  5  6  1  6  0  0  0
  7  8  1  0  0  0  0
  9 10  1  0  0  0  0
 11 12  1  0  0  0  0
 11 18  1  0  0  0  0
 11 19  1  6  0  0  0
 12 13  1  0  0  0  0
 13 15  1  0  0  0  0
 13 14  1  6  0  0  0
 15 16  1  0  0  0  0
 15 26  1  1  0  0  0
 16 18  1  0  0  0  0
 16 17  1  6  0  0  0
 18  4  1  1  0  0  0
 20 21  1  0  0  0  0
 20 27  1  0  0  0  0
 21 31  1  1  0  0  0
 21 23  1  0  0  0  0
 21 22  1  0  0  0  0
 23 24  1  0  0  0  0
 23 29  1  1  0  0  0
 24 25  1  0  0  0  0
 24 28  1  6  0  0  0
 25 27  1  0  0  0  0
 25 26  1  1  0  0  0
 29 30  1  0  0  0  0
M  CHG  5   6   1  10   1  14   1  19   1  29   1
M  END
>  <CHROM.1>
-45.54490494,83.34535166,37.76273613,-160.32927654,-51.61559348,98.39016211
-172.38287875,155.27483602,-176.14732455,-58.85672600,-100.08360131,-62.60794637
-116.55034383,5.37604954,4.20518277,-0.89247789,-0.21601494,-0.60839467,2.11305984

>  <Name>
1byj cryst

>  <RI>
0

>  <Rbt.Current_Directory>
/home/itssahil/PROJECTS/Mol_Feturizer/New_Systems/rnas/1byj

>  <Rbt.Executable>
rbdock ($Id: //depot/dev/client3/rdock/2013.1/src/exe/rbdock.cxx#4 $)

>  <Rbt.Library>
libRbt.so (2013.1, Build901 2013/11/27)

>  <Rbt.Parameter_File>
/export/apps/rDock/src/rDock_2013.1_src/data/scripts/dock_solv.prm

>  <Rbt.Receptor>
prm/pocket_docking_6.prm

>  <SCORE>
-36.8248

>  <SCORE.INTER>
-38.1208

>  <SCORE.INTER.CONST>
1

>  <SCORE.INTER.POLAR>
-6.25606

>  <SCORE.INTER.ROT>
6

>  <SCORE.INTER.SOLV>
23.8882

>  <SCORE.INTER.VDW>
-20.1231

>  <SCORE.INTER.norm>
-1.2297

>  <SCORE.INTRA>
1.29592

>  <SCORE.INTRA.DIHEDRAL>
3.41817

>  <SCORE.INTRA.DIHEDRAL.0>
18.4149

>  <SCORE.INTRA.POLAR>
0

>  <SCORE.INTRA.POLAR.0>
0

>  <SCORE.INTRA.REPUL>
-0.0873754

>  <SCORE.INTRA.REPUL.0>
0.092687

>  <SCORE.INTRA.SOLV>
1.80067

>  <SCORE.INTRA.SOLV.lig_0>
-120.37

>  <SCORE.INTRA.VDW>
-0.876629

>  <SCORE.INTRA.VDW.0>
-1.75542

>  <SCORE.INTRA.norm>
0.0418037

>  <SCORE.RESTR>
0

>  <SCORE.RESTR.CAVITY>
0

>  <SCORE.RESTR.norm>
0

>  <SCORE.SYSTEM>
0

>  <SCORE.SYSTEM.CONST>
0

>  <SCORE.SYSTEM.DIHEDRAL>
0

>  <SCORE.SYSTEM.SOLV>
0

>  <SCORE.SYSTEM.norm>
0

>  <SCORE.heavy>
31

>  <SCORE.norm>
-1.1879

>  <RMSD>
3.556

$$$$
1byj cryst
 OpenBabel11021811383D
libRbt.so/2013.1/901 2013/11/27
 31 33  0  0  0  0  0  0  0  0999 V2000
    6.7783    4.5114   -1.4621 C   0  0  1  0  0  0  0  0  0  0  0  0
    7.2292    5.7696   -2.0585 O   0  0  0  0  0  0  0  0  0  0  0  0
    7.5820    5.7861   -3.4741 C   0  0  2  0  0  0  0  0  0  0  0  0
    6.4046    5.5893   -4.3176 O   0  0  0  0  0  0  0  0  0  0  0  0
    8.6572    4.6915   -3.7499 C   0  0  2  0  0  0  0  0  0  0  0  0
    9.0786    4.6323   -5.1634 N   0  3  0  0  0  0  0  0  0  0  0  0
    8.1391    3.3070   -3.2821 C   0  0  0  0  0  0  0  0  0  0  0  0
    7.7408    3.3393   -1.7989 C   0  0  0  0  0  0  0  0  0  0  0  0
    6.6905    4.6728    0.0658 C   0  0  0  0  0  0  0  0  0  0  0  0
    6.0693    3.5304    0.7487 N   0  3  0  0  0  0  0  0  0  0  0  0
    5.7816    7.9413   -3.9302 C   0  0  1  0  0  0  0  0  0  0  0  0
    4.6201    8.9220   -3.6372 C   0  0  0  0  0  0  0  0  0  0  0  0
    3.8480    8.4851   -2.3634 C   0  0  1  0  0  0  0  0  0  0  0  0
    2.7945    9.4700   -2.0520 N   0  3  0  0  0  0  0  0  0  0  0  0
    3.2678    7.0532   -2.5496 C   0  0  1  0  0  0  0  0  0  0  0  0
    4.3684    6.0382   -2.9479 C   0  0  1  0  0  0  0  0  0  0  0  0
    3.7055    4.8206   -3.2548 O   0  0  0  0  0  0  0  0  0  0  0  0
    5.2598    6.4840   -4.1537 C   0  0  2  0  0  0  0  0  0  0  0  0
    6.5705    8.4205   -5.0788 N   0  3  0  0  0  0  0  0  0  0  0  0
    0.2795    4.9051   -2.2040 C   0  0  0  0  0  0  0  0  0  0  0  0
   -0.3569    4.3665   -0.8992 C   0  0  2  0  0  0  0  0  0  0  0  0
   -1.6869    4.8802   -0.8412 O   0  0  0  0  0  0  0  0  0  0  0  0
    0.4886    4.8548    0.3369 C   0  0  1  0  0  0  0  0  0  0  0  0
    0.8000    6.3895    0.2944 C   0  0  2  0  0  0  0  0  0  0  0  0
    1.2702    6.8858   -1.0965 C   0  0  1  0  0  0  0  0  0  0  0  0
    2.6725    6.5762   -1.3092 O   0  0  0  0  0  0  0  0  0  0  0  0
    0.4278    6.3493   -2.1555 O   0  0  0  0  0  0  0  0  0  0  0  0
    1.7781    6.7501    1.2662 O   0  0  0  0  0  0  0  0  0  0  0  0
   -0.2166    4.4943    1.6062 N   0  3  0  0  0  0  0  0  0  0  0  0
    0.6249    4.2570    2.7969 C   0  0  0  0  0  0  0  0  0  0  0  0
   -0.4629    2.8248   -1.0000 C   0  0  0  0  0  0  0  0  0  0  0  0
  1  8  1  0  0  0  0
  1  9  1  1  0  0  0
  1  2  1  0  0  0  0
  2  3  1  0  0  0  0
  3  5  1  0  0  0  0
  3  4  1  6  0  0  0
  5  7  1  0  0  0  0
  5  6  1  6  0  0  0
  7  8  1  0  0  0  0
  9 10  1  0  0  0  0
 11 12  1  0  0  0  0
 11 18  1  0  0  0  0
 11 19  1  6  0  0  0
 12 13  1  0  0  0  0
 13 15  1  0  0  0  0
 13 14  1  6  0  0  0
 15 16  1  0  0  0  0
 15 26  1  1  0  0  0
 16 18  1  0  0  0  0
 16 17  1  6  0  0  0
 18  4  1  1  0  0  0
 20 21  1  0  0  0  0
 20 27  1  0  0  0  0
 21 31  1  6  0  0  0
 21 23  1  0  0  0  0
 21 22  1  0  0  0  0
 23 24  1  0  0  0  0
 23 29  1  1  0  0  0
 24 25  1  0  0  0  0
 24 28  1  1  0  0  0
 25 27  1  0  0  0  0
 25 26  1  6  0  0  0
 29 30  1  0  0  0  0
M  CHG  5   6   1  10   1  14   1  19   1  29   1
M  END
>  <CHROM.1>
171.91359053,55.06147506,40.02733801,162.59793386,-173.31476010,55.77521231
68.95032736,89.18656082,-166.93886622,66.69100232,-87.70009061,-66.60933723
-176.68887661,3.85905597,5.70716593,-1.84819546,-0.31571567,-0.34155334,2.47466550

>  <Name>
1byj cryst

>  <RI>
0

>  <Rbt.Current_Directory>
/home/itssahil/PROJECTS/Mol_Feturizer/New_Systems/rnas/1byj

>  <Rbt.Executable>
rbdock ($Id: //depot/dev/client3/rdock/2013.1/src/exe/rbdock.cxx#4 $)

>  <Rbt.Library>
libRbt.so (2013.1, Build901 2013/11/27)

>  <Rbt.Parameter_File>
/export/apps/rDock/src/rDock_2013.1_src/data/scripts/dock_solv.prm

>  <Rbt.Receptor>
prm/pocket_docking_7.prm

>  <SCORE>
-36.1712

>  <SCORE.INTER>
-29.8581

>  <SCORE.INTER.CONST>
1

>  <SCORE.INTER.POLAR>
-5.48573

>  <SCORE.INTER.ROT>
6

>  <SCORE.INTER.SOLV>
18.7717

>  <SCORE.INTER.VDW>
-15.4769

>  <SCORE.INTER.norm>
-0.963165

>  <SCORE.INTRA>
-6.3131

>  <SCORE.INTRA.DIHEDRAL>
-8.37646

>  <SCORE.INTRA.DIHEDRAL.0>
18.4149

>  <SCORE.INTRA.POLAR>
0

>  <SCORE.INTRA.POLAR.0>
0

>  <SCORE.INTRA.REPUL>
-0.092687

>  <SCORE.INTRA.REPUL.0>
0.092687

>  <SCORE.INTRA.SOLV>
-2.17245

>  <SCORE.INTRA.SOLV.lig_0>
-120.37

>  <SCORE.INTRA.VDW>
-0.575205

>  <SCORE.INTRA.VDW.0>
-1.75542

>  <SCORE.INTRA.norm>
-0.203648

>  <SCORE.RESTR>
0

>  <SCORE.RESTR.CAVITY>
0

>  <SCORE.RESTR.norm>
0

>  <SCORE.SYSTEM>
0

>  <SCORE.SYSTEM.CONST>
0

>  <SCORE.SYSTEM.DIHEDRAL>
0

>  <SCORE.SYSTEM.SOLV>
0

>  <SCORE.SYSTEM.norm>
0

>  <SCORE.heavy>
31

>  <SCORE.norm>
-1.16681

>  <RMSD>
3.564

$$$$
1byj cryst
 OpenBabel11021811383D
libRbt.so/2013.1/901 2013/11/27
 31 33  0  0  0  0  0  0  0  0999 V2000
    4.7715    3.4972   -1.0974 C   0  0  1  0  0  0  0  0  0  0  0  0
    6.0636    4.1542   -1.2991 O   0  0  0  0  0  0  0  0  0  0  0  0
    7.0057    3.5691   -2.2471 C   0  0  2  0  0  0  0  0  0  0  0  0
    6.5190    3.6853   -3.6205 O   0  0  0  0  0  0  0  0  0  0  0  0
    7.2596    2.0785   -1.8678 C   0  0  2  0  0  0  0  0  0  0  0  0
    8.2049    1.3994   -2.7756 N   0  3  0  0  0  0  0  0  0  0  0  0
    5.9156    1.3074   -1.8120 C   0  0  0  0  0  0  0  0  0  0  0  0
    4.9366    1.9749   -0.8345 C   0  0  0  0  0  0  0  0  0  0  0  0
    4.0509    4.1435    0.0989 C   0  0  0  0  0  0  0  0  0  0  0  0
    3.8019    5.5818   -0.0644 N   0  3  0  0  0  0  0  0  0  0  0  0
    7.8842    5.6571   -4.1853 C   0  0  1  0  0  0  0  0  0  0  0  0
    7.8684    7.1076   -4.7261 C   0  0  0  0  0  0  0  0  0  0  0  0
    6.9024    7.9890   -3.8896 C   0  0  1  0  0  0  0  0  0  0  0  0
    6.9560    9.3844   -4.3660 N   0  3  0  0  0  0  0  0  0  0  0  0
    5.4589    7.4106   -3.9472 C   0  0  1  0  0  0  0  0  0  0  0  0
    5.4217    5.9233   -3.5152 C   0  0  1  0  0  0  0  0  0  0  0  0
    4.1037    5.4601   -3.7685 O   0  0  0  0  0  0  0  0  0  0  0  0
    6.4623    5.0081   -4.2410 C   0  0  2  0  0  0  0  0  0  0  0  0
    8.8791    4.8548   -4.9186 N   0  3  0  0  0  0  0  0  0  0  0  0
    1.6770    7.9329   -2.1189 C   0  0  0  0  0  0  0  0  0  0  0  0
    1.3171    9.3375   -1.5756 C   0  0  2  0  0  0  0  0  0  0  0  0
    0.2427    9.8307   -2.3745 O   0  0  0  0  0  0  0  0  0  0  0  0
    2.5753   10.2792   -1.6825 C   0  0  1  0  0  0  0  0  0  0  0  0
    3.2555   10.2298   -3.0928 C   0  0  2  0  0  0  0  0  0  0  0  0
    3.4265    8.7922   -3.6459 C   0  0  1  0  0  0  0  0  0  0  0  0
    4.5778    8.1413   -3.0470 O   0  0  0  0  0  0  0  0  0  0  0  0
    2.2086    8.0151   -3.4681 O   0  0  0  0  0  0  0  0  0  0  0  0
    4.5275   10.8725   -3.0809 O   0  0  0  0  0  0  0  0  0  0  0  0
    2.1890   11.6814   -1.3316 N   0  3  0  0  0  0  0  0  0  0  0  0
    2.0847   12.0087    0.1050 C   0  0  0  0  0  0  0  0  0  0  0  0
    0.7840    9.1872   -0.1294 C   0  0  0  0  0  0  0  0  0  0  0  0
  1  8  1  0  0  0  0
  1  9  1  1  0  0  0
  1  2  1  0  0  0  0
  2  3  1  0  0  0  0
  3  5  1  0  0  0  0
  3  4  1  6  0  0  0
  5  7  1  0  0  0  0
  5  6  1  6  0  0  0
  7  8  1  0  0  0  0
  9 10  1  0  0  0  0
 11 12  1  0  0  0  0
 11 18  1  0  0  0  0
 11 19  1  6  0  0  0
 12 13  1  0  0  0  0
 13 15  1  0  0  0  0
 13 14  1  6  0  0  0
 15 16  1  0  0  0  0
 15 26  1  1  0  0  0
 16 18  1  0  0  0  0
 16 17  1  6  0  0  0
 18  4  1  1  0  0  0
 20 21  1  0  0  0  0
 20 27  1  0  0  0  0
 21 31  1  1  0  0  0
 21 23  1  0  0  0  0
 21 22  1  0  0  0  0
 23 24  1  0  0  0  0
 23 29  1  6  0  0  0
 24 25  1  0  0  0  0
 24 28  1  1  0  0  0
 25 27  1  0  0  0  0
 25 26  1  1  0  0  0
 29 30  1  0  0  0  0
M  CHG  5   6   1  10   1  14   1  19   1  29   1
M  END
>  <CHROM.1>
59.37925411,69.32108668,56.21210960,-63.34103455,-174.60452940,-5.99778884
65.38135422,120.63413973,-54.04741351,63.28790558,-158.78082650,-155.72458670
-135.24253247,4.74800178,6.69273146,-2.54386873,0.82318610,-0.61228520,2.77133743

>  <Name>
1byj cryst

>  <RI>
0

>  <Rbt.Current_Directory>
/home/itssahil/PROJECTS/Mol_Feturizer/New_Systems/rnas/1byj

>  <Rbt.Executable>
rbdock ($Id: //depot/dev/client3/rdock/2013.1/src/exe/rbdock.cxx#4 $)

>  <Rbt.Library>
libRbt.so (2013.1, Build901 2013/11/27)

>  <Rbt.Parameter_File>
/export/apps/rDock/src/rDock_2013.1_src/data/scripts/dock_solv.prm

>  <Rbt.Receptor>
prm/pocket_docking_4.prm

>  <SCORE>
-33.3302

>  <SCORE.INTER>
-31.0468

>  <SCORE.INTER.CONST>
1

>  <SCORE.INTER.POLAR>
-4.70401

>  <SCORE.INTER.ROT>
6

>  <SCORE.INTER.SOLV>
21.6368

>  <SCORE.INTER.VDW>
-19.8301

>  <SCORE.INTER.norm>
-1.00151

>  <SCORE.INTRA>
-2.36962

>  <SCORE.INTRA.DIHEDRAL>
2.91014

>  <SCORE.INTRA.DIHEDRAL.0>
18.4149

>  <SCORE.INTRA.POLAR>
-1.00608

>  <SCORE.INTRA.POLAR.0>
0

>  <SCORE.INTRA.REPUL>
-0.092687

>  <SCORE.INTRA.REPUL.0>
0.092687

>  <SCORE.INTRA.SOLV>
2.12833

>  <SCORE.INTRA.SOLV.lig_0>
-120.37

>  <SCORE.INTRA.VDW>
-1.00476

>  <SCORE.INTRA.VDW.0>
-1.75542

>  <SCORE.INTRA.norm>
-0.0764395

>  <SCORE.RESTR>
0.0861804

>  <SCORE.RESTR.CAVITY>
0.0861804

>  <SCORE.RESTR.norm>
0.00278001

>  <SCORE.SYSTEM>
0

>  <SCORE.SYSTEM.CONST>
0

>  <SCORE.SYSTEM.DIHEDRAL>
0

>  <SCORE.SYSTEM.SOLV>
0

>  <SCORE.SYSTEM.norm>
0

>  <SCORE.heavy>
31

>  <SCORE.norm>
-1.07517

>  <RMSD>
3.584

$$$$
1byj cryst
 OpenBabel11021811383D
libRbt.so/2013.1/901 2013/11/27
 31 33  0  0  0  0  0  0  0  0999 V2000
    5.5731    3.4850   -0.5092 C   0  0  1  0  0  0  0  0  0  0  0  0
    6.6964    4.1475   -1.1734 O   0  0  0  0  0  0  0  0  0  0  0  0
    7.3648    3.4586   -2.2721 C   0  0  2  0  0  0  0  0  0  0  0  0
    6.4929    3.3501   -3.4403 O   0  0  0  0  0  0  0  0  0  0  0  0
    7.8318    2.0516   -1.7900 C   0  0  2  0  0  0  0  0  0  0  0  0
    8.5222    1.2760   -2.8392 N   0  3  0  0  0  0  0  0  0  0  0  0
    6.6254    1.2525   -1.2330 C   0  0  0  0  0  0  0  0  0  0  0  0
    5.9241    2.0261   -0.1064 C   0  0  0  0  0  0  0  0  0  0  0  0
    5.1833    4.2792    0.7499 C   0  0  0  0  0  0  0  0  0  0  0  0
    6.3255    4.6477    1.5967 N   0  3  0  0  0  0  0  0  0  0  0  0
    7.0763    5.6278   -4.1766 C   0  0  1  0  0  0  0  0  0  0  0  0
    6.5291    6.9844   -4.6835 C   0  0  0  0  0  0  0  0  0  0  0  0
    5.4775    7.5510   -3.6920 C   0  0  1  0  0  0  0  0  0  0  0  0
    5.0224    8.8786   -4.1470 N   0  3  0  0  0  0  0  0  0  0  0  0
    4.2935    6.5536   -3.5344 C   0  0  1  0  0  0  0  0  0  0  0  0
    4.7857    5.1422   -3.1273 C   0  0  1  0  0  0  0  0  0  0  0  0
    3.6537    4.2867   -3.1805 O   0  0  0  0  0  0  0  0  0  0  0  0
    5.9347    4.5701   -4.0217 C   0  0  2  0  0  0  0  0  0  0  0  0
    8.1463    5.1488   -5.0694 N   0  3  0  0  0  0  0  0  0  0  0  0
    4.1503    9.4896   -0.8987 C   0  0  0  0  0  0  0  0  0  0  0  0
    3.1030    9.5901    0.2374 C   0  0  2  0  0  0  0  0  0  0  0  0
    3.8146    9.4911    1.4702 O   0  0  0  0  0  0  0  0  0  0  0  0
    2.0604    8.4180    0.0946 C   0  0  1  0  0  0  0  0  0  0  0  0
    2.7385    7.0204   -0.1076 C   0  0  2  0  0  0  0  0  0  0  0  0
    3.8947    7.0385   -1.1394 C   0  0  1  0  0  0  0  0  0  0  0  0
    3.3780    7.0051   -2.4958 O   0  0  0  0  0  0  0  0  0  0  0  0
    4.7738    8.1778   -0.9199 O   0  0  0  0  0  0  0  0  0  0  0  0
    1.7889    6.0319   -0.4982 O   0  0  0  0  0  0  0  0  0  0  0  0
    1.1553    8.3982    1.2857 N   0  3  0  0  0  0  0  0  0  0  0  0
   -0.1103    9.1524    1.1790 C   0  0  0  0  0  0  0  0  0  0  0  0
    2.4560   10.9963    0.1912 C   0  0  0  0  0  0  0  0  0  0  0  0
  1  8  1  0  0  0  0
  1  9  1  1  0  0  0
  1  2  1  0  0  0  0
  2  3  1  0  0  0  0
  3  5  1  0  0  0  0
  3  4  1  6  0  0  0
  5  7  1  0  0  0  0
  5  6  1  6  0  0  0
  7  8  1  0  0  0  0
  9 10  1  0  0  0  0
 11 12  1  0  0  0  0
 11 18  1  0  0  0  0
 11 19  1  6  0  0  0
 12 13  1  0  0  0  0
 13 15  1  0  0  0  0
 13 14  1  6  0  0  0
 15 16  1  0  0  0  0
 15 26  1  1  0  0  0
 16 18  1  0  0  0  0
 16 17  1  6  0  0  0
 18  4  1  1  0  0  0
 20 21  1  0  0  0  0
 20 27  1  0  0  0  0
 21 31  1  6  0  0  0
 21 23  1  0  0  0  0
 21 22  1  0  0  0  0
 23 24  1  0  0  0  0
 23 29  1  1  0  0  0
 24 25  1  0  0  0  0
 24 28  1  6  0  0  0
 25 27  1  0  0  0  0
 25 26  1  6  0  0  0
 29 30  1  0  0  0  0
M  CHG  5   6   1  10   1  14   1  19   1  29   1
M  END
>  <CHROM.1>
-47.48655720,56.90323420,47.09129912,-59.43478610,-65.10927342,27.90587573
-61.99843009,-65.31352408,-66.39288091,-59.38520293,-146.17858296,-63.76782208
-159.16864907,4.85989777,5.98654617,-1.54287303,0.27880964,-0.90994098,2.36601820

>  <Name>
1byj cryst

>  <RI>
0

>  <Rbt.Current_Directory>
/home/itssahil/PROJECTS/Mol_Feturizer/New_Systems/rnas/1byj

>  <Rbt.Executable>
rbdock ($Id: //depot/dev/client3/rdock/2013.1/src/exe/rbdock.cxx#4 $)

>  <Rbt.Library>
libRbt.so (2013.1, Build901 2013/11/27)

>  <Rbt.Parameter_File>
/export/apps/rDock/src/rDock_2013.1_src/data/scripts/dock_solv.prm

>  <Rbt.Receptor>
prm/pocket_docking_6.prm

>  <SCORE>
-36.8649

>  <SCORE.INTER>
-29.2172

>  <SCORE.INTER.CONST>
1

>  <SCORE.INTER.POLAR>
-5.12837

>  <SCORE.INTER.ROT>
6

>  <SCORE.INTER.SOLV>
18.4998

>  <SCORE.INTER.VDW>
-16.1501

>  <SCORE.INTER.norm>
-0.942489

>  <SCORE.INTRA>
-7.64771

>  <SCORE.INTRA.DIHEDRAL>
-10.2464

>  <SCORE.INTRA.DIHEDRAL.0>
18.4149

>  <SCORE.INTRA.POLAR>
-0.0212995

>  <SCORE.INTRA.POLAR.0>
0

>  <SCORE.INTRA.REPUL>
-0.092687

>  <SCORE.INTRA.REPUL.0>
0.092687

>  <SCORE.INTRA.SOLV>
-0.203814

>  <SCORE.INTRA.SOLV.lig_0>
-120.37

>  <SCORE.INTRA.VDW>
-1.88674

>  <SCORE.INTRA.VDW.0>
-1.75542

>  <SCORE.INTRA.norm>
-0.2467

>  <SCORE.RESTR>
0

>  <SCORE.RESTR.CAVITY>
0

>  <SCORE.RESTR.norm>
0

>  <SCORE.SYSTEM>
0

>  <SCORE.SYSTEM.CONST>
0

>  <SCORE.SYSTEM.DIHEDRAL>
0

>  <SCORE.SYSTEM.SOLV>
0

>  <SCORE.SYSTEM.norm>
0

>  <SCORE.heavy>
31

>  <SCORE.norm>
-1.18919

>  <RMSD>
3.589

$$$$
1byj cryst
 OpenBabel11021811383D
libRbt.so/2013.1/901 2013/11/27
 31 33  0  0  0  0  0  0  0  0999 V2000
    8.1500    2.0006   -1.2187 C   0  0  1  0  0  0  0  0  0  0  0  0
    9.0404    3.0308   -1.7553 O   0  0  0  0  0  0  0  0  0  0  0  0
    9.2976    3.0547   -3.1912 C   0  0  2  0  0  0  0  0  0  0  0  0
    8.1001    3.4326   -3.9395 O   0  0  0  0  0  0  0  0  0  0  0  0
    9.8227    1.6584   -3.6440 C   0  0  2  0  0  0  0  0  0  0  0  0
   10.1120    1.5858   -5.0897 N   0  3  0  0  0  0  0  0  0  0  0  0
    8.8134    0.5534   -3.2388 C   0  0  0  0  0  0  0  0  0  0  0  0
    8.5378    0.5849   -1.7280 C   0  0  0  0  0  0  0  0  0  0  0  0
    8.2124    2.0216    0.3187 C   0  0  0  0  0  0  0  0  0  0  0  0
    9.5756    1.9363    0.8588 N   0  3  0  0  0  0  0  0  0  0  0  0
    8.9270    5.7525   -4.0085 C   0  0  1  0  0  0  0  0  0  0  0  0
    8.5453    7.2475   -3.8822 C   0  0  0  0  0  0  0  0  0  0  0  0
    7.8413    7.5159   -2.5250 C   0  0  1  0  0  0  0  0  0  0  0  0
    7.5534    8.9562   -2.3847 N   0  3  0  0  0  0  0  0  0  0  0  0
    6.5525    6.6518   -2.4064 C   0  0  1  0  0  0  0  0  0  0  0  0
    6.8509    5.1477   -2.6273 C   0  0  1  0  0  0  0  0  0  0  0  0
    5.5950    4.4865   -2.6669 O   0  0  0  0  0  0  0  0  0  0  0  0
    7.6676    4.8292   -3.9231 C   0  0  2  0  0  0  0  0  0  0  0  0
    9.6851    5.5274   -5.2519 N   0  3  0  0  0  0  0  0  0  0  0  0
    3.0926    6.5981   -2.0880 C   0  0  0  0  0  0  0  0  0  0  0  0
    2.2169    6.4871   -0.8159 C   0  0  2  0  0  0  0  0  0  0  0  0
    1.3502    7.6206   -0.8062 O   0  0  0  0  0  0  0  0  0  0  0  0
    3.1425    6.4764    0.4587 C   0  0  1  0  0  0  0  0  0  0  0  0
    4.2114    7.6215    0.4453 C   0  0  2  0  0  0  0  0  0  0  0  0
    4.9269    7.7823   -0.9200 C   0  0  1  0  0  0  0  0  0  0  0  0
    5.9680    6.7830   -1.0791 O   0  0  0  0  0  0  0  0  0  0  0  0
    3.9716    7.7524   -2.0179 O   0  0  0  0  0  0  0  0  0  0  0  0
    5.1938    7.4294    1.4597 O   0  0  0  0  0  0  0  0  0  0  0  0
    2.3026    6.5526    1.6945 N   0  3  0  0  0  0  0  0  0  0  0  0
    2.8111    5.8582    2.8949 C   0  0  0  0  0  0  0  0  0  0  0  0
    1.3250    5.2270   -0.9374 C   0  0  0  0  0  0  0  0  0  0  0  0
  1  8  1  0  0  0  0
  1  9  1  1  0  0  0
  1  2  1  0  0  0  0
  2  3  1  0  0  0  0
  3  5  1  0  0  0  0
  3  4  1  6  0  0  0
  5  7  1  0  0  0  0
  5  6  1  6  0  0  0
  7  8  1  0  0  0  0
  9 10  1  0  0  0  0
 11 12  1  0  0  0  0
 11 18  1  0  0  0  0
 11 19  1  6  0  0  0
 12 13  1  0  0  0  0
 13 15  1  0  0  0  0
 13 14  1  6  0  0  0
 15 16  1  0  0  0  0
 15 26  1  1  0  0  0
 16 18  1  0  0  0  0
 16 17  1  6  0  0  0
 18  4  1  1  0  0  0
 20 21  1  0  0  0  0
 20 27  1  0  0  0  0
 21 31  1  6  0  0  0
 21 23  1  0  0  0  0
 21 22  1  0  0  0  0
 23 24  1  0  0  0  0
 23 29  1  1  0  0  0
 24 25  1  0  0  0  0
 24 28  1  1  0  0  0
 25 27  1  0  0  0  0
 25 26  1  6  0  0  0
 29 30  1  0  0  0  0
M  CHG  5   6   1  10   1  14   1  19   1  29   1
M  END
>  <CHROM.1>
-52.66493618,74.10195618,39.76423071,61.63933315,71.27758020,173.98862611
-44.16733149,94.23580246,-58.07396288,179.07314537,-91.13067835,-62.28818940
168.81359305,6.42918101,5.11658961,-1.72636040,0.23725481,-0.68654499,2.56635087

>  <Name>
1byj cryst

>  <RI>
0

>  <Rbt.Current_Directory>
/home/itssahil/PROJECTS/Mol_Feturizer/New_Systems/rnas/1byj

>  <Rbt.Executable>
rbdock ($Id: //depot/dev/client3/rdock/2013.1/src/exe/rbdock.cxx#4 $)

>  <Rbt.Library>
libRbt.so (2013.1, Build901 2013/11/27)

>  <Rbt.Parameter_File>
/export/apps/rDock/src/rDock_2013.1_src/data/scripts/dock_solv.prm

>  <Rbt.Receptor>
prm/pocket_docking_4.prm

>  <SCORE>
-30.3802

>  <SCORE.INTER>
-25.3997

>  <SCORE.INTER.CONST>
1

>  <SCORE.INTER.POLAR>
-4.97235

>  <SCORE.INTER.ROT>
6

>  <SCORE.INTER.SOLV>
28.5696

>  <SCORE.INTER.VDW>
-17.4819

>  <SCORE.INTER.norm>
-0.819347

>  <SCORE.INTRA>
-4.98231

>  <SCORE.INTRA.DIHEDRAL>
-7.07306

>  <SCORE.INTRA.DIHEDRAL.0>
18.4149

>  <SCORE.INTRA.POLAR>
-0.00933153

>  <SCORE.INTRA.POLAR.0>
0

>  <SCORE.INTRA.REPUL>
-0.092687

>  <SCORE.INTRA.REPUL.0>
0.092687

>  <SCORE.INTRA.SOLV>
0.753965

>  <SCORE.INTRA.SOLV.lig_0>
-120.37

>  <SCORE.INTRA.VDW>
-1.3276

>  <SCORE.INTRA.VDW.0>
-1.75542

>  <SCORE.INTRA.norm>
-0.16072

>  <SCORE.RESTR>
0.00186305

>  <SCORE.RESTR.CAVITY>
0.00186305

>  <SCORE.RESTR.norm>
6.00982e-05

>  <SCORE.SYSTEM>
0

>  <SCORE.SYSTEM.CONST>
0

>  <SCORE.SYSTEM.DIHEDRAL>
0

>  <SCORE.SYSTEM.SOLV>
0

>  <SCORE.SYSTEM.norm>
0

>  <SCORE.heavy>
31

>  <SCORE.norm>
-0.980006

>  <RMSD>
3.653

$$$$
1byj cryst
 OpenBabel11021811383D
libRbt.so/2013.1/901 2013/11/27
 31 33  0  0  0  0  0  0  0  0999 V2000
    6.1666    2.0856   -0.4060 C   0  0  1  0  0  0  0  0  0  0  0  0
    6.7579    3.3855   -0.7267 O   0  0  0  0  0  0  0  0  0  0  0  0
    7.6947    3.4721   -1.8418 C   0  0  2  0  0  0  0  0  0  0  0  0
    7.0213    3.2510   -3.1202 O   0  0  0  0  0  0  0  0  0  0  0  0
    8.8449    2.4413   -1.6297 C   0  0  2  0  0  0  0  0  0  0  0  0
    9.8468    2.4555   -2.7137 N   0  3  0  0  0  0  0  0  0  0  0  0
    8.2574    1.0170   -1.4556 C   0  0  0  0  0  0  0  0  0  0  0  0
    7.2472    0.9744   -0.2993 C   0  0  0  0  0  0  0  0  0  0  0  0
    5.4075    2.1850    0.9289 C   0  0  0  0  0  0  0  0  0  0  0  0
    6.2148    2.7212    2.0326 N   0  3  0  0  0  0  0  0  0  0  0  0
    7.1282    5.5250   -4.0624 C   0  0  1  0  0  0  0  0  0  0  0  0
    6.3078    6.7397   -4.5605 C   0  0  0  0  0  0  0  0  0  0  0  0
    5.3231    7.2186   -3.4600 C   0  0  1  0  0  0  0  0  0  0  0  0
    4.6044    8.4227   -3.9187 N   0  3  0  0  0  0  0  0  0  0  0  0
    4.3460    6.0704   -3.0747 C   0  0  1  0  0  0  0  0  0  0  0  0
    5.1080    4.7855   -2.6640 C   0  0  1  0  0  0  0  0  0  0  0  0
    4.1306    3.7684   -2.5025 O   0  0  0  0  0  0  0  0  0  0  0  0
    6.2019    4.3235   -3.6824 C   0  0  2  0  0  0  0  0  0  0  0  0
    8.1302    5.1430   -5.0730 N   0  3  0  0  0  0  0  0  0  0  0  0
    4.5499    9.0442   -0.6840 C   0  0  0  0  0  0  0  0  0  0  0  0
    3.6438    9.2926    0.5468 C   0  0  2  0  0  0  0  0  0  0  0  0
    4.4888    9.2758    1.6966 O   0  0  0  0  0  0  0  0  0  0  0  0
    2.5543    8.1582    0.6334 C   0  0  1  0  0  0  0  0  0  0  0  0
    3.1591    6.7202    0.4911 C   0  0  2  0  0  0  0  0  0  0  0  0
    4.1891    6.5946   -0.6600 C   0  0  1  0  0  0  0  0  0  0  0  0
    3.5193    6.4601   -1.9409 O   0  0  0  0  0  0  0  0  0  0  0  0
    5.1240    7.7104   -0.6493 O   0  0  0  0  0  0  0  0  0  0  0  0
    2.1395    5.7420    0.3048 O   0  0  0  0  0  0  0  0  0  0  0  0
    1.7918    8.2859    1.9143 N   0  3  0  0  0  0  0  0  0  0  0  0
    0.3587    7.9300    1.8801 C   0  0  0  0  0  0  0  0  0  0  0  0
    3.0416   10.7152    0.4391 C   0  0  0  0  0  0  0  0  0  0  0  0
  1  8  1  0  0  0  0
  1  9  1  1  0  0  0
  1  2  1  0  0  0  0
  2  3  1  0  0  0  0
  3  5  1  0  0  0  0
  3  4  1  6  0  0  0
  5  7  1  0  0  0  0
  5  6  1  6  0  0  0
  7  8  1  0  0  0  0
  9 10  1  0  0  0  0
 11 12  1  0  0  0  0
 11 18  1  0  0  0  0
 11 19  1  6  0  0  0
 12 13  1  0  0  0  0
 13 15  1  0  0  0  0
 13 14  1  6  0  0  0
 15 16  1  0  0  0  0
 15 26  1  1  0  0  0
 16 18  1  0  0  0  0
 16 17  1  6  0  0  0
 18  4  1  1  0  0  0
 20 21  1  0  0  0  0
 20 27  1  0  0  0  0
 21 31  1  6  0  0  0
 21 23  1  0  0  0  0
 21 22  1  0  0  0  0
 23 24  1  0  0  0  0
 23 29  1  1  0  0  0
 24 25  1  0  0  0  0
 24 28  1  6  0  0  0
 25 27  1  0  0  0  0
 25 26  1  6  0  0  0
 29 30  1  0  0  0  0
M  CHG  5   6   1  10   1  14   1  19   1  29   1
M  END
>  <CHROM.1>
-53.28540578,75.92955030,66.22471618,-175.86151200,60.93824629,-81.26052264
174.53841053,-69.12869864,63.83897168,-61.00325053,-93.57324838,-65.72278524
-168.24380712,5.26461788,5.55164262,-1.21934765,0.27178449,-0.88607682,2.34988565

>  <Name>
1byj cryst

>  <RI>
0

>  <Rbt.Current_Directory>
/home/itssahil/PROJECTS/Mol_Feturizer/New_Systems/rnas/1byj

>  <Rbt.Executable>
rbdock ($Id: //depot/dev/client3/rdock/2013.1/src/exe/rbdock.cxx#4 $)

>  <Rbt.Library>
libRbt.so (2013.1, Build901 2013/11/27)

>  <Rbt.Parameter_File>
/export/apps/rDock/src/rDock_2013.1_src/data/scripts/dock_solv.prm

>  <Rbt.Receptor>
prm/pocket_docking_7.prm

>  <SCORE>
-32.4642

>  <SCORE.INTER>
-25.4067

>  <SCORE.INTER.CONST>
1

>  <SCORE.INTER.POLAR>
-4.56307

>  <SCORE.INTER.ROT>
6

>  <SCORE.INTER.SOLV>
16.113

>  <SCORE.INTER.VDW>
-14.6985

>  <SCORE.INTER.norm>
-0.81957

>  <SCORE.INTRA>
-7.05752

>  <SCORE.INTRA.DIHEDRAL>
-11.8944

>  <SCORE.INTRA.DIHEDRAL.0>
18.4149

>  <SCORE.INTRA.POLAR>
0

>  <SCORE.INTRA.POLAR.0>
0

>  <SCORE.INTRA.REPUL>
-0.092687

>  <SCORE.INTRA.REPUL.0>
0.092687

>  <SCORE.INTRA.SOLV>
1.11037

>  <SCORE.INTRA.SOLV.lig_0>
-120.37

>  <SCORE.INTRA.VDW>
-1.20204

>  <SCORE.INTRA.VDW.0>
-1.75542

>  <SCORE.INTRA.norm>
-0.227662

>  <SCORE.RESTR>
0

>  <SCORE.RESTR.CAVITY>
0

>  <SCORE.RESTR.norm>
0

>  <SCORE.SYSTEM>
0

>  <SCORE.SYSTEM.CONST>
0

>  <SCORE.SYSTEM.DIHEDRAL>
0

>  <SCORE.SYSTEM.SOLV>
0

>  <SCORE.SYSTEM.norm>
0

>  <SCORE.heavy>
31

>  <SCORE.norm>
-1.04723

>  <RMSD>
3.680

$$$$
1byj cryst
 OpenBabel11021811383D
libRbt.so/2013.1/901 2013/11/27
 31 33  0  0  0  0  0  0  0  0999 V2000
    6.5504    2.5788    0.0950 C   0  0  1  0  0  0  0  0  0  0  0  0
    7.4652    3.6152   -0.3857 O   0  0  0  0  0  0  0  0  0  0  0  0
    8.0888    3.4462   -1.6938 C   0  0  2  0  0  0  0  0  0  0  0  0
    7.1045    3.5503   -2.7694 O   0  0  0  0  0  0  0  0  0  0  0  0
    8.8249    2.0728   -1.7400 C   0  0  2  0  0  0  0  0  0  0  0  0
    9.4898    1.8116   -3.0318 N   0  3  0  0  0  0  0  0  0  0  0  0
    7.8364    0.9276   -1.3999 C   0  0  0  0  0  0  0  0  0  0  0  0
    7.1709    1.1604   -0.0352 C   0  0  0  0  0  0  0  0  0  0  0  0
    6.2036    2.8475    1.5700 C   0  0  0  0  0  0  0  0  0  0  0  0
    5.1265    1.9958    2.0914 N   0  3  0  0  0  0  0  0  0  0  0  0
    7.5057    5.8149   -3.6533 C   0  0  1  0  0  0  0  0  0  0  0  0
    6.9185    7.2354   -3.8371 C   0  0  0  0  0  0  0  0  0  0  0  0
    6.4803    7.8236   -2.4690 C   0  0  1  0  0  0  0  0  0  0  0  0
    5.9955    9.2055   -2.6485 N   0  3  0  0  0  0  0  0  0  0  0  0
    5.4050    6.9119   -1.8101 C   0  0  1  0  0  0  0  0  0  0  0  0
    5.8936    5.4465   -1.6914 C   0  0  1  0  0  0  0  0  0  0  0  0
    4.7835    4.6839   -1.2418 O   0  0  0  0  0  0  0  0  0  0  0  0
    6.4614    4.8399   -3.0169 C   0  0  2  0  0  0  0  0  0  0  0  0
    8.0127    5.3068   -4.9402 N   0  3  0  0  0  0  0  0  0  0  0  0
    4.0364    7.8887    2.3522 C   0  0  0  0  0  0  0  0  0  0  0  0
    3.0786    9.0976    2.2151 C   0  0  2  0  0  0  0  0  0  0  0  0
    1.7840    8.6512    2.6159 O   0  0  0  0  0  0  0  0  0  0  0  0
    3.0654    9.5891    0.7186 C   0  0  1  0  0  0  0  0  0  0  0  0
    2.8645    8.4203   -0.3050 C   0  0  2  0  0  0  0  0  0  0  0  0
    3.7365    7.1758   -0.0000 C   0  0  1  0  0  0  0  0  0  0  0  0
    5.0983    7.3725   -0.4631 O   0  0  0  0  0  0  0  0  0  0  0  0
    3.6864    6.8361    1.4145 O   0  0  0  0  0  0  0  0  0  0  0  0
    3.1224    8.8466   -1.6402 O   0  0  0  0  0  0  0  0  0  0  0  0
    2.0108   10.6351    0.5390 N   0  3  0  0  0  0  0  0  0  0  0  0
    2.3568   11.7988   -0.3025 C   0  0  0  0  0  0  0  0  0  0  0  0
    3.5181   10.1935    3.2172 C   0  0  0  0  0  0  0  0  0  0  0  0
  1  8  1  0  0  0  0
  1  9  1  1  0  0  0
  1  2  1  0  0  0  0
  2  3  1  0  0  0  0
  3  5  1  0  0  0  0
  3  4  1  6  0  0  0
  5  7  1  0  0  0  0
  5  6  1  6  0  0  0
  7  8  1  0  0  0  0
  9 10  1  0  0  0  0
 11 12  1  0  0  0  0
 11 18  1  0  0  0  0
 11 19  1  6  0  0  0
 12 13  1  0  0  0  0
 13 15  1  0  0  0  0
 13 14  1  6  0  0  0
 15 16  1  0  0  0  0
 15 26  1  1  0  0  0
 16 18  1  0  0  0  0
 16 17  1  6  0  0  0
 18  4  1  1  0  0  0
 20 21  1  0  0  0  0
 20 27  1  0  0  0  0
 21 31  1  1  0  0  0
 21 23  1  0  0  0  0
 21 22  1  0  0  0  0
 23 24  1  0  0  0  0
 23 29  1  1  0  0  0
 24 25  1  0  0  0  0
 24 28  1  6  0  0  0
 25 27  1  0  0  0  0
 25 26  1  1  0  0  0
 29 30  1  0  0  0  0
M  CHG  5   6   1  10   1  14   1  19   1  29   1
M  END
>  <CHROM.1>
170.66353777,67.33418575,71.47689751,-66.56284561,-166.21032619,53.90808676
-137.74611957,147.40054303,57.12457754,165.46801925,-100.06714760,-59.55374119
-92.08259964,5.44676288,6.06931015,-0.72440283,0.39627888,-0.93281164,2.42995433

>  <Name>
1byj cryst

>  <RI>
0

>  <Rbt.Current_Directory>
/home/itssahil/PROJECTS/Mol_Feturizer/New_Systems/rnas/1byj

>  <Rbt.Executable>
rbdock ($Id: //depot/dev/client3/rdock/2013.1/src/exe/rbdock.cxx#4 $)

>  <Rbt.Library>
libRbt.so (2013.1, Build901 2013/11/27)

>  <Rbt.Parameter_File>
/export/apps/rDock/src/rDock_2013.1_src/data/scripts/dock_solv.prm

>  <Rbt.Receptor>
prm/pocket_docking_7.prm

>  <SCORE>
-25.1552

>  <SCORE.INTER>
-19.299

>  <SCORE.INTER.CONST>
1

>  <SCORE.INTER.POLAR>
-3.73709

>  <SCORE.INTER.ROT>
6

>  <SCORE.INTER.SOLV>
12.4249

>  <SCORE.INTER.VDW>
-12.1507

>  <SCORE.INTER.norm>
-0.622549

>  <SCORE.INTRA>
-5.85623

>  <SCORE.INTRA.DIHEDRAL>
-1.64821

>  <SCORE.INTRA.DIHEDRAL.0>
18.4149

>  <SCORE.INTRA.POLAR>
-1.16667

>  <SCORE.INTRA.POLAR.0>
0

>  <SCORE.INTRA.REPUL>
-0.092687

>  <SCORE.INTRA.REPUL.0>
0.092687

>  <SCORE.INTRA.SOLV>
0.12483

>  <SCORE.INTRA.SOLV.lig_0>
-120.37

>  <SCORE.INTRA.VDW>
-0.664439

>  <SCORE.INTRA.VDW.0>
-1.75542

>  <SCORE.INTRA.norm>
-0.188911

>  <SCORE.RESTR>
0

>  <SCORE.RESTR.CAVITY>
0

>  <SCORE.RESTR.norm>
0

>  <SCORE.SYSTEM>
0

>  <SCORE.SYSTEM.CONST>
0

>  <SCORE.SYSTEM.DIHEDRAL>
0

>  <SCORE.SYSTEM.SOLV>
0

>  <SCORE.SYSTEM.norm>
0

>  <SCORE.heavy>
31

>  <SCORE.norm>
-0.811459

>  <RMSD>
3.718

$$$$
1byj cryst
 OpenBabel11021811383D
libRbt.so/2013.1/901 2013/11/27
 31 33  0  0  0  0  0  0  0  0999 V2000
    6.3529    5.8437   -1.7324 C   0  0  1  0  0  0  0  0  0  0  0  0
    7.1942    6.8235   -2.4212 O   0  0  0  0  0  0  0  0  0  0  0  0
    7.5722    6.5698   -3.8073 C   0  0  2  0  0  0  0  0  0  0  0  0
    6.4160    6.6554   -4.6977 O   0  0  0  0  0  0  0  0  0  0  0  0
    8.2534    5.1712   -3.9079 C   0  0  2  0  0  0  0  0  0  0  0  0
    8.6725    4.8250   -5.2804 N   0  3  0  0  0  0  0  0  0  0  0  0
    7.3120    4.0786   -3.3386 C   0  0  0  0  0  0  0  0  0  0  0  0
    6.9045    4.4002   -1.8929 C   0  0  0  0  0  0  0  0  0  0  0  0
    6.2795    6.1954   -0.2361 C   0  0  0  0  0  0  0  0  0  0  0  0
    5.4333    5.2854    0.5469 N   0  3  0  0  0  0  0  0  0  0  0  0
    6.6120    9.1053   -4.5244 C   0  0  1  0  0  0  0  0  0  0  0  0
    5.8398   10.4444   -4.4413 C   0  0  0  0  0  0  0  0  0  0  0  0
    4.8343   10.4196   -3.2588 C   0  0  1  0  0  0  0  0  0  0  0  0
    4.1621   11.7279   -3.1435 N   0  3  0  0  0  0  0  0  0  0  0  0
    3.8157    9.2574   -3.4421 C   0  0  1  0  0  0  0  0  0  0  0  0
    4.5305    7.8966   -3.6356 C   0  0  1  0  0  0  0  0  0  0  0  0
    3.5221    6.9513   -3.9608 O   0  0  0  0  0  0  0  0  0  0  0  0
    5.6430    7.8959   -4.7354 C   0  0  2  0  0  0  0  0  0  0  0  0
    7.6346    9.1761   -5.5830 N   0  3  0  0  0  0  0  0  0  0  0  0
    1.0537    6.7516   -2.3151 C   0  0  0  0  0  0  0  0  0  0  0  0
    0.1622    6.9147   -1.0596 C   0  0  2  0  0  0  0  0  0  0  0  0
   -1.1825    7.0488   -1.5179 O   0  0  0  0  0  0  0  0  0  0  0  0
    0.6132    8.1940   -0.2588 C   0  0  1  0  0  0  0  0  0  0  0  0
    0.7733    9.4583   -1.1698 C   0  0  2  0  0  0  0  0  0  0  0  0
    1.5310    9.1749   -2.4918 C   0  0  1  0  0  0  0  0  0  0  0  0
    2.9646    9.1319   -2.2671 O   0  0  0  0  0  0  0  0  0  0  0  0
    1.0425    7.9581   -3.1240 O   0  0  0  0  0  0  0  0  0  0  0  0
    1.4317   10.5176   -0.4803 O   0  0  0  0  0  0  0  0  0  0  0  0
   -0.3529    8.4624    0.8516 N   0  3  0  0  0  0  0  0  0  0  0  0
    0.1834    8.4388    2.2277 C   0  0  0  0  0  0  0  0  0  0  0  0
    0.2368    5.6112   -0.2269 C   0  0  0  0  0  0  0  0  0  0  0  0
  1  8  1  0  0  0  0
  1  9  1  1  0  0  0
  1  2  1  0  0  0  0
  2  3  1  0  0  0  0
  3  5  1  0  0  0  0
  3  4  1  6  0  0  0
  5  7  1  0  0  0  0
  5  6  1  6  0  0  0
  7  8  1  0  0  0  0
  9 10  1  0  0  0  0
 11 12  1  0  0  0  0
 11 18  1  0  0  0  0
 11 19  1  6  0  0  0
 12 13  1  0  0  0  0
 13 15  1  0  0  0  0
 13 14  1  6  0  0  0
 15 16  1  0  0  0  0
 15 26  1  1  0  0  0
 16 18  1  0  0  0  0
 16 17  1  6  0  0  0
 18  4  1  1  0  0  0
 20 21  1  0  0  0  0
 20 27  1  0  0  0  0
 21 31  1  1  0  0  0
 21 23  1  0  0  0  0
 21 22  1  0  0  0  0
 23 24  1  0  0  0  0
 23 29  1  1  0  0  0
 24 25  1  0  0  0  0
 24 28  1  1  0  0  0
 25 27  1  0  0  0  0
 25 26  1  1  0  0  0
 29 30  1  0  0  0  0
M  CHG  5   6   1  10   1  14   1  19   1  29   1
M  END
>  <CHROM.1>
178.83826174,57.69482170,34.26685055,171.04434592,-167.23872912,-159.69802932
-173.68504162,125.39368137,-170.65865340,-64.35917232,-119.56873700,-57.57393840
-162.97204968,4.02654604,7.63357848,-2.42268173,-0.02111645,-0.50561942,2.62939530

>  <Name>
1byj cryst

>  <RI>
0

>  <Rbt.Current_Directory>
/home/itssahil/PROJECTS/Mol_Feturizer/New_Systems/rnas/1byj

>  <Rbt.Executable>
rbdock ($Id: //depot/dev/client3/rdock/2013.1/src/exe/rbdock.cxx#4 $)

>  <Rbt.Library>
libRbt.so (2013.1, Build901 2013/11/27)

>  <Rbt.Parameter_File>
/export/apps/rDock/src/rDock_2013.1_src/data/scripts/dock_solv.prm

>  <Rbt.Receptor>
prm/pocket_docking_7.prm

>  <SCORE>
-41.2227

>  <SCORE.INTER>
-37.5873

>  <SCORE.INTER.CONST>
1

>  <SCORE.INTER.POLAR>
-5.4069

>  <SCORE.INTER.ROT>
6

>  <SCORE.INTER.SOLV>
25.0338

>  <SCORE.INTER.VDW>
-22.9798

>  <SCORE.INTER.norm>
-1.21249

>  <SCORE.INTRA>
-3.63536

>  <SCORE.INTRA.DIHEDRAL>
-1.20768

>  <SCORE.INTRA.DIHEDRAL.0>
18.4149

>  <SCORE.INTRA.POLAR>
-0.00159458

>  <SCORE.INTRA.POLAR.0>
0

>  <SCORE.INTRA.REPUL>
-0.092687

>  <SCORE.INTRA.REPUL.0>
0.092687

>  <SCORE.INTRA.SOLV>
-1.80452

>  <SCORE.INTRA.SOLV.lig_0>
-120.37

>  <SCORE.INTRA.VDW>
-1.6604

>  <SCORE.INTRA.VDW.0>
-1.75542

>  <SCORE.INTRA.norm>
-0.11727

>  <SCORE.RESTR>
0

>  <SCORE.RESTR.CAVITY>
0

>  <SCORE.RESTR.norm>
0

>  <SCORE.SYSTEM>
0

>  <SCORE.SYSTEM.CONST>
0

>  <SCORE.SYSTEM.DIHEDRAL>
0

>  <SCORE.SYSTEM.SOLV>
0

>  <SCORE.SYSTEM.norm>
0

>  <SCORE.heavy>
31

>  <SCORE.norm>
-1.32976

>  <RMSD>
3.722

$$$$
1byj cryst
 OpenBabel11021811383D
libRbt.so/2013.1/901 2013/11/27
 31 33  0  0  0  0  0  0  0  0999 V2000
    6.1487    4.6481   -3.1455 C   0  0  1  0  0  0  0  0  0  0  0  0
    6.3150    6.0088   -2.6326 O   0  0  0  0  0  0  0  0  0  0  0  0
    7.2368    6.9075   -3.3190 C   0  0  2  0  0  0  0  0  0  0  0  0
    6.7403    7.2660   -4.6463 O   0  0  0  0  0  0  0  0  0  0  0  0
    8.6404    6.2351   -3.4095 C   0  0  2  0  0  0  0  0  0  0  0  0
    9.6451    7.0741   -4.0920 N   0  3  0  0  0  0  0  0  0  0  0  0
    8.5253    4.8551   -4.1068 C   0  0  0  0  0  0  0  0  0  0  0  0
    7.5177    3.9519   -3.3797 C   0  0  0  0  0  0  0  0  0  0  0  0
    5.3239    3.8215   -2.1432 C   0  0  0  0  0  0  0  0  0  0  0  0
    5.0034    2.4671   -2.6124 N   0  3  0  0  0  0  0  0  0  0  0  0
    6.4220    9.7077   -4.5601 C   0  0  1  0  0  0  0  0  0  0  0  0
    5.3889   10.8606   -4.5605 C   0  0  0  0  0  0  0  0  0  0  0  0
    4.3542   10.6637   -3.4201 C   0  0  1  0  0  0  0  0  0  0  0  0
    3.4237   11.8080   -3.3830 N   0  3  0  0  0  0  0  0  0  0  0  0
    3.6052    9.3115   -3.5996 C   0  0  1  0  0  0  0  0  0  0  0  0
    4.5919    8.1223   -3.7110 C   0  0  1  0  0  0  0  0  0  0  0  0
    3.8152    6.9802   -4.0403 O   0  0  0  0  0  0  0  0  0  0  0  0
    5.7325    8.3188   -4.7636 C   0  0  2  0  0  0  0  0  0  0  0  0
    7.4580    9.9567   -5.5780 N   0  3  0  0  0  0  0  0  0  0  0  0
    0.7975    6.6951   -2.4886 C   0  0  0  0  0  0  0  0  0  0  0  0
   -0.0995    6.8861   -1.2409 C   0  0  2  0  0  0  0  0  0  0  0  0
   -1.4392    7.0341   -1.7094 O   0  0  0  0  0  0  0  0  0  0  0  0
    0.3651    8.1682   -0.4524 C   0  0  1  0  0  0  0  0  0  0  0  0
    0.5493    9.4190   -1.3773 C   0  0  2  0  0  0  0  0  0  0  0  0
    1.3111    9.1089   -2.6909 C   0  0  1  0  0  0  0  0  0  0  0  0
    2.7425    9.0479   -2.4565 O   0  0  0  0  0  0  0  0  0  0  0  0
    0.8090    7.8918   -3.3118 O   0  0  0  0  0  0  0  0  0  0  0  0
    1.2187   10.4769   -0.6962 O   0  0  0  0  0  0  0  0  0  0  0  0
   -0.6040    8.4638    0.6484 N   0  3  0  0  0  0  0  0  0  0  0  0
   -0.0553    8.5640    2.0162 C   0  0  0  0  0  0  0  0  0  0  0  0
   -0.0491    5.5917   -0.3923 C   0  0  0  0  0  0  0  0  0  0  0  0
  1  8  1  0  0  0  0
  1  9  1  1  0  0  0
  1  2  1  0  0  0  0
  2  3  1  0  0  0  0
  3  5  1  0  0  0  0
  3  4  1  6  0  0  0
  5  7  1  0  0  0  0
  5  6  1  6  0  0  0
  7  8  1  0  0  0  0
  9 10  1  0  0  0  0
 11 12  1  0  0  0  0
 11 18  1  0  0  0  0
 11 19  1  6  0  0  0
 12 13  1  0  0  0  0
 13 15  1  0  0  0  0
 13 14  1  6  0  0  0
 15 16  1  0  0  0  0
 15 26  1  1  0  0  0
 16 18  1  0  0  0  0
 16 17  1  6  0  0  0
 18  4  1  1  0  0  0
 20 21  1  0  0  0  0
 20 27  1  0  0  0  0
 21 31  1  1  0  0  0
 21 23  1  0  0  0  0
 21 22  1  0  0  0  0
 23 24  1  0  0  0  0
 23 29  1  1  0  0  0
 24 25  1  0  0  0  0
 24 28  1  1  0  0  0
 25 27  1  0  0  0  0
 25 26  1  1  0  0  0
 29 30  1  0  0  0  0
M  CHG  5   6   1  10   1  14   1  19   1  29   1
M  END
>  <CHROM.1>
175.24999245,80.81756767,75.50015716,154.33693268,-175.09635862,-0.79325697
-175.05436650,110.91355487,-179.13857973,58.73614953,-114.44274701,-61.13803968
-155.61508892,3.89857887,7.62614529,-2.74798133,0.11321845,-0.44104094,2.90080257

>  <Name>
1byj cryst

>  <RI>
0

>  <Rbt.Current_Directory>
/home/itssahil/PROJECTS/Mol_Feturizer/New_Systems/rnas/1byj

>  <Rbt.Executable>
rbdock ($Id: //depot/dev/client3/rdock/2013.1/src/exe/rbdock.cxx#4 $)

>  <Rbt.Library>
libRbt.so (2013.1, Build901 2013/11/27)

>  <Rbt.Parameter_File>
/export/apps/rDock/src/rDock_2013.1_src/data/scripts/dock_solv.prm

>  <Rbt.Receptor>
prm/pocket_docking_8.prm

>  <SCORE>
-38.3093

>  <SCORE.INTER>
-38.6436

>  <SCORE.INTER.CONST>
1

>  <SCORE.INTER.POLAR>
-4.56065

>  <SCORE.INTER.ROT>
6

>  <SCORE.INTER.SOLV>
30.3592

>  <SCORE.INTER.VDW>
-28.28

>  <SCORE.INTER.norm>
-1.24657

>  <SCORE.INTRA>
0.334328

>  <SCORE.INTRA.DIHEDRAL>
2.94303

>  <SCORE.INTRA.DIHEDRAL.0>
18.4149

>  <SCORE.INTRA.POLAR>
-0.0173189

>  <SCORE.INTRA.POLAR.0>
0

>  <SCORE.INTRA.REPUL>
-0.0834505

>  <SCORE.INTRA.REPUL.0>
0.092687

>  <SCORE.INTRA.SOLV>
-0.43171

>  <SCORE.INTRA.SOLV.lig_0>
-120.37

>  <SCORE.INTRA.VDW>
-0.445194

>  <SCORE.INTRA.VDW.0>
-1.75542

>  <SCORE.INTRA.norm>
0.0107848

>  <SCORE.RESTR>
0

>  <SCORE.RESTR.CAVITY>
0

>  <SCORE.RESTR.norm>
0

>  <SCORE.SYSTEM>
0

>  <SCORE.SYSTEM.CONST>
0

>  <SCORE.SYSTEM.DIHEDRAL>
0

>  <SCORE.SYSTEM.SOLV>
0

>  <SCORE.SYSTEM.norm>
0

>  <SCORE.heavy>
31

>  <SCORE.norm>
-1.23578

>  <RMSD>
3.735

$$$$
1byj cryst
 OpenBabel11021811383D
libRbt.so/2013.1/901 2013/11/27
 31 33  0  0  0  0  0  0  0  0999 V2000
    5.3355    0.7467   -0.3101 C   0  0  1  0  0  0  0  0  0  0  0  0
    4.9025    2.0735   -0.7507 O   0  0  0  0  0  0  0  0  0  0  0  0
    5.9185    3.0674   -1.0805 C   0  0  2  0  0  0  0  0  0  0  0  0
    6.6513    2.6972   -2.2899 O   0  0  0  0  0  0  0  0  0  0  0  0
    6.8859    3.2365    0.1302 C   0  0  2  0  0  0  0  0  0  0  0  0
    7.9534    4.2270   -0.1114 N   0  3  0  0  0  0  0  0  0  0  0  0
    7.4984    1.8657    0.5174 C   0  0  0  0  0  0  0  0  0  0  0  0
    6.3993    0.8357    0.8186 C   0  0  0  0  0  0  0  0  0  0  0  0
    4.1184   -0.0444    0.2009 C   0  0  0  0  0  0  0  0  0  0  0  0
    3.5122    0.5177    1.4150 N   0  3  0  0  0  0  0  0  0  0  0  0
    8.5673    3.7364   -3.4387 C   0  0  1  0  0  0  0  0  0  0  0  0
    9.0306    4.8965   -4.3531 C   0  0  0  0  0  0  0  0  0  0  0  0
    8.6272    6.2651   -3.7416 C   0  0  1  0  0  0  0  0  0  0  0  0
    9.1424    7.3624   -4.5826 N   0  3  0  0  0  0  0  0  0  0  0  0
    7.0829    6.3430   -3.5669 C   0  0  1  0  0  0  0  0  0  0  0  0
    6.5400    5.1477   -2.7442 C   0  0  1  0  0  0  0  0  0  0  0  0
    5.1234    5.2301   -2.7953 O   0  0  0  0  0  0  0  0  0  0  0  0
    7.0155    3.7436   -3.2440 C   0  0  2  0  0  0  0  0  0  0  0  0
    9.0439    2.4490   -3.9742 N   0  3  0  0  0  0  0  0  0  0  0  0
    3.7789    7.4096   -3.7043 C   0  0  0  0  0  0  0  0  0  0  0  0
    3.0572    8.5059   -2.8828 C   0  0  2  0  0  0  0  0  0  0  0  0
    2.5049    9.4316   -3.8177 O   0  0  0  0  0  0  0  0  0  0  0  0
    4.0935    9.2171   -1.9332 C   0  0  1  0  0  0  0  0  0  0  0  0
    5.4032    9.6501   -2.6756 C   0  0  2  0  0  0  0  0  0  0  0  0
    5.9722    8.5552   -3.6134 C   0  0  1  0  0  0  0  0  0  0  0  0
    6.7081    7.5581   -2.8573 O   0  0  0  0  0  0  0  0  0  0  0  0
    4.9179    7.9578   -4.4199 O   0  0  0  0  0  0  0  0  0  0  0  0
    6.4190   10.0411   -1.7556 O   0  0  0  0  0  0  0  0  0  0  0  0
    3.4484   10.3935   -1.2711 N   0  3  0  0  0  0  0  0  0  0  0  0
    2.7350   10.1413   -0.0025 C   0  0  0  0  0  0  0  0  0  0  0  0
    1.8737    7.8571   -2.1236 C   0  0  0  0  0  0  0  0  0  0  0  0
  1  8  1  0  0  0  0
  1  9  1  1  0  0  0
  1  2  1  0  0  0  0
  2  3  1  0  0  0  0
  3  5  1  0  0  0  0
  3  4  1  6  0  0  0
  5  7  1  0  0  0  0
  5  6  1  6  0  0  0
  7  8  1  0  0  0  0
  9 10  1  0  0  0  0
 11 12  1  0  0  0  0
 11 18  1  0  0  0  0
 11 19  1  6  0  0  0
 12 13  1  0  0  0  0
 13 15  1  0  0  0  0
 13 14  1  6  0  0  0
 15 16  1  0  0  0  0
 15 26  1  1  0  0  0
 16 18  1  0  0  0  0
 16 17  1  6  0  0  0
 18  4  1  1  0  0  0
 20 21  1  0  0  0  0
 20 27  1  0  0  0  0
 21 31  1  1  0  0  0
 21 23  1  0  0  0  0
 21 22  1  0  0  0  0
 23 24  1  0  0  0  0
 23 29  1  6  0  0  0
 24 25  1  0  0  0  0
 24 28  1  1  0  0  0
 25 27  1  0  0  0  0
 25 26  1  1  0  0  0
 29 30  1  0  0  0  0
M  CHG  5   6   1  10   1  14   1  19   1  29   1
M  END
>  <CHROM.1>
-65.74862785,140.87825267,122.47196725,58.12332340,173.47321183,61.79166638
177.80639613,112.56032017,-173.09928280,61.18019317,-151.01815419,65.69323344
168.79150127,5.80482903,5.54180448,-2.09172388,1.30039577,-0.52614398,2.73076872

>  <Name>
1byj cryst

>  <RI>
0

>  <Rbt.Current_Directory>
/home/itssahil/PROJECTS/Mol_Feturizer/New_Systems/rnas/1byj

>  <Rbt.Executable>
rbdock ($Id: //depot/dev/client3/rdock/2013.1/src/exe/rbdock.cxx#4 $)

>  <Rbt.Library>
libRbt.so (2013.1, Build901 2013/11/27)

>  <Rbt.Parameter_File>
/export/apps/rDock/src/rDock_2013.1_src/data/scripts/dock_solv.prm

>  <Rbt.Receptor>
prm/pocket_docking_7.prm

>  <SCORE>
-27.5821

>  <SCORE.INTER>
-31.8315

>  <SCORE.INTER.CONST>
1

>  <SCORE.INTER.POLAR>
-4.88461

>  <SCORE.INTER.ROT>
6

>  <SCORE.INTER.SOLV>
20.1129

>  <SCORE.INTER.VDW>
-19.2433

>  <SCORE.INTER.norm>
-1.02682

>  <SCORE.INTRA>
4.2494

>  <SCORE.INTRA.DIHEDRAL>
4.13886

>  <SCORE.INTRA.DIHEDRAL.0>
18.4149

>  <SCORE.INTRA.POLAR>
-0.118337

>  <SCORE.INTRA.POLAR.0>
0

>  <SCORE.INTRA.REPUL>
-0.092687

>  <SCORE.INTRA.REPUL.0>
0.092687

>  <SCORE.INTRA.SOLV>
1.00627

>  <SCORE.INTRA.SOLV.lig_0>
-120.37

>  <SCORE.INTRA.VDW>
2.54262

>  <SCORE.INTRA.VDW.0>
-1.75542

>  <SCORE.INTRA.norm>
0.137078

>  <SCORE.RESTR>
0

>  <SCORE.RESTR.CAVITY>
0

>  <SCORE.RESTR.norm>
0

>  <SCORE.SYSTEM>
0

>  <SCORE.SYSTEM.CONST>
0

>  <SCORE.SYSTEM.DIHEDRAL>
0

>  <SCORE.SYSTEM.SOLV>
0

>  <SCORE.SYSTEM.norm>
0

>  <SCORE.heavy>
31

>  <SCORE.norm>
-0.889746

>  <RMSD>
3.898

$$$$
1byj cryst
 OpenBabel11021811383D
libRbt.so/2013.1/901 2013/11/27
 31 33  0  0  0  0  0  0  0  0999 V2000
    7.4434    2.7029   -1.9789 C   0  0  1  0  0  0  0  0  0  0  0  0
    8.5987    3.5349   -2.3185 O   0  0  0  0  0  0  0  0  0  0  0  0
    9.2051    3.3856   -3.6370 C   0  0  2  0  0  0  0  0  0  0  0  0
    8.3119    3.8648   -4.6902 O   0  0  0  0  0  0  0  0  0  0  0  0
    9.5852    1.8907   -3.8631 C   0  0  2  0  0  0  0  0  0  0  0  0
   10.2086    1.6407   -5.1776 N   0  3  0  0  0  0  0  0  0  0  0  0
    8.3367    0.9903   -3.6772 C   0  0  0  0  0  0  0  0  0  0  0  0
    7.7033    1.2040   -2.2942 C   0  0  0  0  0  0  0  0  0  0  0  0
    7.1241    2.8586   -0.4816 C   0  0  0  0  0  0  0  0  0  0  0  0
    8.3053    3.1102    0.3543 N   0  3  0  0  0  0  0  0  0  0  0  0
    8.6025    6.1174   -3.7352 C   0  0  1  0  0  0  0  0  0  0  0  0
    7.9164    7.4701   -3.4252 C   0  0  0  0  0  0  0  0  0  0  0  0
    6.6398    7.2487   -2.5702 C   0  0  1  0  0  0  0  0  0  0  0  0
    6.0401    8.5496   -2.2169 N   0  3  0  0  0  0  0  0  0  0  0  0
    5.6357    6.3329   -3.3283 C   0  0  1  0  0  0  0  0  0  0  0  0
    6.2936    4.9984   -3.7602 C   0  0  1  0  0  0  0  0  0  0  0  0
    5.3489    4.3274   -4.5808 O   0  0  0  0  0  0  0  0  0  0  0  0
    7.6505    5.1579   -4.5222 C   0  0  2  0  0  0  0  0  0  0  0  0
    9.8663    6.3453   -4.4578 N   0  3  0  0  0  0  0  0  0  0  0  0
    3.6669    5.6960    0.4447 C   0  0  0  0  0  0  0  0  0  0  0  0
    2.4725    4.7107    0.4305 C   0  0  2  0  0  0  0  0  0  0  0  0
    2.8600    3.5749    1.2025 O   0  0  0  0  0  0  0  0  0  0  0  0
    2.1513    4.2973   -1.0552 C   0  0  1  0  0  0  0  0  0  0  0  0
    3.4254    3.8609   -1.8553 C   0  0  2  0  0  0  0  0  0  0  0  0
    4.6356    4.8078   -1.6539 C   0  0  1  0  0  0  0  0  0  0  0  0
    4.5039    5.9973   -2.4757 O   0  0  0  0  0  0  0  0  0  0  0  0
    4.8147    5.1355   -0.2469 O   0  0  0  0  0  0  0  0  0  0  0  0
    3.1532    3.7526   -3.2501 O   0  0  0  0  0  0  0  0  0  0  0  0
    1.1227    3.2109   -1.0669 N   0  3  0  0  0  0  0  0  0  0  0  0
    0.2239    3.1509   -2.2375 C   0  0  0  0  0  0  0  0  0  0  0  0
    1.2755    5.3734    1.1558 C   0  0  0  0  0  0  0  0  0  0  0  0
  1  8  1  0  0  0  0
  1  9  1  1  0  0  0
  1  2  1  0  0  0  0
  2  3  1  0  0  0  0
  3  5  1  0  0  0  0
  3  4  1  6  0  0  0
  5  7  1  0  0  0  0
  5  6  1  6  0  0  0
  7  8  1  0  0  0  0
  9 10  1  0  0  0  0
 11 12  1  0  0  0  0
 11 18  1  0  0  0  0
 11 19  1  6  0  0  0
 12 13  1  0  0  0  0
 13 15  1  0  0  0  0
 13 14  1  6  0  0  0
 15 16  1  0  0  0  0
 15 26  1  1  0  0  0
 16 18  1  0  0  0  0
 16 17  1  6  0  0  0
 18  4  1  1  0  0  0
 20 21  1  0  0  0  0
 20 27  1  0  0  0  0
 21 31  1  1  0  0  0
 21 23  1  0  0  0  0
 21 22  1  0  0  0  0
 23 24  1  0  0  0  0
 23 29  1  1  0  0  0
 24 25  1  0  0  0  0
 24 28  1  6  0  0  0
 25 27  1  0  0  0  0
 25 26  1  6  0  0  0
 29 30  1  0  0  0  0
M  CHG  5   6   1  10   1  14   1  19   1  29   1
M  END
>  <CHROM.1>
-31.66706702,46.79607757,33.47097506,-64.79765675,40.85013235,-172.05475758
-53.66428311,-89.28855313,-76.36122157,-59.93522812,-88.57864696,-73.24022906
-127.78978650,5.90804828,4.35804298,-2.28897329,0.02781902,-0.47040990,2.99139088

>  <Name>
1byj cryst

>  <RI>
0

>  <Rbt.Current_Directory>
/home/itssahil/PROJECTS/Mol_Feturizer/New_Systems/rnas/1byj

>  <Rbt.Executable>
rbdock ($Id: //depot/dev/client3/rdock/2013.1/src/exe/rbdock.cxx#4 $)

>  <Rbt.Library>
libRbt.so (2013.1, Build901 2013/11/27)

>  <Rbt.Parameter_File>
/export/apps/rDock/src/rDock_2013.1_src/data/scripts/dock_solv.prm

>  <Rbt.Receptor>
prm/pocket_docking_8.prm

>  <SCORE>
-37.313

>  <SCORE.INTER>
-34.5609

>  <SCORE.INTER.CONST>
1

>  <SCORE.INTER.POLAR>
-5.92437

>  <SCORE.INTER.ROT>
6

>  <SCORE.INTER.SOLV>
24.9349

>  <SCORE.INTER.VDW>
-19.2043

>  <SCORE.INTER.norm>
-1.11487

>  <SCORE.INTRA>
-2.75216

>  <SCORE.INTRA.DIHEDRAL>
3.28521

>  <SCORE.INTRA.DIHEDRAL.0>
18.4149

>  <SCORE.INTRA.POLAR>
-1.14343

>  <SCORE.INTRA.POLAR.0>
0

>  <SCORE.INTRA.REPUL>
-0.092687

>  <SCORE.INTRA.REPUL.0>
0.092687

>  <SCORE.INTRA.SOLV>
-0.740556

>  <SCORE.INTRA.SOLV.lig_0>
-120.37

>  <SCORE.INTRA.VDW>
0.326611

>  <SCORE.INTRA.VDW.0>
-1.75542

>  <SCORE.INTRA.norm>
-0.0887793

>  <SCORE.RESTR>
0

>  <SCORE.RESTR.CAVITY>
0

>  <SCORE.RESTR.norm>
0

>  <SCORE.SYSTEM>
0

>  <SCORE.SYSTEM.CONST>
0

>  <SCORE.SYSTEM.DIHEDRAL>
0

>  <SCORE.SYSTEM.SOLV>
0

>  <SCORE.SYSTEM.norm>
0

>  <SCORE.heavy>
31

>  <SCORE.norm>
-1.20365

>  <RMSD>
3.937

$$$$
1byj cryst
 OpenBabel11021811383D
libRbt.so/2013.1/901 2013/11/27
 31 33  0  0  0  0  0  0  0  0999 V2000
    8.7543    2.4060   -2.6511 C   0  0  1  0  0  0  0  0  0  0  0  0
    7.6913    2.8426   -3.5576 O   0  0  0  0  0  0  0  0  0  0  0  0
    6.5266    3.5183   -2.9961 C   0  0  2  0  0  0  0  0  0  0  0  0
    6.8786    4.8360   -2.4702 O   0  0  0  0  0  0  0  0  0  0  0  0
    5.8969    2.6230   -1.8860 C   0  0  2  0  0  0  0  0  0  0  0  0
    4.7063    3.2271   -1.2563 N   0  3  0  0  0  0  0  0  0  0  0  0
    6.9610    2.2802   -0.8117 C   0  0  0  0  0  0  0  0  0  0  0  0
    8.1877    1.6069   -1.4452 C   0  0  0  0  0  0  0  0  0  0  0  0
    9.7519    1.5230   -3.4213 C   0  0  0  0  0  0  0  0  0  0  0  0
    9.8961    1.8862   -4.8371 N   0  3  0  0  0  0  0  0  0  0  0  0
    7.6785    6.4736   -4.1282 C   0  0  1  0  0  0  0  0  0  0  0  0
    7.3653    7.7963   -4.8691 C   0  0  0  0  0  0  0  0  0  0  0  0
    7.0775    8.9337   -3.8525 C   0  0  1  0  0  0  0  0  0  0  0  0
    6.8576   10.2043   -4.5694 N   0  3  0  0  0  0  0  0  0  0  0  0
    5.8654    8.5576   -2.9520 C   0  0  1  0  0  0  0  0  0  0  0  0
    6.0719    7.1873   -2.2593 C   0  0  1  0  0  0  0  0  0  0  0  0
    4.8487    6.8722   -1.6106 O   0  0  0  0  0  0  0  0  0  0  0  0
    6.4844    6.0260   -3.2229 C   0  0  2  0  0  0  0  0  0  0  0  0
    8.0508    5.4274   -5.0969 N   0  3  0  0  0  0  0  0  0  0  0  0
    2.6915   10.1352   -2.0714 C   0  0  0  0  0  0  0  0  0  0  0  0
    2.4043   11.1425   -0.9311 C   0  0  2  0  0  0  0  0  0  0  0  0
    1.9140   12.3351   -1.5421 O   0  0  0  0  0  0  0  0  0  0  0  0
    3.7332   11.4249   -0.1338 C   0  0  1  0  0  0  0  0  0  0  0  0
    4.9459   11.7562   -1.0684 C   0  0  2  0  0  0  0  0  0  0  0  0
    5.0660   10.8040   -2.2853 C   0  0  1  0  0  0  0  0  0  0  0  0
    5.6823    9.5473   -1.8997 O   0  0  0  0  0  0  0  0  0  0  0  0
    3.7724   10.6029   -2.9217 O   0  0  0  0  0  0  0  0  0  0  0  0
    6.1768   11.7421   -0.3501 O   0  0  0  0  0  0  0  0  0  0  0  0
    3.5079   12.5292    0.8501 N   0  3  0  0  0  0  0  0  0  0  0  0
    4.5400   12.7229    1.8889 C   0  0  0  0  0  0  0  0  0  0  0  0
    1.2660   10.5772   -0.0463 C   0  0  0  0  0  0  0  0  0  0  0  0
  1  8  1  0  0  0  0
  1  9  1  6  0  0  0
  1  2  1  0  0  0  0
  2  3  1  0  0  0  0
  3  5  1  0  0  0  0
  3  4  1  1  0  0  0
  5  7  1  0  0  0  0
  5  6  1  1  0  0  0
  7  8  1  0  0  0  0
  9 10  1  0  0  0  0
 11 12  1  0  0  0  0
 11 18  1  0  0  0  0
 11 19  1  6  0  0  0
 12 13  1  0  0  0  0
 13 15  1  0  0  0  0
 13 14  1  6  0  0  0
 15 16  1  0  0  0  0
 15 26  1  1  0  0  0
 16 18  1  0  0  0  0
 16 17  1  6  0  0  0
 18  4  1  1  0  0  0
 20 21  1  0  0  0  0
 20 27  1  0  0  0  0
 21 31  1  1  0  0  0
 21 23  1  0  0  0  0
 21 22  1  0  0  0  0
 23 24  1  0  0  0  0
 23 29  1  1  0  0  0
 24 25  1  0  0  0  0
 24 28  1  1  0  0  0
 25 27  1  0  0  0  0
 25 26  1  1  0  0  0
 29 30  1  0  0  0  0
M  CHG  5   6   1  10   1  14   1  19   1  29   1
M  END
>  <CHROM.1>
31.74950182,105.52568022,-95.30213656,53.28934487,-38.74995474,177.58323267
-41.70842470,76.82766092,62.43090026,-62.13008169,-72.41078544,-178.43093828
-179.62115696,5.84154982,7.42866193,-2.22003587,0.88561210,-0.82456416,2.86219674

>  <Name>
1byj cryst

>  <RI>
0

>  <Rbt.Current_Directory>
/home/itssahil/PROJECTS/Mol_Feturizer/New_Systems/rnas/1byj

>  <Rbt.Executable>
rbdock ($Id: //depot/dev/client3/rdock/2013.1/src/exe/rbdock.cxx#4 $)

>  <Rbt.Library>
libRbt.so (2013.1, Build901 2013/11/27)

>  <Rbt.Parameter_File>
/export/apps/rDock/src/rDock_2013.1_src/data/scripts/dock_solv.prm

>  <Rbt.Receptor>
prm/pocket_docking_8.prm

>  <SCORE>
-38.4619

>  <SCORE.INTER>
-33.2386

>  <SCORE.INTER.CONST>
1

>  <SCORE.INTER.POLAR>
-5.44237

>  <SCORE.INTER.ROT>
6

>  <SCORE.INTER.SOLV>
18.0478

>  <SCORE.INTER.VDW>
-17.6338

>  <SCORE.INTER.norm>
-1.07221

>  <SCORE.INTRA>
-5.22337

>  <SCORE.INTRA.DIHEDRAL>
-1.14321

>  <SCORE.INTRA.DIHEDRAL.0>
18.4149

>  <SCORE.INTRA.POLAR>
-1.09651

>  <SCORE.INTRA.POLAR.0>
0

>  <SCORE.INTRA.REPUL>
-0.092687

>  <SCORE.INTRA.REPUL.0>
0.092687

>  <SCORE.INTRA.SOLV>
2.16953

>  <SCORE.INTRA.SOLV.lig_0>
-120.37

>  <SCORE.INTRA.VDW>
-1.54495

>  <SCORE.INTRA.VDW.0>
-1.75542

>  <SCORE.INTRA.norm>
-0.168496

>  <SCORE.RESTR>
0

>  <SCORE.RESTR.CAVITY>
0

>  <SCORE.RESTR.norm>
0

>  <SCORE.SYSTEM>
0

>  <SCORE.SYSTEM.CONST>
0

>  <SCORE.SYSTEM.DIHEDRAL>
0

>  <SCORE.SYSTEM.SOLV>
0

>  <SCORE.SYSTEM.norm>
0

>  <SCORE.heavy>
31

>  <SCORE.norm>
-1.24071

>  <RMSD>
3.947

$$$$
1byj cryst
 OpenBabel11021811383D
libRbt.so/2013.1/901 2013/11/27
 31 33  0  0  0  0  0  0  0  0999 V2000
    5.9326    4.2250    1.2196 C   0  0  1  0  0  0  0  0  0  0  0  0
    7.2466    4.2248    0.5749 O   0  0  0  0  0  0  0  0  0  0  0  0
    7.8544    2.9452    0.2258 C   0  0  2  0  0  0  0  0  0  0  0  0
    7.1175    2.2822   -0.8485 O   0  0  0  0  0  0  0  0  0  0  0  0
    7.9234    2.0439    1.4960 C   0  0  2  0  0  0  0  0  0  0  0  0
    8.5268    0.7214    1.2394 N   0  3  0  0  0  0  0  0  0  0  0  0
    6.5094    1.8826    2.1113 C   0  0  0  0  0  0  0  0  0  0  0  0
    5.8864    3.2503    2.4285 C   0  0  0  0  0  0  0  0  0  0  0  0
    5.6005    5.6481    1.7021 C   0  0  0  0  0  0  0  0  0  0  0  0
    5.4345    6.6204    0.6139 N   0  3  0  0  0  0  0  0  0  0  0  0
    8.3329    3.4079   -2.6722 C   0  0  1  0  0  0  0  0  0  0  0  0
    8.2008    4.2559   -3.9606 C   0  0  0  0  0  0  0  0  0  0  0  0
    7.3824    5.5451   -3.6812 C   0  0  1  0  0  0  0  0  0  0  0  0
    7.3307    6.3804   -4.8963 N   0  3  0  0  0  0  0  0  0  0  0  0
    5.9599    5.1794   -3.1669 C   0  0  1  0  0  0  0  0  0  0  0  0
    6.0215    4.2426   -1.9345 C   0  0  1  0  0  0  0  0  0  0  0  0
    4.6867    3.8426   -1.6619 O   0  0  0  0  0  0  0  0  0  0  0  0
    6.9332    2.9846   -2.1175 C   0  0  2  0  0  0  0  0  0  0  0  0
    9.1966    2.2403   -2.9217 N   0  3  0  0  0  0  0  0  0  0  0  0
    2.4538    7.5734   -2.3935 C   0  0  0  0  0  0  0  0  0  0  0  0
    2.6408    9.1033   -2.5418 C   0  0  2  0  0  0  0  0  0  0  0  0
    1.8537    9.5131   -3.6592 O   0  0  0  0  0  0  0  0  0  0  0  0
    4.1645    9.4248   -2.7794 C   0  0  1  0  0  0  0  0  0  0  0  0
    4.8092    8.5319   -3.8935 C   0  0  2  0  0  0  0  0  0  0  0  0
    4.4353    7.0325   -3.7764 C   0  0  1  0  0  0  0  0  0  0  0  0
    5.2385    6.3771   -2.7600 O   0  0  0  0  0  0  0  0  0  0  0  0
    3.0096    6.8663   -3.5342 O   0  0  0  0  0  0  0  0  0  0  0  0
    6.2292    8.6527   -3.9015 O   0  0  0  0  0  0  0  0  0  0  0  0
    4.3307   10.8758   -3.1039 N   0  3  0  0  0  0  0  0  0  0  0  0
    3.9600   11.3048   -4.4678 C   0  0  0  0  0  0  0  0  0  0  0  0
    2.0554    9.7973   -1.2873 C   0  0  0  0  0  0  0  0  0  0  0  0
  1  8  1  0  0  0  0
  1  9  1  1  0  0  0
  1  2  1  0  0  0  0
  2  3  1  0  0  0  0
  3  5  1  0  0  0  0
  3  4  1  6  0  0  0
  5  7  1  0  0  0  0
  5  6  1  6  0  0  0
  7  8  1  0  0  0  0
  9 10  1  0  0  0  0
 11 12  1  0  0  0  0
 11 18  1  0  0  0  0
 11 19  1  6  0  0  0
 12 13  1  0  0  0  0
 13 15  1  0  0  0  0
 13 14  1  6  0  0  0
 15 16  1  0  0  0  0
 15 26  1  1  0  0  0
 16 18  1  0  0  0  0
 16 17  1  6  0  0  0
 18  4  1  1  0  0  0
 20 21  1  0  0  0  0
 20 27  1  0  0  0  0
 21 31  1  1  0  0  0
 21 23  1  0  0  0  0
 21 22  1  0  0  0  0
 23 24  1  0  0  0  0
 23 29  1  6  0  0  0
 24 25  1  0  0  0  0
 24 28  1  1  0  0  0
 25 27  1  0  0  0  0
 25 26  1  1  0  0  0
 29 30  1  0  0  0  0
M  CHG  5   6   1  10   1  14   1  19   1  29   1
M  END
>  <CHROM.1>
65.41289996,57.18000496,55.36831995,-52.87227721,-172.74174001,174.98077226
70.33457419,90.68187797,-176.31912323,-42.78532767,44.70952839,49.82411477
-126.37791233,5.72252390,5.72498983,-1.77411079,0.85400291,-0.80776150,2.10617137

>  <Name>
1byj cryst

>  <RI>
0

>  <Rbt.Current_Directory>
/home/itssahil/PROJECTS/Mol_Feturizer/New_Systems/rnas/1byj

>  <Rbt.Executable>
rbdock ($Id: //depot/dev/client3/rdock/2013.1/src/exe/rbdock.cxx#4 $)

>  <Rbt.Library>
libRbt.so (2013.1, Build901 2013/11/27)

>  <Rbt.Parameter_File>
/export/apps/rDock/src/rDock_2013.1_src/data/scripts/dock_solv.prm

>  <Rbt.Receptor>
prm/pocket_docking_3.prm

>  <SCORE>
-30.2644

>  <SCORE.INTER>
-23.9539

>  <SCORE.INTER.CONST>
1

>  <SCORE.INTER.POLAR>
-3.99856

>  <SCORE.INTER.ROT>
6

>  <SCORE.INTER.SOLV>
20.2271

>  <SCORE.INTER.VDW>
-16.9831

>  <SCORE.INTER.norm>
-0.772707

>  <SCORE.INTRA>
-6.3133

>  <SCORE.INTRA.DIHEDRAL>
-3.92088

>  <SCORE.INTRA.DIHEDRAL.0>
18.4149

>  <SCORE.INTRA.POLAR>
-1.10329

>  <SCORE.INTRA.POLAR.0>
0

>  <SCORE.INTRA.REPUL>
-0.092687

>  <SCORE.INTRA.REPUL.0>
0.092687

>  <SCORE.INTRA.SOLV>
2.39662

>  <SCORE.INTRA.SOLV.lig_0>
-120.37

>  <SCORE.INTRA.VDW>
-1.33654

>  <SCORE.INTRA.VDW.0>
-1.75542

>  <SCORE.INTRA.norm>
-0.203655

>  <SCORE.RESTR>
0.00280283

>  <SCORE.RESTR.CAVITY>
0.00280283

>  <SCORE.RESTR.norm>
9.04139e-05

>  <SCORE.SYSTEM>
0

>  <SCORE.SYSTEM.CONST>
0

>  <SCORE.SYSTEM.DIHEDRAL>
0

>  <SCORE.SYSTEM.SOLV>
0

>  <SCORE.SYSTEM.norm>
0

>  <SCORE.heavy>
31

>  <SCORE.norm>
-0.976272

>  <RMSD>
4.086

$$$$
1byj cryst
 OpenBabel11021811383D
libRbt.so/2013.1/901 2013/11/27
 31 33  0  0  0  0  0  0  0  0999 V2000
    8.7703    1.4073   -0.9585 C   0  0  1  0  0  0  0  0  0  0  0  0
    9.1588    2.7088   -1.5037 O   0  0  0  0  0  0  0  0  0  0  0  0
    9.1850    2.8811   -2.9523 C   0  0  2  0  0  0  0  0  0  0  0  0
    7.8377    2.8347   -3.5175 O   0  0  0  0  0  0  0  0  0  0  0  0
   10.0952    1.7850   -3.5851 C   0  0  2  0  0  0  0  0  0  0  0  0
   10.1835    1.8791   -5.0556 N   0  3  0  0  0  0  0  0  0  0  0  0
    9.6041    0.3764   -3.1624 C   0  0  0  0  0  0  0  0  0  0  0  0
    9.5522    0.2463   -1.6327 C   0  0  0  0  0  0  0  0  0  0  0  0
    9.0388    1.3873    0.5566 C   0  0  0  0  0  0  0  0  0  0  0  0
    7.9136    0.8795    1.3523 N   0  3  0  0  0  0  0  0  0  0  0  0
    7.6805    5.2799   -3.7754 C   0  0  1  0  0  0  0  0  0  0  0  0
    6.8323    6.5418   -3.4843 C   0  0  0  0  0  0  0  0  0  0  0  0
    6.5403    6.6616   -1.9643 C   0  0  1  0  0  0  0  0  0  0  0  0
    5.7988    7.9078   -1.6920 N   0  3  0  0  0  0  0  0  0  0  0  0
    5.7698    5.4059   -1.4631 C   0  0  1  0  0  0  0  0  0  0  0  0
    6.5190    4.0969   -1.8171 C   0  0  1  0  0  0  0  0  0  0  0  0
    5.6527    3.0270   -1.4695 O   0  0  0  0  0  0  0  0  0  0  0  0
    6.9472    3.9768   -3.3169 C   0  0  2  0  0  0  0  0  0  0  0  0
    8.0392    5.2302   -5.2038 N   0  3  0  0  0  0  0  0  0  0  0  0
    2.5814    5.5558   -0.2363 C   0  0  0  0  0  0  0  0  0  0  0  0
    2.0551    5.3225    1.2012 C   0  0  2  0  0  0  0  0  0  0  0  0
    1.3261    6.4915    1.5729 O   0  0  0  0  0  0  0  0  0  0  0  0
    3.2719    5.0862    2.1732 C   0  0  1  0  0  0  0  0  0  0  0  0
    4.4005    6.1602    2.0091 C   0  0  2  0  0  0  0  0  0  0  0  0
    4.7532    6.4644    0.5310 C   0  0  1  0  0  0  0  0  0  0  0  0
    5.6239    5.4387   -0.0145 O   0  0  0  0  0  0  0  0  0  0  0  0
    3.5495    6.6382   -0.2688 O   0  0  0  0  0  0  0  0  0  0  0  0
    5.5889    5.7767    2.6961 O   0  0  0  0  0  0  0  0  0  0  0  0
    2.7877    5.0412    3.5881 N   0  3  0  0  0  0  0  0  0  0  0  0
    2.3153    6.3112    4.1760 C   0  0  0  0  0  0  0  0  0  0  0  0
    1.0518    4.1432    1.1756 C   0  0  0  0  0  0  0  0  0  0  0  0
  1  8  1  0  0  0  0
  1  9  1  1  0  0  0
  1  2  1  0  0  0  0
  2  3  1  0  0  0  0
  3  5  1  0  0  0  0
  3  4  1  6  0  0  0
  5  7  1  0  0  0  0
  5  6  1  6  0  0  0
  7  8  1  0  0  0  0
  9 10  1  0  0  0  0
 11 12  1  0  0  0  0
 11 18  1  0  0  0  0
 11 19  1  6  0  0  0
 12 13  1  0  0  0  0
 13 15  1  0  0  0  0
 13 14  1  6  0  0  0
 15 16  1  0  0  0  0
 15 26  1  1  0  0  0
 16 18  1  0  0  0  0
 16 17  1  6  0  0  0
 18  4  1  1  0  0  0
 20 21  1  0  0  0  0
 20 27  1  0  0  0  0
 21 31  1  1  0  0  0
 21 23  1  0  0  0  0
 21 22  1  0  0  0  0
 23 24  1  0  0  0  0
 23 29  1  1  0  0  0
 24 25  1  0  0  0  0
 24 28  1  1  0  0  0
 25 27  1  0  0  0  0
 25 26  1  6  0  0  0
 29 30  1  0  0  0  0
M  CHG  5   6   1  10   1  14   1  19   1  29   1
M  END
>  <CHROM.1>
132.10048710,73.56274290,52.63270322,-51.61421124,10.13604286,82.53040740
-18.50091656,68.20874987,64.54006194,59.00532178,50.86801758,66.19994062
165.20689463,6.12470310,4.29416672,-0.82740730,-0.17845924,-0.75680963,2.25792640

>  <Name>
1byj cryst

>  <RI>
0

>  <Rbt.Current_Directory>
/home/itssahil/PROJECTS/Mol_Feturizer/New_Systems/rnas/1byj

>  <Rbt.Executable>
rbdock ($Id: //depot/dev/client3/rdock/2013.1/src/exe/rbdock.cxx#4 $)

>  <Rbt.Library>
libRbt.so (2013.1, Build901 2013/11/27)

>  <Rbt.Parameter_File>
/export/apps/rDock/src/rDock_2013.1_src/data/scripts/dock_solv.prm

>  <Rbt.Receptor>
prm/pocket_docking_7.prm

>  <SCORE>
-42.0011

>  <SCORE.INTER>
-38.2088

>  <SCORE.INTER.CONST>
1

>  <SCORE.INTER.POLAR>
-6.63894

>  <SCORE.INTER.ROT>
6

>  <SCORE.INTER.SOLV>
25.0491

>  <SCORE.INTER.VDW>
-19.2925

>  <SCORE.INTER.norm>
-1.23254

>  <SCORE.INTRA>
-3.79228

>  <SCORE.INTRA.DIHEDRAL>
-2.81647

>  <SCORE.INTRA.DIHEDRAL.0>
18.4149

>  <SCORE.INTRA.POLAR>
-0.962823

>  <SCORE.INTRA.POLAR.0>
0

>  <SCORE.INTRA.REPUL>
-0.092687

>  <SCORE.INTRA.REPUL.0>
0.092687

>  <SCORE.INTRA.SOLV>
-1.63323

>  <SCORE.INTRA.SOLV.lig_0>
-120.37

>  <SCORE.INTRA.VDW>
2.1696

>  <SCORE.INTRA.VDW.0>
-1.75542

>  <SCORE.INTRA.norm>
-0.122332

>  <SCORE.RESTR>
0

>  <SCORE.RESTR.CAVITY>
0

>  <SCORE.RESTR.norm>
0

>  <SCORE.SYSTEM>
0

>  <SCORE.SYSTEM.CONST>
0

>  <SCORE.SYSTEM.DIHEDRAL>
0

>  <SCORE.SYSTEM.SOLV>
0

>  <SCORE.SYSTEM.norm>
0

>  <SCORE.heavy>
31

>  <SCORE.norm>
-1.35487

>  <RMSD>
4.091

$$$$
1byj cryst
 OpenBabel11021811383D
libRbt.so/2013.1/901 2013/11/27
 31 33  0  0  0  0  0  0  0  0999 V2000
    8.1406    2.1679   -1.7906 C   0  0  1  0  0  0  0  0  0  0  0  0
    9.1533    3.1281   -2.2316 O   0  0  0  0  0  0  0  0  0  0  0  0
    9.5449    3.1362   -3.6370 C   0  0  2  0  0  0  0  0  0  0  0  0
    8.4550    3.6070   -4.4898 O   0  0  0  0  0  0  0  0  0  0  0  0
   10.0022    1.7049   -4.0527 C   0  0  2  0  0  0  0  0  0  0  0  0
   10.4192    1.6143   -5.4658 N   0  3  0  0  0  0  0  0  0  0  0  0
    8.8780    0.6796   -3.7543 C   0  0  0  0  0  0  0  0  0  0  0  0
    8.4654    0.7280   -2.2755 C   0  0  0  0  0  0  0  0  0  0  0  0
    8.0601    2.1797   -0.2539 C   0  0  0  0  0  0  0  0  0  0  0  0
    9.3222    2.5424    0.4040 N   0  3  0  0  0  0  0  0  0  0  0  0
    8.6758    5.8205   -3.4306 C   0  0  1  0  0  0  0  0  0  0  0  0
    7.9174    7.0495   -2.8728 C   0  0  0  0  0  0  0  0  0  0  0  0
    6.8916    6.6112   -1.7932 C   0  0  1  0  0  0  0  0  0  0  0  0
    6.2324    7.7981   -1.2155 N   0  3  0  0  0  0  0  0  0  0  0  0
    5.8633    5.6136   -2.4005 C   0  0  1  0  0  0  0  0  0  0  0  0
    6.5658    4.4058   -3.0698 C   0  0  1  0  0  0  0  0  0  0  0  0
    5.5524    3.6618   -3.7298 O   0  0  0  0  0  0  0  0  0  0  0  0
    7.6969    4.7883   -4.0805 C   0  0  2  0  0  0  0  0  0  0  0  0
    9.7170    6.2561   -4.3779 N   0  3  0  0  0  0  0  0  0  0  0  0
    3.8391    2.2802   -1.7420 C   0  0  0  0  0  0  0  0  0  0  0  0
    2.8107    2.1002   -0.5985 C   0  0  2  0  0  0  0  0  0  0  0  0
    1.5382    1.8951   -1.2108 O   0  0  0  0  0  0  0  0  0  0  0  0
    2.7986    3.3913    0.3039 C   0  0  1  0  0  0  0  0  0  0  0  0
    2.6931    4.7149   -0.5274 C   0  0  2  0  0  0  0  0  0  0  0  0
    3.6345    4.7478   -1.7581 C   0  0  1  0  0  0  0  0  0  0  0  0
    4.9909    5.0819   -1.3629 O   0  0  0  0  0  0  0  0  0  0  0  0
    3.5757    3.4940   -2.4952 O   0  0  0  0  0  0  0  0  0  0  0  0
    2.9522    5.8599    0.2806 O   0  0  0  0  0  0  0  0  0  0  0  0
    1.6847    3.3026    1.2988 N   0  3  0  0  0  0  0  0  0  0  0  0
    1.7942    4.1479    2.5052 C   0  0  0  0  0  0  0  0  0  0  0  0
    3.1593    0.8089    0.1820 C   0  0  0  0  0  0  0  0  0  0  0  0
  1  8  1  0  0  0  0
  1  9  1  1  0  0  0
  1  2  1  0  0  0  0
  2  3  1  0  0  0  0
  3  5  1  0  0  0  0
  3  4  1  6  0  0  0
  5  7  1  0  0  0  0
  5  6  1  6  0  0  0
  7  8  1  0  0  0  0
  9 10  1  0  0  0  0
 11 12  1  0  0  0  0
 11 18  1  0  0  0  0
 11 19  1  6  0  0  0
 12 13  1  0  0  0  0
 13 15  1  0  0  0  0
 13 14  1  6  0  0  0
 15 16  1  0  0  0  0
 15 26  1  1  0  0  0
 16 18  1  0  0  0  0
 16 17  1  6  0  0  0
 18  4  1  1  0  0  0
 20 21  1  0  0  0  0
 20 27  1  0  0  0  0
 21 31  1  1  0  0  0
 21 23  1  0  0  0  0
 21 22  1  0  0  0  0
 23 24  1  0  0  0  0
 23 29  1  1  0  0  0
 24 25  1  0  0  0  0
 24 28  1  1  0  0  0
 25 27  1  0  0  0  0
 25 26  1  1  0  0  0
 29 30  1  0  0  0  0
M  CHG  5   6   1  10   1  14   1  19   1  29   1
M  END
>  <CHROM.1>
-28.82755865,44.64165826,37.84811986,-62.80145875,-66.16505676,-169.27336480
-175.78198513,148.51345285,59.43955139,55.81757798,-79.92784156,-172.77983805
-158.65087953,6.15457203,3.73431321,-1.92070369,-0.00469192,-0.50994973,3.06483658

>  <Name>
1byj cryst

>  <RI>
0

>  <Rbt.Current_Directory>
/home/itssahil/PROJECTS/Mol_Feturizer/New_Systems/rnas/1byj

>  <Rbt.Executable>
rbdock ($Id: //depot/dev/client3/rdock/2013.1/src/exe/rbdock.cxx#4 $)

>  <Rbt.Library>
libRbt.so (2013.1, Build901 2013/11/27)

>  <Rbt.Parameter_File>
/export/apps/rDock/src/rDock_2013.1_src/data/scripts/dock_solv.prm

>  <Rbt.Receptor>
prm/pocket_docking_5.prm

>  <SCORE>
-32.6084

>  <SCORE.INTER>
-29.817

>  <SCORE.INTER.CONST>
1

>  <SCORE.INTER.POLAR>
-5.07661

>  <SCORE.INTER.ROT>
6

>  <SCORE.INTER.SOLV>
27.4864

>  <SCORE.INTER.VDW>
-19.7181

>  <SCORE.INTER.norm>
-0.96184

>  <SCORE.INTRA>
-2.79131

>  <SCORE.INTRA.DIHEDRAL>
-4.40763

>  <SCORE.INTRA.DIHEDRAL.0>
18.4149

>  <SCORE.INTRA.POLAR>
-0.000221208

>  <SCORE.INTRA.POLAR.0>
0

>  <SCORE.INTRA.REPUL>
-0.092687

>  <SCORE.INTRA.REPUL.0>
0.092687

>  <SCORE.INTRA.SOLV>
-1.83853

>  <SCORE.INTRA.SOLV.lig_0>
-120.37

>  <SCORE.INTRA.VDW>
0.795958

>  <SCORE.INTRA.VDW.0>
-1.75542

>  <SCORE.INTRA.norm>
-0.0900422

>  <SCORE.RESTR>
0

>  <SCORE.RESTR.CAVITY>
0

>  <SCORE.RESTR.norm>
0

>  <SCORE.SYSTEM>
0

>  <SCORE.SYSTEM.CONST>
0

>  <SCORE.SYSTEM.DIHEDRAL>
0

>  <SCORE.SYSTEM.SOLV>
0

>  <SCORE.SYSTEM.norm>
0

>  <SCORE.heavy>
31

>  <SCORE.norm>
-1.05188

>  <RMSD>
4.102

$$$$
1byj cryst
 OpenBabel11021811383D
libRbt.so/2013.1/901 2013/11/27
 31 33  0  0  0  0  0  0  0  0999 V2000
    8.5689    1.5394   -0.8857 C   0  0  1  0  0  0  0  0  0  0  0  0
    8.9242    2.8389   -1.4577 O   0  0  0  0  0  0  0  0  0  0  0  0
    8.9890    2.9703   -2.9093 C   0  0  2  0  0  0  0  0  0  0  0  0
    7.6629    2.8550   -3.5133 O   0  0  0  0  0  0  0  0  0  0  0  0
    9.9598    1.8929   -3.4814 C   0  0  2  0  0  0  0  0  0  0  0  0
   10.0904    1.9481   -4.9507 N   0  3  0  0  0  0  0  0  0  0  0  0
    9.5099    0.4789   -3.0316 C   0  0  0  0  0  0  0  0  0  0  0  0
    9.4152    0.3909   -1.5010 C   0  0  0  0  0  0  0  0  0  0  0  0
    8.7904    1.5735    0.6367 C   0  0  0  0  0  0  0  0  0  0  0  0
    7.7383    0.8953    1.4051 N   0  3  0  0  0  0  0  0  0  0  0  0
    7.2614    5.2569   -3.1387 C   0  0  1  0  0  0  0  0  0  0  0  0
    6.2487    6.3200   -2.6479 C   0  0  0  0  0  0  0  0  0  0  0  0
    5.7738    5.9937   -1.2064 C   0  0  1  0  0  0  0  0  0  0  0  0
    4.8704    7.0552   -0.7228 N   0  3  0  0  0  0  0  0  0  0  0  0
    5.0978    4.5927   -1.1660 C   0  0  1  0  0  0  0  0  0  0  0  0
    6.0252    3.4940   -1.7430 C   0  0  1  0  0  0  0  0  0  0  0  0
    5.2512    2.3058   -1.8140 O   0  0  0  0  0  0  0  0  0  0  0  0
    6.6322    3.8251   -3.1464 C   0  0  2  0  0  0  0  0  0  0  0  0
    7.7836    5.6303   -4.4650 N   0  3  0  0  0  0  0  0  0  0  0  0
    3.5823    3.3679    2.8802 C   0  0  0  0  0  0  0  0  0  0  0  0
    2.2415    4.1348    2.9891 C   0  0  2  0  0  0  0  0  0  0  0  0
    1.2062    3.1556    3.0633 O   0  0  0  0  0  0  0  0  0  0  0  0
    2.0576    5.0521    1.7217 C   0  0  1  0  0  0  0  0  0  0  0  0
    2.3200    4.2930    0.3767 C   0  0  2  0  0  0  0  0  0  0  0  0
    3.5931    3.4096    0.4045 C   0  0  1  0  0  0  0  0  0  0  0  0
    4.7851    4.2140    0.2049 O   0  0  0  0  0  0  0  0  0  0  0  0
    3.6620    2.6298    1.6317 O   0  0  0  0  0  0  0  0  0  0  0  0
    2.4105    5.1958   -0.7223 O   0  0  0  0  0  0  0  0  0  0  0  0
    0.6888    5.6560    1.7287 N   0  3  0  0  0  0  0  0  0  0  0  0
    0.5487    6.9929    2.3410 C   0  0  0  0  0  0  0  0  0  0  0  0
    2.2278    4.9210    4.3231 C   0  0  0  0  0  0  0  0  0  0  0  0
  1  8  1  0  0  0  0
  1  9  1  1  0  0  0
  1  2  1  0  0  0  0
  2  3  1  0  0  0  0
  3  5  1  0  0  0  0
  3  4  1  6  0  0  0
  5  7  1  0  0  0  0
  5  6  1  6  0  0  0
  7  8  1  0  0  0  0
  9 10  1  0  0  0  0
 11 12  1  0  0  0  0
 11 18  1  0  0  0  0
 11 19  1  6  0  0  0
 12 13  1  0  0  0  0
 13 15  1  0  0  0  0
 13 14  1  6  0  0  0
 15 16  1  0  0  0  0
 15 26  1  1  0  0  0
 16 18  1  0  0  0  0
 16 17  1  6  0  0  0
 18  4  1  1  0  0  0
 20 21  1  0  0  0  0
 20 27  1  0  0  0  0
 21 31  1  1  0  0  0
 21 23  1  0  0  0  0
 21 22  1  0  0  0  0
 23 24  1  0  0  0  0
 23 29  1  6  0  0  0
 24 25  1  0  0  0  0
 24 28  1  6  0  0  0
 25 27  1  0  0  0  0
 25 26  1  1  0  0  0
 29 30  1  0  0  0  0
M  CHG  5   6   1  10   1  14   1  19   1  29   1
M  END
>  <CHROM.1>
139.30448687,60.85947979,43.91407701,-49.66434834,-11.65429056,49.51774167
-17.28902967,146.95975332,55.57780532,-60.16750781,-145.43807685,-65.16363362
-79.72342782,5.57927455,3.71082295,-0.61163871,-0.21868415,-0.64731755,2.33307914

>  <Name>
1byj cryst

>  <RI>
0

>  <Rbt.Current_Directory>
/home/itssahil/PROJECTS/Mol_Feturizer/New_Systems/rnas/1byj

>  <Rbt.Executable>
rbdock ($Id: //depot/dev/client3/rdock/2013.1/src/exe/rbdock.cxx#4 $)

>  <Rbt.Library>
libRbt.so (2013.1, Build901 2013/11/27)

>  <Rbt.Parameter_File>
/export/apps/rDock/src/rDock_2013.1_src/data/scripts/dock_solv.prm

>  <Rbt.Receptor>
prm/pocket_docking_6.prm

>  <SCORE>
-38.1145

>  <SCORE.INTER>
-33.51

>  <SCORE.INTER.CONST>
1

>  <SCORE.INTER.POLAR>
-5.39332

>  <SCORE.INTER.ROT>
6

>  <SCORE.INTER.SOLV>
20.9834

>  <SCORE.INTER.VDW>
-18.9567

>  <SCORE.INTER.norm>
-1.08097

>  <SCORE.INTRA>
-4.60453

>  <SCORE.INTRA.DIHEDRAL>
2.11838

>  <SCORE.INTRA.DIHEDRAL.0>
18.4149

>  <SCORE.INTRA.POLAR>
-1.17305

>  <SCORE.INTRA.POLAR.0>
0

>  <SCORE.INTRA.REPUL>
-0.092687

>  <SCORE.INTRA.REPUL.0>
0.092687

>  <SCORE.INTRA.SOLV>
-0.628563

>  <SCORE.INTRA.SOLV.lig_0>
-120.37

>  <SCORE.INTRA.VDW>
-0.897636

>  <SCORE.INTRA.VDW.0>
-1.75542

>  <SCORE.INTRA.norm>
-0.148533

>  <SCORE.RESTR>
0

>  <SCORE.RESTR.CAVITY>
0

>  <SCORE.RESTR.norm>
0

>  <SCORE.SYSTEM>
0

>  <SCORE.SYSTEM.CONST>
0

>  <SCORE.SYSTEM.DIHEDRAL>
0

>  <SCORE.SYSTEM.SOLV>
0

>  <SCORE.SYSTEM.norm>
0

>  <SCORE.heavy>
31

>  <SCORE.norm>
-1.2295

>  <RMSD>
4.120

$$$$
1byj cryst
 OpenBabel11021811383D
libRbt.so/2013.1/901 2013/11/27
 31 33  0  0  0  0  0  0  0  0999 V2000
    8.8308    1.4029   -0.9222 C   0  0  1  0  0  0  0  0  0  0  0  0
    9.1229    2.7182   -1.4938 O   0  0  0  0  0  0  0  0  0  0  0  0
    9.1255    2.8655   -2.9453 C   0  0  2  0  0  0  0  0  0  0  0  0
    7.7804    2.7148   -3.4973 O   0  0  0  0  0  0  0  0  0  0  0  0
   10.1052    1.8243   -3.5671 C   0  0  2  0  0  0  0  0  0  0  0  0
   10.1750    1.8976   -5.0397 N   0  3  0  0  0  0  0  0  0  0  0  0
    9.7173    0.3927   -3.1151 C   0  0  0  0  0  0  0  0  0  0  0  0
    9.6866    0.2872   -1.5830 C   0  0  0  0  0  0  0  0  0  0  0  0
    9.1120    1.4293    0.5905 C   0  0  0  0  0  0  0  0  0  0  0  0
    8.0122    0.9009    1.4082 N   0  3  0  0  0  0  0  0  0  0  0  0
    7.5129    5.1541   -3.7182 C   0  0  1  0  0  0  0  0  0  0  0  0
    6.5844    6.3649   -3.4561 C   0  0  0  0  0  0  0  0  0  0  0  0
    6.1951    6.4363   -1.9550 C   0  0  1  0  0  0  0  0  0  0  0  0
    5.3751    7.6372   -1.7055 N   0  3  0  0  0  0  0  0  0  0  0  0
    5.4616    5.1327   -1.5260 C   0  0  1  0  0  0  0  0  0  0  0  0
    6.2976    3.8712   -1.8578 C   0  0  1  0  0  0  0  0  0  0  0  0
    5.4683    2.7516   -1.5846 O   0  0  0  0  0  0  0  0  0  0  0  0
    6.8215    3.8059   -3.3304 C   0  0  2  0  0  0  0  0  0  0  0  0
    7.9595    5.1540   -5.1224 N   0  3  0  0  0  0  0  0  0  0  0  0
    2.1955    4.9650   -0.4143 C   0  0  0  0  0  0  0  0  0  0  0  0
    1.6433    4.6942    1.0067 C   0  0  2  0  0  0  0  0  0  0  0  0
    0.7990    5.7945    1.3425 O   0  0  0  0  0  0  0  0  0  0  0  0
    2.8423    4.5756    2.0215 C   0  0  1  0  0  0  0  0  0  0  0  0
    3.8740    5.7466    1.8854 C   0  0  2  0  0  0  0  0  0  0  0  0
    4.2484    6.0720    0.4171 C   0  0  1  0  0  0  0  0  0  0  0  0
    5.2267    5.1262   -0.0889 O   0  0  0  0  0  0  0  0  0  0  0  0
    3.0622    6.1306   -0.4245 O   0  0  0  0  0  0  0  0  0  0  0  0
    5.0678    5.4770    2.6156 O   0  0  0  0  0  0  0  0  0  0  0  0
    2.3157    4.4959    3.4196 N   0  3  0  0  0  0  0  0  0  0  0  0
    3.2113    3.9169    4.4417 C   0  0  0  0  0  0  0  0  0  0  0  0
    0.7523    3.4285    0.9586 C   0  0  0  0  0  0  0  0  0  0  0  0
  1  8  1  0  0  0  0
  1  9  1  1  0  0  0
  1  2  1  0  0  0  0
  2  3  1  0  0  0  0
  3  5  1  0  0  0  0
  3  4  1  6  0  0  0
  5  7  1  0  0  0  0
  5  6  1  6  0  0  0
  7  8  1  0  0  0  0
  9 10  1  0  0  0  0
 11 12  1  0  0  0  0
 11 18  1  0  0  0  0
 11 19  1  6  0  0  0
 12 13  1  0  0  0  0
 13 15  1  0  0  0  0
 13 14  1  6  0  0  0
 15 16  1  0  0  0  0
 15 26  1  1  0  0  0
 16 18  1  0  0  0  0
 16 17  1  6  0  0  0
 18  4  1  1  0  0  0
 20 21  1  0  0  0  0
 20 27  1  0  0  0  0
 21 31  1  1  0  0  0
 21 23  1  0  0  0  0
 21 22  1  0  0  0  0
 23 24  1  0  0  0  0
 23 29  1  1  0  0  0
 24 25  1  0  0  0  0
 24 28  1  1  0  0  0
 25 27  1  0  0  0  0
 25 26  1  6  0  0  0
 29 30  1  0  0  0  0
M  CHG  5   6   1  10   1  14   1  19   1  29   1
M  END
>  <CHROM.1>
130.11580287,74.69806624,47.50548222,-44.65970189,-133.03691145,85.09826145
108.47890907,69.67713540,-56.84919547,56.41041411,-79.85275370,-171.17253847
167.46253995,5.93552781,3.98301352,-0.86262969,-0.24685554,-0.66160529,2.21784011

>  <Name>
1byj cryst

>  <RI>
0

>  <Rbt.Current_Directory>
/home/itssahil/PROJECTS/Mol_Feturizer/New_Systems/rnas/1byj

>  <Rbt.Executable>
rbdock ($Id: //depot/dev/client3/rdock/2013.1/src/exe/rbdock.cxx#4 $)

>  <Rbt.Library>
libRbt.so (2013.1, Build901 2013/11/27)

>  <Rbt.Parameter_File>
/export/apps/rDock/src/rDock_2013.1_src/data/scripts/dock_solv.prm

>  <Rbt.Receptor>
prm/pocket_docking_5.prm

>  <SCORE>
-42.0543

>  <SCORE.INTER>
-38.6004

>  <SCORE.INTER.CONST>
1

>  <SCORE.INTER.POLAR>
-6.52662

>  <SCORE.INTER.ROT>
6

>  <SCORE.INTER.SOLV>
24.7901

>  <SCORE.INTER.VDW>
-19.8415

>  <SCORE.INTER.norm>
-1.24517

>  <SCORE.INTRA>
-3.45399

>  <SCORE.INTRA.DIHEDRAL>
-0.421041

>  <SCORE.INTRA.DIHEDRAL.0>
18.4149

>  <SCORE.INTRA.POLAR>
-1.14283

>  <SCORE.INTRA.POLAR.0>
0

>  <SCORE.INTRA.REPUL>
-0.092687

>  <SCORE.INTRA.REPUL.0>
0.092687

>  <SCORE.INTRA.SOLV>
-0.48131

>  <SCORE.INTRA.SOLV.lig_0>
-120.37

>  <SCORE.INTRA.VDW>
1.34625

>  <SCORE.INTRA.VDW.0>
-1.75542

>  <SCORE.INTRA.norm>
-0.111419

>  <SCORE.RESTR>
0

>  <SCORE.RESTR.CAVITY>
0

>  <SCORE.RESTR.norm>
0

>  <SCORE.SYSTEM>
0

>  <SCORE.SYSTEM.CONST>
0

>  <SCORE.SYSTEM.DIHEDRAL>
0

>  <SCORE.SYSTEM.SOLV>
0

>  <SCORE.SYSTEM.norm>
0

>  <SCORE.heavy>
31

>  <SCORE.norm>
-1.35659

>  <RMSD>
4.132

$$$$
1byj cryst
 OpenBabel11021811383D
libRbt.so/2013.1/901 2013/11/27
 31 33  0  0  0  0  0  0  0  0999 V2000
    8.5239    1.1773   -1.1751 C   0  0  1  0  0  0  0  0  0  0  0  0
    8.4018    2.6348   -1.2289 O   0  0  0  0  0  0  0  0  0  0  0  0
    8.2645    3.2779   -2.5313 C   0  0  2  0  0  0  0  0  0  0  0  0
    6.9789    2.9583   -3.1491 O   0  0  0  0  0  0  0  0  0  0  0  0
    9.4488    2.8438   -3.4476 C   0  0  2  0  0  0  0  0  0  0  0  0
    9.3950    3.4472   -4.7937 N   0  3  0  0  0  0  0  0  0  0  0  0
    9.5029    1.2977   -3.5504 C   0  0  0  0  0  0  0  0  0  0  0  0
    9.6073    0.6555   -2.1589 C   0  0  0  0  0  0  0  0  0  0  0  0
    8.8895    0.7478    0.2567 C   0  0  0  0  0  0  0  0  0  0  0  0
    9.7540    1.7038    0.9609 N   0  3  0  0  0  0  0  0  0  0  0  0
    4.5462    2.5679   -3.1391 C   0  0  1  0  0  0  0  0  0  0  0  0
    3.1966    2.9418   -2.4793 C   0  0  0  0  0  0  0  0  0  0  0  0
    2.9718    4.4769   -2.5338 C   0  0  1  0  0  0  0  0  0  0  0  0
    1.6488    4.8110   -1.9726 N   0  3  0  0  0  0  0  0  0  0  0  0
    4.1216    5.2165   -1.7907 C   0  0  1  0  0  0  0  0  0  0  0  0
    5.5120    4.8055   -2.3366 C   0  0  1  0  0  0  0  0  0  0  0  0
    6.4761    5.4024   -1.4820 O   0  0  0  0  0  0  0  0  0  0  0  0
    5.7489    3.2613   -2.4189 C   0  0  2  0  0  0  0  0  0  0  0  0
    4.7029    1.1031   -3.1749 N   0  3  0  0  0  0  0  0  0  0  0  0
    3.9826    8.8762    0.1318 C   0  0  0  0  0  0  0  0  0  0  0  0
    3.4371   10.1277   -0.5987 C   0  0  2  0  0  0  0  0  0  0  0  0
    2.2359   10.5101    0.0699 O   0  0  0  0  0  0  0  0  0  0  0  0
    3.1521    9.7720   -2.1066 C   0  0  1  0  0  0  0  0  0  0  0  0
    2.3278    8.4507   -2.2758 C   0  0  2  0  0  0  0  0  0  0  0  0
    2.8316    7.2897   -1.3813 C   0  0  1  0  0  0  0  0  0  0  0  0
    4.0009    6.6572   -1.9648 O   0  0  0  0  0  0  0  0  0  0  0  0
    3.0817    7.7472   -0.0222 O   0  0  0  0  0  0  0  0  0  0  0  0
    2.3155    8.0141   -3.6325 O   0  0  0  0  0  0  0  0  0  0  0  0
    2.4573   10.9168   -2.7738 N   0  3  0  0  0  0  0  0  0  0  0  0
    0.9982   11.0257   -2.5713 C   0  0  0  0  0  0  0  0  0  0  0  0
    4.4507   11.2851   -0.4220 C   0  0  0  0  0  0  0  0  0  0  0  0
  1  8  1  0  0  0  0
  1  9  1  1  0  0  0
  1  2  1  0  0  0  0
  2  3  1  0  0  0  0
  3  5  1  0  0  0  0
  3  4  1  6  0  0  0
  5  7  1  0  0  0  0
  5  6  1  6  0  0  0
  7  8  1  0  0  0  0
  9 10  1  0  0  0  0
 11 12  1  0  0  0  0
 11 18  1  0  0  0  0
 11 19  1  1  0  0  0
 12 13  1  0  0  0  0
 13 15  1  0  0  0  0
 13 14  1  1  0  0  0
 15 16  1  0  0  0  0
 15 26  1  6  0  0  0
 16 18  1  0  0  0  0
 16 17  1  1  0  0  0
 18  4  1  6  0  0  0
 20 21  1  0  0  0  0
 20 27  1  0  0  0  0
 21 31  1  1  0  0  0
 21 23  1  0  0  0  0
 21 22  1  0  0  0  0
 23 24  1  0  0  0  0
 23 29  1  1  0  0  0
 24 25  1  0  0  0  0
 24 28  1  6  0  0  0
 25 27  1  0  0  0  0
 25 26  1  6  0  0  0
 29 30  1  0  0  0  0
M  CHG  5   6   1  10   1  14   1  19   1  29   1
M  END
>  <CHROM.1>
-33.95651261,56.40606983,-168.34944862,173.12873650,157.62342729,68.79367198
-35.51372743,64.92200457,-161.31644284,170.02957777,39.48658047,-72.36392445
-144.20281840,5.24767653,5.37927261,-1.92682256,-0.87070151,-0.35661681,0.35592532

>  <Name>
1byj cryst

>  <RI>
0

>  <Rbt.Current_Directory>
/home/itssahil/PROJECTS/Mol_Feturizer/New_Systems/rnas/1byj

>  <Rbt.Executable>
rbdock ($Id: //depot/dev/client3/rdock/2013.1/src/exe/rbdock.cxx#4 $)

>  <Rbt.Library>
libRbt.so (2013.1, Build901 2013/11/27)

>  <Rbt.Parameter_File>
/export/apps/rDock/src/rDock_2013.1_src/data/scripts/dock_solv.prm

>  <Rbt.Receptor>
prm/pocket_docking_5.prm

>  <SCORE>
-30.9724

>  <SCORE.INTER>
-29.03

>  <SCORE.INTER.CONST>
1

>  <SCORE.INTER.POLAR>
-4.45585

>  <SCORE.INTER.ROT>
6

>  <SCORE.INTER.SOLV>
26.9342

>  <SCORE.INTER.VDW>
-21.0786

>  <SCORE.INTER.norm>
-0.936452

>  <SCORE.INTRA>
-1.94233

>  <SCORE.INTRA.DIHEDRAL>
-4.1484

>  <SCORE.INTRA.DIHEDRAL.0>
18.4149

>  <SCORE.INTRA.POLAR>
-0.176539

>  <SCORE.INTRA.POLAR.0>
0

>  <SCORE.INTRA.REPUL>
-0.092687

>  <SCORE.INTRA.REPUL.0>
0.092687

>  <SCORE.INTRA.SOLV>
-1.64956

>  <SCORE.INTRA.SOLV.lig_0>
-120.37

>  <SCORE.INTRA.VDW>
2.02032

>  <SCORE.INTRA.VDW.0>
-1.75542

>  <SCORE.INTRA.norm>
-0.0626559

>  <SCORE.RESTR>
0

>  <SCORE.RESTR.CAVITY>
0

>  <SCORE.RESTR.norm>
0

>  <SCORE.SYSTEM>
0

>  <SCORE.SYSTEM.CONST>
0

>  <SCORE.SYSTEM.DIHEDRAL>
0

>  <SCORE.SYSTEM.SOLV>
0

>  <SCORE.SYSTEM.norm>
0

>  <SCORE.heavy>
31

>  <SCORE.norm>
-0.999108

>  <RMSD>
4.232

$$$$
1byj cryst
 OpenBabel11021811383D
libRbt.so/2013.1/901 2013/11/27
 31 33  0  0  0  0  0  0  0  0999 V2000
    8.5077    2.1006   -0.4465 C   0  0  1  0  0  0  0  0  0  0  0  0
    8.3762    3.2979   -1.2779 O   0  0  0  0  0  0  0  0  0  0  0  0
    8.2978    3.1391   -2.7261 C   0  0  2  0  0  0  0  0  0  0  0  0
    7.0467    2.4959   -3.1233 O   0  0  0  0  0  0  0  0  0  0  0  0
    9.5291    2.3218   -3.2222 C   0  0  2  0  0  0  0  0  0  0  0  0
    9.5365    2.1090   -4.6829 N   0  3  0  0  0  0  0  0  0  0  0  0
    9.6012    0.9636   -2.4779 C   0  0  0  0  0  0  0  0  0  0  0  0
    9.6424    1.1698   -0.9563 C   0  0  0  0  0  0  0  0  0  0  0  0
    8.8060    2.5165    1.0047 C   0  0  0  0  0  0  0  0  0  0  0  0
    8.4876    1.4810    1.9965 N   0  3  0  0  0  0  0  0  0  0  0  0
    4.6611    1.9257   -2.8905 C   0  0  1  0  0  0  0  0  0  0  0  0
    3.2895    2.3782   -2.3332 C   0  0  0  0  0  0  0  0  0  0  0  0
    2.9224    3.7874   -2.8709 C   0  0  1  0  0  0  0  0  0  0  0  0
    1.5801    4.1726   -2.3950 N   0  3  0  0  0  0  0  0  0  0  0  0
    4.0062    4.8228   -2.4527 C   0  0  1  0  0  0  0  0  0  0  0  0
    5.4230    4.3758   -2.8921 C   0  0  1  0  0  0  0  0  0  0  0  0
    6.3363    5.2972   -2.3150 O   0  0  0  0  0  0  0  0  0  0  0  0
    5.8016    2.9145   -2.4812 C   0  0  2  0  0  0  0  0  0  0  0  0
    4.9529    0.5475   -2.4581 N   0  3  0  0  0  0  0  0  0  0  0  0
    3.3254    9.0481   -3.8019 C   0  0  0  0  0  0  0  0  0  0  0  0
    2.7396    9.7055   -2.5282 C   0  0  2  0  0  0  0  0  0  0  0  0
    3.6616   10.7144   -2.1182 O   0  0  0  0  0  0  0  0  0  0  0  0
    2.5665    8.6130   -1.4066 C   0  0  1  0  0  0  0  0  0  0  0  0
    3.8469    7.7320   -1.2112 C   0  0  2  0  0  0  0  0  0  0  0  0
    4.4756    7.2521   -2.5440 C   0  0  1  0  0  0  0  0  0  0  0  0
    3.7503    6.1131   -3.0773 O   0  0  0  0  0  0  0  0  0  0  0  0
    4.5596    8.3421   -3.5050 O   0  0  0  0  0  0  0  0  0  0  0  0
    3.5781    6.5957   -0.3940 O   0  0  0  0  0  0  0  0  0  0  0  0
    2.1745    9.2673   -0.1194 N   0  3  0  0  0  0  0  0  0  0  0  0
    1.3602    8.4678    0.8185 C   0  0  0  0  0  0  0  0  0  0  0  0
    1.4157   10.4164   -2.9022 C   0  0  0  0  0  0  0  0  0  0  0  0
  1  8  1  0  0  0  0
  1  9  1  1  0  0  0
  1  2  1  0  0  0  0
  2  3  1  0  0  0  0
  3  5  1  0  0  0  0
  3  4  1  1  0  0  0
  5  7  1  0  0  0  0
  5  6  1  6  0  0  0
  7  8  1  0  0  0  0
  9 10  1  0  0  0  0
 11 12  1  0  0  0  0
 11 18  1  0  0  0  0
 11 19  1  1  0  0  0
 12 13  1  0  0  0  0
 13 15  1  0  0  0  0
 13 14  1  1  0  0  0
 15 16  1  0  0  0  0
 15 26  1  6  0  0  0
 16 18  1  0  0  0  0
 16 17  1  1  0  0  0
 18  4  1  6  0  0  0
 20 21  1  0  0  0  0
 20 27  1  0  0  0  0
 21 31  1  6  0  0  0
 21 23  1  0  0  0  0
 21 22  1  0  0  0  0
 23 24  1  0  0  0  0
 23 29  1  1  0  0  0
 24 25  1  0  0  0  0
 24 28  1  1  0  0  0
 25 27  1  0  0  0  0
 25 26  1  6  0  0  0
 29 30  1  0  0  0  0
M  CHG  5   6   1  10   1  14   1  19   1  29   1
M  END
>  <CHROM.1>
159.22154738,42.92643659,-170.43320333,-5.00529089,142.81813351,101.13571732
64.82939011,165.77743192,62.94863304,-62.07513548,-87.76464058,-67.96350810
-77.30639797,5.29308066,4.97496978,-1.96806645,-0.82882374,-0.37358880,0.30450219

>  <Name>
1byj cryst

>  <RI>
0

>  <Rbt.Current_Directory>
/home/itssahil/PROJECTS/Mol_Feturizer/New_Systems/rnas/1byj

>  <Rbt.Executable>
rbdock ($Id: //depot/dev/client3/rdock/2013.1/src/exe/rbdock.cxx#4 $)

>  <Rbt.Library>
libRbt.so (2013.1, Build901 2013/11/27)

>  <Rbt.Parameter_File>
/export/apps/rDock/src/rDock_2013.1_src/data/scripts/dock_solv.prm

>  <Rbt.Receptor>
prm/pocket_docking_8.prm

>  <SCORE>
-31.4334

>  <SCORE.INTER>
-29.8272

>  <SCORE.INTER.CONST>
1

>  <SCORE.INTER.POLAR>
-4.27016

>  <SCORE.INTER.ROT>
6

>  <SCORE.INTER.SOLV>
23.1434

>  <SCORE.INTER.VDW>
-20.9654

>  <SCORE.INTER.norm>
-0.962168

>  <SCORE.INTRA>
-1.6062

>  <SCORE.INTRA.DIHEDRAL>
-1.72399

>  <SCORE.INTRA.DIHEDRAL.0>
18.4149

>  <SCORE.INTRA.POLAR>
-0.00319772

>  <SCORE.INTRA.POLAR.0>
0

>  <SCORE.INTRA.REPUL>
-0.092687

>  <SCORE.INTRA.REPUL.0>
0.092687

>  <SCORE.INTRA.SOLV>
-2.91487

>  <SCORE.INTRA.SOLV.lig_0>
-120.37

>  <SCORE.INTRA.VDW>
1.18754

>  <SCORE.INTRA.VDW.0>
-1.75542

>  <SCORE.INTRA.norm>
-0.0518128

>  <SCORE.RESTR>
0

>  <SCORE.RESTR.CAVITY>
0

>  <SCORE.RESTR.norm>
0

>  <SCORE.SYSTEM>
0

>  <SCORE.SYSTEM.CONST>
0

>  <SCORE.SYSTEM.DIHEDRAL>
0

>  <SCORE.SYSTEM.SOLV>
0

>  <SCORE.SYSTEM.norm>
0

>  <SCORE.heavy>
31

>  <SCORE.norm>
-1.01398

>  <RMSD>
4.269

$$$$
1byj cryst
 OpenBabel11021811383D
libRbt.so/2013.1/901 2013/11/27
 31 33  0  0  0  0  0  0  0  0999 V2000
    8.6421    1.6920   -1.1466 C   0  0  1  0  0  0  0  0  0  0  0  0
    9.0731    2.9364   -1.7852 O   0  0  0  0  0  0  0  0  0  0  0  0
    9.1544    2.9841   -3.2411 C   0  0  2  0  0  0  0  0  0  0  0  0
    7.8277    2.9095   -3.8503 O   0  0  0  0  0  0  0  0  0  0  0  0
   10.0671    1.8247   -3.7444 C   0  0  2  0  0  0  0  0  0  0  0  0
   10.2099    1.7918   -5.2133 N   0  3  0  0  0  0  0  0  0  0  0  0
    9.5361    0.4647   -3.2226 C   0  0  0  0  0  0  0  0  0  0  0  0
    9.4268    0.4663   -1.6904 C   0  0  0  0  0  0  0  0  0  0  0  0
    8.8555    1.7973    0.3737 C   0  0  0  0  0  0  0  0  0  0  0  0
   10.0240    2.6014    0.7549 N   0  3  0  0  0  0  0  0  0  0  0  0
    7.5039    5.3044   -3.3707 C   0  0  1  0  0  0  0  0  0  0  0  0
    6.5135    6.3823   -2.8670 C   0  0  0  0  0  0  0  0  0  0  0  0
    5.9674    6.0053   -1.4636 C   0  0  1  0  0  0  0  0  0  0  0  0
    5.0863    7.0776   -0.9628 N   0  3  0  0  0  0  0  0  0  0  0  0
    5.2368    4.6325   -1.5207 C   0  0  1  0  0  0  0  0  0  0  0  0
    6.1443    3.5268   -2.1158 C   0  0  1  0  0  0  0  0  0  0  0  0
    5.3286    2.3758   -2.2771 O   0  0  0  0  0  0  0  0  0  0  0  0
    6.8209    3.9014   -3.4756 C   0  0  2  0  0  0  0  0  0  0  0  0
    8.0945    5.7210   -4.6549 N   0  3  0  0  0  0  0  0  0  0  0  0
    1.9457    4.1628   -1.1132 C   0  0  0  0  0  0  0  0  0  0  0  0
    1.1730    3.3914   -0.0153 C   0  0  2  0  0  0  0  0  0  0  0  0
    0.2072    4.2918    0.5255 O   0  0  0  0  0  0  0  0  0  0  0  0
    2.1805    2.9133    1.0973 C   0  0  1  0  0  0  0  0  0  0  0  0
    3.1345    4.0552    1.5870 C   0  0  2  0  0  0  0  0  0  0  0  0
    3.7371    4.8944    0.4317 C   0  0  1  0  0  0  0  0  0  0  0  0
    4.8535    4.2000   -0.1841 O   0  0  0  0  0  0  0  0  0  0  0  0
    2.7160    5.2536   -0.5415 O   0  0  0  0  0  0  0  0  0  0  0  0
    4.1976    3.5402    2.3844 O   0  0  0  0  0  0  0  0  0  0  0  0
    1.4235    2.3282    2.2475 N   0  3  0  0  0  0  0  0  0  0  0  0
    2.2027    1.5677    3.2458 C   0  0  0  0  0  0  0  0  0  0  0  0
    0.3963    2.2287   -0.6808 C   0  0  0  0  0  0  0  0  0  0  0  0
  1  8  1  0  0  0  0
  1  9  1  1  0  0  0
  1  2  1  0  0  0  0
  2  3  1  0  0  0  0
  3  5  1  0  0  0  0
  3  4  1  6  0  0  0
  5  7  1  0  0  0  0
  5  6  1  6  0  0  0
  7  8  1  0  0  0  0
  9 10  1  0  0  0  0
 11 12  1  0  0  0  0
 11 18  1  0  0  0  0
 11 19  1  6  0  0  0
 12 13  1  0  0  0  0
 13 15  1  0  0  0  0
 13 14  1  6  0  0  0
 15 16  1  0  0  0  0
 15 26  1  1  0  0  0
 16 18  1  0  0  0  0
 16 17  1  6  0  0  0
 18  4  1  1  0  0  0
 20 21  1  0  0  0  0
 20 27  1  0  0  0  0
 21 31  1  6  0  0  0
 21 23  1  0  0  0  0
 21 22  1  0  0  0  0
 23 24  1  0  0  0  0
 23 29  1  1  0  0  0
 24 25  1  0  0  0  0
 24 28  1  6  0  0  0
 25 27  1  0  0  0  0
 25 26  1  6  0  0  0
 29 30  1  0  0  0  0
M  CHG  5   6   1  10   1  14   1  19   1  29   1
M  END
>  <CHROM.1>
-33.34629152,56.68966556,40.74154817,66.33395647,37.74584286,-61.61394570
104.97754180,73.69492101,-62.95241709,-63.65960834,-71.80658015,72.57036519
160.59373672,5.72878110,3.47014077,-1.16371380,-0.24795437,-0.45272274,2.38214740

>  <Name>
1byj cryst

>  <RI>
0

>  <Rbt.Current_Directory>
/home/itssahil/PROJECTS/Mol_Feturizer/New_Systems/rnas/1byj

>  <Rbt.Executable>
rbdock ($Id: //depot/dev/client3/rdock/2013.1/src/exe/rbdock.cxx#4 $)

>  <Rbt.Library>
libRbt.so (2013.1, Build901 2013/11/27)

>  <Rbt.Parameter_File>
/export/apps/rDock/src/rDock_2013.1_src/data/scripts/dock_solv.prm

>  <Rbt.Receptor>
prm/pocket_docking_7.prm

>  <SCORE>
-41.7131

>  <SCORE.INTER>
-33.6437

>  <SCORE.INTER.CONST>
1

>  <SCORE.INTER.POLAR>
-5.64212

>  <SCORE.INTER.ROT>
6

>  <SCORE.INTER.SOLV>
25.0308

>  <SCORE.INTER.VDW>
-19.5657

>  <SCORE.INTER.norm>
-1.08528

>  <SCORE.INTRA>
-8.09386

>  <SCORE.INTRA.DIHEDRAL>
-6.09979

>  <SCORE.INTRA.DIHEDRAL.0>
18.4149

>  <SCORE.INTRA.POLAR>
-1.30781

>  <SCORE.INTRA.POLAR.0>
0

>  <SCORE.INTRA.REPUL>
-0.092687

>  <SCORE.INTRA.REPUL.0>
0.092687

>  <SCORE.INTRA.SOLV>
-0.0760172

>  <SCORE.INTRA.SOLV.lig_0>
-120.37

>  <SCORE.INTRA.VDW>
-0.0959694

>  <SCORE.INTRA.VDW.0>
-1.75542

>  <SCORE.INTRA.norm>
-0.261092

>  <SCORE.RESTR>
0.0244849

>  <SCORE.RESTR.CAVITY>
0.0244849

>  <SCORE.RESTR.norm>
0.000789835

>  <SCORE.SYSTEM>
0

>  <SCORE.SYSTEM.CONST>
0

>  <SCORE.SYSTEM.DIHEDRAL>
0

>  <SCORE.SYSTEM.SOLV>
0

>  <SCORE.SYSTEM.norm>
0

>  <SCORE.heavy>
31

>  <SCORE.norm>
-1.34558

>  <RMSD>
4.315

$$$$
1byj cryst
 OpenBabel11021811383D
libRbt.so/2013.1/901 2013/11/27
 31 33  0  0  0  0  0  0  0  0999 V2000
    9.5638    1.4382   -2.6251 C   0  0  1  0  0  0  0  0  0  0  0  0
    8.2073    1.0244   -2.2634 O   0  0  0  0  0  0  0  0  0  0  0  0
    7.7212    1.3176   -0.9194 C   0  0  2  0  0  0  0  0  0  0  0  0
    7.5386    2.7544   -0.7219 O   0  0  0  0  0  0  0  0  0  0  0  0
    8.7160    0.7309    0.1277 C   0  0  2  0  0  0  0  0  0  0  0  0
    8.3057    0.9795    1.5238 N   0  3  0  0  0  0  0  0  0  0  0  0
   10.1417    1.2862   -0.1235 C   0  0  0  0  0  0  0  0  0  0  0  0
   10.6028    0.9934   -1.5592 C   0  0  0  0  0  0  0  0  0  0  0  0
    9.9390    0.8259   -3.9861 C   0  0  0  0  0  0  0  0  0  0  0  0
   10.0924    1.8156   -5.0604 N   0  3  0  0  0  0  0  0  0  0  0  0
    6.4256    4.9282   -1.0482 C   0  0  1  0  0  0  0  0  0  0  0  0
    5.3746    5.7128   -1.8705 C   0  0  0  0  0  0  0  0  0  0  0  0
    4.0007    4.9917   -1.8258 C   0  0  1  0  0  0  0  0  0  0  0  0
    2.9909    5.7895   -2.5475 N   0  3  0  0  0  0  0  0  0  0  0  0
    4.1279    3.5535   -2.4063 C   0  0  1  0  0  0  0  0  0  0  0  0
    5.2403    2.7455   -1.6921 C   0  0  1  0  0  0  0  0  0  0  0  0
    5.3809    1.5278   -2.4086 O   0  0  0  0  0  0  0  0  0  0  0  0
    6.6197    3.4776   -1.5996 C   0  0  2  0  0  0  0  0  0  0  0  0
    7.6970    5.6723   -1.0111 N   0  3  0  0  0  0  0  0  0  0  0  0
    1.7467    1.6758   -4.8238 C   0  0  0  0  0  0  0  0  0  0  0  0
    0.3770    1.0652   -4.4385 C   0  0  2  0  0  0  0  0  0  0  0  0
   -0.6164    1.7641   -5.1873 O   0  0  0  0  0  0  0  0  0  0  0  0
    0.1413    1.2408   -2.8909 C   0  0  1  0  0  0  0  0  0  0  0  0
    0.4192    2.7002   -2.3939 C   0  0  2  0  0  0  0  0  0  0  0  0
    1.7276    3.3070   -2.9610 C   0  0  1  0  0  0  0  0  0  0  0  0
    2.8833    2.8181   -2.2309 O   0  0  0  0  0  0  0  0  0  0  0  0
    1.8424    3.0590   -4.3908 O   0  0  0  0  0  0  0  0  0  0  0  0
    0.4600    2.7673   -0.9708 O   0  0  0  0  0  0  0  0  0  0  0  0
   -1.2509    0.8199   -2.5403 N   0  3  0  0  0  0  0  0  0  0  0  0
   -1.4434    0.1627   -1.2315 C   0  0  0  0  0  0  0  0  0  0  0  0
    0.3464   -0.4127   -4.9002 C   0  0  0  0  0  0  0  0  0  0  0  0
  1  8  1  0  0  0  0
  1  9  1  6  0  0  0
  1  2  1  0  0  0  0
  2  3  1  0  0  0  0
  3  5  1  0  0  0  0
  3  4  1  6  0  0  0
  5  7  1  0  0  0  0
  5  6  1  1  0  0  0
  7  8  1  0  0  0  0
  9 10  1  0  0  0  0
 11 12  1  0  0  0  0
 11 18  1  0  0  0  0
 11 19  1  6  0  0  0
 12 13  1  0  0  0  0
 13 15  1  0  0  0  0
 13 14  1  6  0  0  0
 15 16  1  0  0  0  0
 15 26  1  1  0  0  0
 16 18  1  0  0  0  0
 16 17  1  6  0  0  0
 18  4  1  1  0  0  0
 20 21  1  0  0  0  0
 20 27  1  0  0  0  0
 21 31  1  6  0  0  0
 21 23  1  0  0  0  0
 21 22  1  0  0  0  0
 23 24  1  0  0  0  0
 23 29  1  6  0  0  0
 24 25  1  0  0  0  0
 24 28  1  1  0  0  0
 25 27  1  0  0  0  0
 25 26  1  1  0  0  0
 29 30  1  0  0  0  0
M  CHG  5   6   1  10   1  14   1  19   1  29   1
M  END
>  <CHROM.1>
112.76746202,58.99275320,171.01759175,101.15734081,48.98970050,81.42397614
-161.97249408,65.47741770,-61.36925680,75.87686330,-93.92909151,57.30848621
-164.23559118,4.66612016,2.34625891,-2.29840644,-0.10066939,0.16410351,-2.70081735

>  <Name>
1byj cryst

>  <RI>
0

>  <Rbt.Current_Directory>
/home/itssahil/PROJECTS/Mol_Feturizer/New_Systems/rnas/1byj

>  <Rbt.Executable>
rbdock ($Id: //depot/dev/client3/rdock/2013.1/src/exe/rbdock.cxx#4 $)

>  <Rbt.Library>
libRbt.so (2013.1, Build901 2013/11/27)

>  <Rbt.Parameter_File>
/export/apps/rDock/src/rDock_2013.1_src/data/scripts/dock_solv.prm

>  <Rbt.Receptor>
prm/pocket_docking_8.prm

>  <SCORE>
-48.0981

>  <SCORE.INTER>
-46.863

>  <SCORE.INTER.CONST>
1

>  <SCORE.INTER.POLAR>
-6.00949

>  <SCORE.INTER.ROT>
6

>  <SCORE.INTER.SOLV>
26.8094

>  <SCORE.INTER.VDW>
-27.7469

>  <SCORE.INTER.norm>
-1.51171

>  <SCORE.INTRA>
-1.23508

>  <SCORE.INTRA.DIHEDRAL>
-2.89691

>  <SCORE.INTRA.DIHEDRAL.0>
18.4149

>  <SCORE.INTRA.POLAR>
-0.0350193

>  <SCORE.INTRA.POLAR.0>
0

>  <SCORE.INTRA.REPUL>
-0.0618259

>  <SCORE.INTRA.REPUL.0>
0.092687

>  <SCORE.INTRA.SOLV>
-3.4288

>  <SCORE.INTRA.SOLV.lig_0>
-120.37

>  <SCORE.INTRA.VDW>
2.35597

>  <SCORE.INTRA.VDW.0>
-1.75542

>  <SCORE.INTRA.norm>
-0.0398412

>  <SCORE.RESTR>
0

>  <SCORE.RESTR.CAVITY>
0

>  <SCORE.RESTR.norm>
0

>  <SCORE.SYSTEM>
0

>  <SCORE.SYSTEM.CONST>
0

>  <SCORE.SYSTEM.DIHEDRAL>
0

>  <SCORE.SYSTEM.SOLV>
0

>  <SCORE.SYSTEM.norm>
0

>  <SCORE.heavy>
31

>  <SCORE.norm>
-1.55155

>  <RMSD>
4.448

$$$$
1byj cryst
 OpenBabel11021811383D
libRbt.so/2013.1/901 2013/11/27
 31 33  0  0  0  0  0  0  0  0999 V2000
    9.2473    2.0285   -2.1101 C   0  0  1  0  0  0  0  0  0  0  0  0
    7.8999    1.4569   -2.1212 O   0  0  0  0  0  0  0  0  0  0  0  0
    7.1400    1.4322   -0.8760 C   0  0  2  0  0  0  0  0  0  0  0  0
    6.7688    2.7812   -0.4530 O   0  0  0  0  0  0  0  0  0  0  0  0
    7.9770    0.7113    0.2241 C   0  0  2  0  0  0  0  0  0  0  0  0
    7.2862    0.6375    1.5265 N   0  3  0  0  0  0  0  0  0  0  0  0
    9.3557    1.4029    0.3822 C   0  0  0  0  0  0  0  0  0  0  0  0
   10.1085    1.4452   -0.9561 C   0  0  0  0  0  0  0  0  0  0  0  0
    9.9367    1.7376   -3.4548 C   0  0  0  0  0  0  0  0  0  0  0  0
    9.7309    2.7829   -4.4659 N   0  3  0  0  0  0  0  0  0  0  0  0
    5.8908    5.0608   -0.7741 C   0  0  1  0  0  0  0  0  0  0  0  0
    4.9665    5.9638   -1.6266 C   0  0  0  0  0  0  0  0  0  0  0  0
    3.5287    5.3803   -1.6729 C   0  0  1  0  0  0  0  0  0  0  0  0
    2.6413    6.2900   -2.4225 N   0  3  0  0  0  0  0  0  0  0  0  0
    3.5471    3.9504   -2.2866 C   0  0  1  0  0  0  0  0  0  0  0  0
    4.5359    3.0207   -1.5395 C   0  0  1  0  0  0  0  0  0  0  0  0
    4.5962    1.8120   -2.2821 O   0  0  0  0  0  0  0  0  0  0  0  0
    5.9728    3.6113   -1.3558 C   0  0  2  0  0  0  0  0  0  0  0  0
    7.2244    5.6753   -0.6509 N   0  3  0  0  0  0  0  0  0  0  0  0
    2.2148    1.8894   -4.8839 C   0  0  0  0  0  0  0  0  0  0  0  0
    0.9084    1.0584   -4.8962 C   0  0  2  0  0  0  0  0  0  0  0  0
    0.1247    1.5300   -5.9915 O   0  0  0  0  0  0  0  0  0  0  0  0
    0.1463    1.2592   -3.5323 C   0  0  1  0  0  0  0  0  0  0  0  0
    0.0109    2.7660   -3.1259 C   0  0  2  0  0  0  0  0  0  0  0  0
    1.3215    3.5737   -3.3040 C   0  0  1  0  0  0  0  0  0  0  0  0
    2.2294    3.3370   -2.1961 O   0  0  0  0  0  0  0  0  0  0  0  0
    1.9432    3.2853   -4.5882 O   0  0  0  0  0  0  0  0  0  0  0  0
   -0.4356    2.9047   -1.7796 O   0  0  0  0  0  0  0  0  0  0  0  0
   -1.1992    0.6089   -3.6041 N   0  3  0  0  0  0  0  0  0  0  0  0
   -1.7986    0.1652   -2.3291 C   0  0  0  0  0  0  0  0  0  0  0  0
    1.2648   -0.4200   -5.1884 C   0  0  0  0  0  0  0  0  0  0  0  0
  1  8  1  0  0  0  0
  1  9  1  6  0  0  0
  1  2  1  0  0  0  0
  2  3  1  0  0  0  0
  3  5  1  0  0  0  0
  3  4  1  1  0  0  0
  5  7  1  0  0  0  0
  5  6  1  1  0  0  0
  7  8  1  0  0  0  0
  9 10  1  0  0  0  0
 11 12  1  0  0  0  0
 11 18  1  0  0  0  0
 11 19  1  6  0  0  0
 12 13  1  0  0  0  0
 13 15  1  0  0  0  0
 13 14  1  6  0  0  0
 15 16  1  0  0  0  0
 15 26  1  1  0  0  0
 16 18  1  0  0  0  0
 16 17  1  6  0  0  0
 18  4  1  1  0  0  0
 20 21  1  0  0  0  0
 20 27  1  0  0  0  0
 21 31  1  6  0  0  0
 21 23  1  0  0  0  0
 21 22  1  0  0  0  0
 23 24  1  0  0  0  0
 23 29  1  6  0  0  0
 24 25  1  0  0  0  0
 24 28  1  1  0  0  0
 25 27  1  0  0  0  0
 25 26  1  1  0  0  0
 29 30  1  0  0  0  0
M  CHG  5   6   1  10   1  14   1  19   1  29   1
M  END
>  <CHROM.1>
90.62962484,58.26197454,-171.68911841,169.12727150,30.54747778,171.59112066
-173.09181980,89.00565852,61.52876513,171.83274392,-85.19459240,-71.93383784
175.21218318,4.33096651,2.55839454,-2.34872791,-0.15148253,0.26161250,-2.78840773

>  <Name>
1byj cryst

>  <RI>
0

>  <Rbt.Current_Directory>
/home/itssahil/PROJECTS/Mol_Feturizer/New_Systems/rnas/1byj

>  <Rbt.Executable>
rbdock ($Id: //depot/dev/client3/rdock/2013.1/src/exe/rbdock.cxx#4 $)

>  <Rbt.Library>
libRbt.so (2013.1, Build901 2013/11/27)

>  <Rbt.Parameter_File>
/export/apps/rDock/src/rDock_2013.1_src/data/scripts/dock_solv.prm

>  <Rbt.Receptor>
prm/pocket_docking_8.prm

>  <SCORE>
-46.9425

>  <SCORE.INTER>
-40.3603

>  <SCORE.INTER.CONST>
1

>  <SCORE.INTER.POLAR>
-5.43224

>  <SCORE.INTER.ROT>
6

>  <SCORE.INTER.SOLV>
22.8942

>  <SCORE.INTER.VDW>
-24.0308

>  <SCORE.INTER.norm>
-1.30195

>  <SCORE.INTRA>
-6.58222

>  <SCORE.INTRA.DIHEDRAL>
-6.76294

>  <SCORE.INTRA.DIHEDRAL.0>
18.4149

>  <SCORE.INTRA.POLAR>
0

>  <SCORE.INTRA.POLAR.0>
0

>  <SCORE.INTRA.REPUL>
-0.092687

>  <SCORE.INTRA.REPUL.0>
0.092687

>  <SCORE.INTRA.SOLV>
-3.6164

>  <SCORE.INTRA.SOLV.lig_0>
-120.37

>  <SCORE.INTRA.VDW>
-0.929112

>  <SCORE.INTRA.VDW.0>
-1.75542

>  <SCORE.INTRA.norm>
-0.21233

>  <SCORE.RESTR>
0

>  <SCORE.RESTR.CAVITY>
0

>  <SCORE.RESTR.norm>
0

>  <SCORE.SYSTEM>
0

>  <SCORE.SYSTEM.CONST>
0

>  <SCORE.SYSTEM.DIHEDRAL>
0

>  <SCORE.SYSTEM.SOLV>
0

>  <SCORE.SYSTEM.norm>
0

>  <SCORE.heavy>
31

>  <SCORE.norm>
-1.51428

>  <RMSD>
4.452

$$$$
1byj cryst
 OpenBabel11021811383D
libRbt.so/2013.1/901 2013/11/27
 31 33  0  0  0  0  0  0  0  0999 V2000
    8.3539    1.1396   -1.3561 C   0  0  1  0  0  0  0  0  0  0  0  0
    8.1356    2.5826   -1.2466 O   0  0  0  0  0  0  0  0  0  0  0  0
    7.9382    3.3552   -2.4684 C   0  0  2  0  0  0  0  0  0  0  0  0
    6.6677    3.0206   -3.1094 O   0  0  0  0  0  0  0  0  0  0  0  0
    9.1354    3.1052   -3.4351 C   0  0  2  0  0  0  0  0  0  0  0  0
    9.0232    3.8489   -4.7054 N   0  3  0  0  0  0  0  0  0  0  0  0
    9.2896    1.5870   -3.7097 C   0  0  0  0  0  0  0  0  0  0  0  0
    9.4554    0.8034   -2.3990 C   0  0  0  0  0  0  0  0  0  0  0  0
    8.7669    0.5797    0.0165 C   0  0  0  0  0  0  0  0  0  0  0  0
    7.7277    0.7068    1.0467 N   0  3  0  0  0  0  0  0  0  0  0  0
    4.3312    2.2444   -3.0179 C   0  0  1  0  0  0  0  0  0  0  0  0
    2.9672    2.3847   -2.2991 C   0  0  0  0  0  0  0  0  0  0  0  0
    2.4980    3.8644   -2.3076 C   0  0  1  0  0  0  0  0  0  0  0  0
    1.1627    3.9715   -1.6893 N   0  3  0  0  0  0  0  0  0  0  0  0
    3.5443    4.7656   -1.5901 C   0  0  1  0  0  0  0  0  0  0  0  0
    4.9590    4.5932   -2.1977 C   0  0  1  0  0  0  0  0  0  0  0  0
    5.8495    5.3216   -1.3654 O   0  0  0  0  0  0  0  0  0  0  0  0
    5.4360    3.1089   -2.3265 C   0  0  2  0  0  0  0  0  0  0  0  0
    4.7183    0.8247   -3.0953 N   0  3  0  0  0  0  0  0  0  0  0  0
    1.5727    8.6981   -2.2946 C   0  0  0  0  0  0  0  0  0  0  0  0
    2.4944    9.5877   -3.1646 C   0  0  2  0  0  0  0  0  0  0  0  0
    1.8302    9.7807   -4.4127 O   0  0  0  0  0  0  0  0  0  0  0  0
    3.8787    8.8647   -3.3705 C   0  0  1  0  0  0  0  0  0  0  0  0
    3.7257    7.3712   -3.8179 C   0  0  2  0  0  0  0  0  0  0  0  0
    2.6585    6.5907   -3.0094 C   0  0  1  0  0  0  0  0  0  0  0  0
    3.1879    6.1711   -1.7244 O   0  0  0  0  0  0  0  0  0  0  0  0
    1.4372    7.3698   -2.8666 O   0  0  0  0  0  0  0  0  0  0  0  0
    4.9655    6.6732   -3.7370 O   0  0  0  0  0  0  0  0  0  0  0  0
    4.7067    9.6285   -4.3551 N   0  3  0  0  0  0  0  0  0  0  0  0
    6.1659    9.6541   -4.1271 C   0  0  0  0  0  0  0  0  0  0  0  0
    2.6213   10.9764   -2.4911 C   0  0  0  0  0  0  0  0  0  0  0  0
  1  8  1  0  0  0  0
  1  9  1  1  0  0  0
  1  2  1  0  0  0  0
  2  3  1  0  0  0  0
  3  5  1  0  0  0  0
  3  4  1  6  0  0  0
  5  7  1  0  0  0  0
  5  6  1  6  0  0  0
  7  8  1  0  0  0  0
  9 10  1  0  0  0  0
 11 12  1  0  0  0  0
 11 18  1  0  0  0  0
 11 19  1  1  0  0  0
 12 13  1  0  0  0  0
 13 15  1  0  0  0  0
 13 14  1  1  0  0  0
 15 16  1  0  0  0  0
 15 26  1  6  0  0  0
 16 18  1  0  0  0  0
 16 17  1  1  0  0  0
 18  4  1  6  0  0  0
 20 21  1  0  0  0  0
 20 27  1  0  0  0  0
 21 31  1  1  0  0  0
 21 23  1  0  0  0  0
 21 22  1  0  0  0  0
 23 24  1  0  0  0  0
 23 29  1  6  0  0  0
 24 25  1  0  0  0  0
 24 28  1  1  0  0  0
 25 27  1  0  0  0  0
 25 26  1  1  0  0  0
 29 30  1  0  0  0  0
M  CHG  5   6   1  10   1  14   1  19   1  29   1
M  END
>  <CHROM.1>
64.05238199,54.08341355,-159.85354764,-72.87200586,40.82570889,-168.52146763
173.56638254,-39.59412814,-57.28181229,-165.11773982,-93.97181509,-63.60065265
-104.25250577,5.13101325,4.95509035,-2.60474478,-0.93844923,0.21438076,-0.34477094

>  <Name>
1byj cryst

>  <RI>
0

>  <Rbt.Current_Directory>
/home/itssahil/PROJECTS/Mol_Feturizer/New_Systems/rnas/1byj

>  <Rbt.Executable>
rbdock ($Id: //depot/dev/client3/rdock/2013.1/src/exe/rbdock.cxx#4 $)

>  <Rbt.Library>
libRbt.so (2013.1, Build901 2013/11/27)

>  <Rbt.Parameter_File>
/export/apps/rDock/src/rDock_2013.1_src/data/scripts/dock_solv.prm

>  <Rbt.Receptor>
prm/pocket_docking_4.prm

>  <SCORE>
-40.0076

>  <SCORE.INTER>
-37.1765

>  <SCORE.INTER.CONST>
1

>  <SCORE.INTER.POLAR>
-5.58801

>  <SCORE.INTER.ROT>
6

>  <SCORE.INTER.SOLV>
28.223

>  <SCORE.INTER.VDW>
-23.1653

>  <SCORE.INTER.norm>
-1.19924

>  <SCORE.INTRA>
-2.83107

>  <SCORE.INTRA.DIHEDRAL>
-3.03329

>  <SCORE.INTRA.DIHEDRAL.0>
18.4149

>  <SCORE.INTRA.POLAR>
-0.0186289

>  <SCORE.INTRA.POLAR.0>
0

>  <SCORE.INTRA.REPUL>
-0.092687

>  <SCORE.INTRA.REPUL.0>
0.092687

>  <SCORE.INTRA.SOLV>
-1.63883

>  <SCORE.INTRA.SOLV.lig_0>
-120.37

>  <SCORE.INTRA.VDW>
0.0317588

>  <SCORE.INTRA.VDW.0>
-1.75542

>  <SCORE.INTRA.norm>
-0.0913249

>  <SCORE.RESTR>
0

>  <SCORE.RESTR.CAVITY>
0

>  <SCORE.RESTR.norm>
0

>  <SCORE.SYSTEM>
0

>  <SCORE.SYSTEM.CONST>
0

>  <SCORE.SYSTEM.DIHEDRAL>
0

>  <SCORE.SYSTEM.SOLV>
0

>  <SCORE.SYSTEM.norm>
0

>  <SCORE.heavy>
31

>  <SCORE.norm>
-1.29057

>  <RMSD>
4.566

$$$$
1byj cryst
 OpenBabel11021811383D
libRbt.so/2013.1/901 2013/11/27
 31 33  0  0  0  0  0  0  0  0999 V2000
    6.1745    1.2113    0.0985 C   0  0  1  0  0  0  0  0  0  0  0  0
    6.4479    2.6490    0.0795 O   0  0  0  0  0  0  0  0  0  0  0  0
    7.7874    3.1019   -0.2801 C   0  0  2  0  0  0  0  0  0  0  0  0
    8.0784    2.8363   -1.6877 O   0  0  0  0  0  0  0  0  0  0  0  0
    8.8316    2.4094    0.6474 C   0  0  2  0  0  0  0  0  0  0  0  0
   10.2231    2.8078    0.3570 N   0  3  0  0  0  0  0  0  0  0  0  0
    8.6814    0.8687    0.5606 C   0  0  0  0  0  0  0  0  0  0  0  0
    7.2495    0.4336    0.9069 C   0  0  0  0  0  0  0  0  0  0  0  0
    4.7908    0.9626    0.7242 C   0  0  0  0  0  0  0  0  0  0  0  0
    4.4428   -0.4588    0.8498 N   0  3  0  0  0  0  0  0  0  0  0  0
    8.9755    4.1606   -3.5617 C   0  0  1  0  0  0  0  0  0  0  0  0
    8.6925    5.3027   -4.5676 C   0  0  0  0  0  0  0  0  0  0  0  0
    8.2862    6.5996   -3.8174 C   0  0  1  0  0  0  0  0  0  0  0  0
    8.0954    7.6993   -4.7823 N   0  3  0  0  0  0  0  0  0  0  0  0
    7.0106    6.3498   -2.9617 C   0  0  1  0  0  0  0  0  0  0  0  0
    7.1928    5.1472   -2.0022 C   0  0  1  0  0  0  0  0  0  0  0  0
    5.9265    4.9089   -1.4056 O   0  0  0  0  0  0  0  0  0  0  0  0
    7.7194    3.8424   -2.6860 C   0  0  2  0  0  0  0  0  0  0  0  0
    9.4593    2.9659   -4.2759 N   0  3  0  0  0  0  0  0  0  0  0  0
    5.5576   10.0577   -0.9067 C   0  0  0  0  0  0  0  0  0  0  0  0
    4.8177   10.7758   -2.0619 C   0  0  2  0  0  0  0  0  0  0  0  0
    3.4442   10.8648   -1.6854 O   0  0  0  0  0  0  0  0  0  0  0  0
    4.9839    9.9432   -3.3888 C   0  0  1  0  0  0  0  0  0  0  0  0
    4.6672    8.4211   -3.1969 C   0  0  2  0  0  0  0  0  0  0  0  0
    5.3056    7.8134   -1.9221 C   0  0  1  0  0  0  0  0  0  0  0  0
    6.7093    7.5133   -2.1394 O   0  0  0  0  0  0  0  0  0  0  0  0
    5.1069    8.6834   -0.7721 O   0  0  0  0  0  0  0  0  0  0  0  0
    5.0791    7.6564   -4.3268 O   0  0  0  0  0  0  0  0  0  0  0  0
    4.1253   10.5295   -4.4647 N   0  3  0  0  0  0  0  0  0  0  0  0
    4.6710   11.6875   -5.2017 C   0  0  0  0  0  0  0  0  0  0  0  0
    5.3591   12.2224   -2.1730 C   0  0  0  0  0  0  0  0  0  0  0  0
  1  8  1  0  0  0  0
  1  9  1  1  0  0  0
  1  2  1  0  0  0  0
  2  3  1  0  0  0  0
  3  5  1  0  0  0  0
  3  4  1  6  0  0  0
  5  7  1  0  0  0  0
  5  6  1  6  0  0  0
  7  8  1  0  0  0  0
  9 10  1  0  0  0  0
 11 12  1  0  0  0  0
 11 18  1  0  0  0  0
 11 19  1  6  0  0  0
 12 13  1  0  0  0  0
 13 15  1  0  0  0  0
 13 14  1  6  0  0  0
 15 16  1  0  0  0  0
 15 26  1  1  0  0  0
 16 18  1  0  0  0  0
 16 17  1  6  0  0  0
 18  4  1  1  0  0  0
 20 21  1  0  0  0  0
 20 27  1  0  0  0  0
 21 31  1  6  0  0  0
 21 23  1  0  0  0  0
 21 22  1  0  0  0  0
 23 24  1  0  0  0  0
 23 29  1  6  0  0  0
 24 25  1  0  0  0  0
 24 28  1  6  0  0  0
 25 27  1  0  0  0  0
 25 26  1  6  0  0  0
 29 30  1  0  0  0  0
M  CHG  5   6   1  10   1  14   1  19   1  29   1
M  END
>  <CHROM.1>
-177.27490993,88.63712346,127.58802399,-151.86169245,79.65211861,62.15706951
97.56462873,144.83334884,-161.66827344,-65.55483554,-156.36752570,-66.85291741
-74.27353795,6.55961596,5.80213897,-1.95166125,1.23597123,-0.67678007,2.59424524

>  <Name>
1byj cryst

>  <RI>
0

>  <Rbt.Current_Directory>
/home/itssahil/PROJECTS/Mol_Feturizer/New_Systems/rnas/1byj

>  <Rbt.Executable>
rbdock ($Id: //depot/dev/client3/rdock/2013.1/src/exe/rbdock.cxx#4 $)

>  <Rbt.Library>
libRbt.so (2013.1, Build901 2013/11/27)

>  <Rbt.Parameter_File>
/export/apps/rDock/src/rDock_2013.1_src/data/scripts/dock_solv.prm

>  <Rbt.Receptor>
prm/pocket_docking_8.prm

>  <SCORE>
-52.0575

>  <SCORE.INTER>
-51.0698

>  <SCORE.INTER.CONST>
1

>  <SCORE.INTER.POLAR>
-8.90703

>  <SCORE.INTER.ROT>
6

>  <SCORE.INTER.SOLV>
33.2253

>  <SCORE.INTER.VDW>
-23.0315

>  <SCORE.INTER.norm>
-1.64741

>  <SCORE.INTRA>
-1.17573

>  <SCORE.INTRA.DIHEDRAL>
5.65445

>  <SCORE.INTRA.DIHEDRAL.0>
18.4149

>  <SCORE.INTRA.POLAR>
-2.03936

>  <SCORE.INTRA.POLAR.0>
0

>  <SCORE.INTRA.REPUL>
-0.092687

>  <SCORE.INTRA.REPUL.0>
0.092687

>  <SCORE.INTRA.SOLV>
-0.797506

>  <SCORE.INTRA.SOLV.lig_0>
-120.37

>  <SCORE.INTRA.VDW>
3.79306

>  <SCORE.INTRA.VDW.0>
-1.75542

>  <SCORE.INTRA.norm>
-0.0379269

>  <SCORE.RESTR>
0.188061

>  <SCORE.RESTR.CAVITY>
0.188061

>  <SCORE.RESTR.norm>
0.00606647

>  <SCORE.SYSTEM>
0

>  <SCORE.SYSTEM.CONST>
0

>  <SCORE.SYSTEM.DIHEDRAL>
0

>  <SCORE.SYSTEM.SOLV>
0

>  <SCORE.SYSTEM.norm>
0

>  <SCORE.heavy>
31

>  <SCORE.norm>
-1.67927

>  <RMSD>
4.637

$$$$
1byj cryst
 OpenBabel11021811383D
libRbt.so/2013.1/901 2013/11/27
 31 33  0  0  0  0  0  0  0  0999 V2000
    8.6935    1.2465   -0.5955 C   0  0  1  0  0  0  0  0  0  0  0  0
    8.4911    2.6014   -1.1106 O   0  0  0  0  0  0  0  0  0  0  0  0
    8.3033    2.7836   -2.5459 C   0  0  2  0  0  0  0  0  0  0  0  0
    7.0298    2.2208   -2.9911 O   0  0  0  0  0  0  0  0  0  0  0  0
    9.4986    2.1352   -3.3083 C   0  0  2  0  0  0  0  0  0  0  0  0
    9.3958    2.2699   -4.7747 N   0  3  0  0  0  0  0  0  0  0  0  0
    9.6362    0.6427   -2.9111 C   0  0  0  0  0  0  0  0  0  0  0  0
    9.7921    0.4885   -1.3908 C   0  0  0  0  0  0  0  0  0  0  0  0
    9.0991    1.3187    0.8872 C   0  0  0  0  0  0  0  0  0  0  0  0
    7.9737    1.1663    1.8186 N   0  3  0  0  0  0  0  0  0  0  0  0
    4.6062    1.7996   -2.8536 C   0  0  1  0  0  0  0  0  0  0  0  0
    3.2471    2.3262   -2.3318 C   0  0  0  0  0  0  0  0  0  0  0  0
    2.9893    3.7681   -2.8458 C   0  0  1  0  0  0  0  0  0  0  0  0
    1.6580    4.2276   -2.4061 N   0  3  0  0  0  0  0  0  0  0  0  0
    4.1210    4.7219   -2.3652 C   0  0  1  0  0  0  0  0  0  0  0  0
    5.5213    4.1952   -2.7675 C   0  0  1  0  0  0  0  0  0  0  0  0
    6.4701    5.0426   -2.1368 O   0  0  0  0  0  0  0  0  0  0  0  0
    5.7918    2.7036   -2.3812 C   0  0  2  0  0  0  0  0  0  0  0  0
    4.7946    0.3960   -2.4466 N   0  3  0  0  0  0  0  0  0  0  0  0
    4.6004    7.4702   -0.3430 C   0  0  0  0  0  0  0  0  0  0  0  0
    4.7656    8.9634   -0.7184 C   0  0  2  0  0  0  0  0  0  0  0  0
    3.7633    9.6859   -0.0047 O   0  0  0  0  0  0  0  0  0  0  0  0
    4.5831    9.1364   -2.2734 C   0  0  1  0  0  0  0  0  0  0  0  0
    3.3039    8.4167   -2.8207 C   0  0  2  0  0  0  0  0  0  0  0  0
    3.1164    6.9825   -2.2641 C   0  0  1  0  0  0  0  0  0  0  0  0
    3.9695    6.0401   -2.9652 O   0  0  0  0  0  0  0  0  0  0  0  0
    3.3340    6.9474   -0.8253 O   0  0  0  0  0  0  0  0  0  0  0  0
    3.3063    8.3608   -4.2448 O   0  0  0  0  0  0  0  0  0  0  0  0
    4.5599   10.5913   -2.6212 N   0  3  0  0  0  0  0  0  0  0  0  0
    5.8543   11.2236   -2.9480 C   0  0  0  0  0  0  0  0  0  0  0  0
    6.1412    9.4540   -0.2033 C   0  0  0  0  0  0  0  0  0  0  0  0
  1  8  1  0  0  0  0
  1  9  1  1  0  0  0
  1  2  1  0  0  0  0
  2  3  1  0  0  0  0
  3  5  1  0  0  0  0
  3  4  1  6  0  0  0
  5  7  1  0  0  0  0
  5  6  1  6  0  0  0
  7  8  1  0  0  0  0
  9 10  1  0  0  0  0
 11 12  1  0  0  0  0
 11 18  1  0  0  0  0
 11 19  1  1  0  0  0
 12 13  1  0  0  0  0
 13 15  1  0  0  0  0
 13 14  1  1  0  0  0
 15 16  1  0  0  0  0
 15 26  1  6  0  0  0
 16 18  1  0  0  0  0
 16 17  1  1  0  0  0
 18  4  1  6  0  0  0
 20 21  1  0  0  0  0
 20 27  1  0  0  0  0
 21 31  1  1  0  0  0
 21 23  1  0  0  0  0
 21 22  1  0  0  0  0
 23 24  1  0  0  0  0
 23 29  1  1  0  0  0
 24 25  1  0  0  0  0
 24 28  1  6  0  0  0
 25 27  1  0  0  0  0
 25 26  1  6  0  0  0
 29 30  1  0  0  0  0
M  CHG  5   6   1  10   1  14   1  19   1  29   1
M  END
>  <CHROM.1>
95.25787182,57.67700821,-171.09097169,-3.83191696,-36.56125430,-128.57465023
-53.27597209,87.35805130,62.26417794,-60.46408584,-148.21831370,-173.98094214
166.90612614,5.73176135,4.83421346,-1.98528535,-1.05129463,-0.26327820,0.11887463

>  <Name>
1byj cryst

>  <RI>
0

>  <Rbt.Current_Directory>
/home/itssahil/PROJECTS/Mol_Feturizer/New_Systems/rnas/1byj

>  <Rbt.Executable>
rbdock ($Id: //depot/dev/client3/rdock/2013.1/src/exe/rbdock.cxx#4 $)

>  <Rbt.Library>
libRbt.so (2013.1, Build901 2013/11/27)

>  <Rbt.Parameter_File>
/export/apps/rDock/src/rDock_2013.1_src/data/scripts/dock_solv.prm

>  <Rbt.Receptor>
prm/pocket_docking_5.prm

>  <SCORE>
-38.2134

>  <SCORE.INTER>
-35.8506

>  <SCORE.INTER.CONST>
1

>  <SCORE.INTER.POLAR>
-5.66167

>  <SCORE.INTER.ROT>
6

>  <SCORE.INTER.SOLV>
23.7599

>  <SCORE.INTER.VDW>
-20.5482

>  <SCORE.INTER.norm>
-1.15647

>  <SCORE.INTRA>
-2.36274

>  <SCORE.INTRA.DIHEDRAL>
-0.153994

>  <SCORE.INTRA.DIHEDRAL.0>
18.4149

>  <SCORE.INTRA.POLAR>
-0.0117786

>  <SCORE.INTRA.POLAR.0>
0

>  <SCORE.INTRA.REPUL>
-0.092687

>  <SCORE.INTRA.REPUL.0>
0.092687

>  <SCORE.INTRA.SOLV>
-3.89438

>  <SCORE.INTRA.SOLV.lig_0>
-120.37

>  <SCORE.INTRA.VDW>
0.16493

>  <SCORE.INTRA.VDW.0>
-1.75542

>  <SCORE.INTRA.norm>
-0.0762174

>  <SCORE.RESTR>
0

>  <SCORE.RESTR.CAVITY>
0

>  <SCORE.RESTR.norm>
0

>  <SCORE.SYSTEM>
0

>  <SCORE.SYSTEM.CONST>
0

>  <SCORE.SYSTEM.DIHEDRAL>
0

>  <SCORE.SYSTEM.SOLV>
0

>  <SCORE.SYSTEM.norm>
0

>  <SCORE.heavy>
31

>  <SCORE.norm>
-1.23269

>  <RMSD>
4.668

$$$$
1byj cryst
 OpenBabel11021811383D
libRbt.so/2013.1/901 2013/11/27
 31 33  0  0  0  0  0  0  0  0999 V2000
    4.1008    2.1190   -0.4273 C   0  0  1  0  0  0  0  0  0  0  0  0
    5.2674    2.9988   -0.3433 O   0  0  0  0  0  0  0  0  0  0  0  0
    6.5963    2.3975   -0.3093 C   0  0  2  0  0  0  0  0  0  0  0  0
    6.9274    1.7672   -1.5860 O   0  0  0  0  0  0  0  0  0  0  0  0
    6.6657    1.3667    0.8582 C   0  0  2  0  0  0  0  0  0  0  0  0
    7.9794    0.7033    0.9719 N   0  3  0  0  0  0  0  0  0  0  0  0
    5.5394    0.3122    0.7045 C   0  0  0  0  0  0  0  0  0  0  0  0
    4.1602    0.9845    0.6326 C   0  0  0  0  0  0  0  0  0  0  0  0
    2.8207    2.9460   -0.2142 C   0  0  0  0  0  0  0  0  0  0  0  0
    2.8056    3.7031    1.0444 N   0  3  0  0  0  0  0  0  0  0  0  0
    8.8609    2.5865   -2.8746 C   0  0  1  0  0  0  0  0  0  0  0  0
    9.3364    3.5541   -3.9855 C   0  0  0  0  0  0  0  0  0  0  0  0
    8.9111    5.0104   -3.6565 C   0  0  1  0  0  0  0  0  0  0  0  0
    9.4372    5.9312   -4.6823 N   0  3  0  0  0  0  0  0  0  0  0  0
    7.3629    5.1043   -3.5309 C   0  0  1  0  0  0  0  0  0  0  0  0
    6.8101    4.0836   -2.5048 C   0  0  1  0  0  0  0  0  0  0  0  0
    5.3945    4.1399   -2.5990 O   0  0  0  0  0  0  0  0  0  0  0  0
    7.3052    2.6147   -2.7159 C   0  0  2  0  0  0  0  0  0  0  0  0
    9.3572    1.2253   -3.1432 N   0  3  0  0  0  0  0  0  0  0  0  0
    3.9785    6.7421   -3.6250 C   0  0  0  0  0  0  0  0  0  0  0  0
    3.6216    8.1733   -3.1539 C   0  0  2  0  0  0  0  0  0  0  0  0
    3.1454    8.8818   -4.2973 O   0  0  0  0  0  0  0  0  0  0  0  0
    4.9057    8.8650   -2.5588 C   0  0  1  0  0  0  0  0  0  0  0  0
    6.1581    8.7289   -3.4898 C   0  0  2  0  0  0  0  0  0  0  0  0
    6.3511    7.3010   -4.0606 C   0  0  1  0  0  0  0  0  0  0  0  0
    6.9652    6.4290   -3.0755 O   0  0  0  0  0  0  0  0  0  0  0  0
    5.0933    6.7614   -4.5561 O   0  0  0  0  0  0  0  0  0  0  0  0
    7.3523    9.1210   -2.8179 O   0  0  0  0  0  0  0  0  0  0  0  0
    4.6169   10.3042   -2.2694 N   0  3  0  0  0  0  0  0  0  0  0  0
    5.6419   11.0558   -1.5169 C   0  0  0  0  0  0  0  0  0  0  0  0
    2.4492    8.0847   -2.1461 C   0  0  0  0  0  0  0  0  0  0  0  0
  1  8  1  0  0  0  0
  1  9  1  1  0  0  0
  1  2  1  0  0  0  0
  2  3  1  0  0  0  0
  3  5  1  0  0  0  0
  3  4  1  6  0  0  0
  5  7  1  0  0  0  0
  5  6  1  6  0  0  0
  7  8  1  0  0  0  0
  9 10  1  0  0  0  0
 11 12  1  0  0  0  0
 11 18  1  0  0  0  0
 11 19  1  6  0  0  0
 12 13  1  0  0  0  0
 13 15  1  0  0  0  0
 13 14  1  6  0  0  0
 15 16  1  0  0  0  0
 15 26  1  1  0  0  0
 16 18  1  0  0  0  0
 16 17  1  6  0  0  0
 18  4  1  1  0  0  0
 20 21  1  0  0  0  0
 20 27  1  0  0  0  0
 21 31  1  1  0  0  0
 21 23  1  0  0  0  0
 21 22  1  0  0  0  0
 23 24  1  0  0  0  0
 23 29  1  6  0  0  0
 24 25  1  0  0  0  0
 24 28  1  1  0  0  0
 25 27  1  0  0  0  0
 25 26  1  1  0  0  0
 29 30  1  0  0  0  0
M  CHG  5   6   1  10   1  14   1  19   1  29   1
M  END
>  <CHROM.1>
-55.79171213,75.99617238,101.46516629,-178.56032052,-62.30000749,64.73865947
175.87306674,106.96883192,-159.33045851,-48.15862504,-67.98612168,-167.86447690
-172.35193711,6.00302170,4.99113041,-2.12786476,1.35854720,-0.50471156,2.69167179

>  <Name>
1byj cryst

>  <RI>
0

>  <Rbt.Current_Directory>
/home/itssahil/PROJECTS/Mol_Feturizer/New_Systems/rnas/1byj

>  <Rbt.Executable>
rbdock ($Id: //depot/dev/client3/rdock/2013.1/src/exe/rbdock.cxx#4 $)

>  <Rbt.Library>
libRbt.so (2013.1, Build901 2013/11/27)

>  <Rbt.Parameter_File>
/export/apps/rDock/src/rDock_2013.1_src/data/scripts/dock_solv.prm

>  <Rbt.Receptor>
prm/pocket_docking_4.prm

>  <SCORE>
-25.3159

>  <SCORE.INTER>
-21.4501

>  <SCORE.INTER.CONST>
1

>  <SCORE.INTER.POLAR>
-3.27619

>  <SCORE.INTER.ROT>
6

>  <SCORE.INTER.SOLV>
23.0551

>  <SCORE.INTER.VDW>
-18.6645

>  <SCORE.INTER.norm>
-0.691939

>  <SCORE.INTRA>
-3.86575

>  <SCORE.INTRA.DIHEDRAL>
-0.818187

>  <SCORE.INTRA.DIHEDRAL.0>
18.4149

>  <SCORE.INTRA.POLAR>
-0.872687

>  <SCORE.INTRA.POLAR.0>
0

>  <SCORE.INTRA.REPUL>
-0.092687

>  <SCORE.INTRA.REPUL.0>
0.092687

>  <SCORE.INTRA.SOLV>
-1.1284

>  <SCORE.INTRA.SOLV.lig_0>
-120.37

>  <SCORE.INTRA.VDW>
0.538117

>  <SCORE.INTRA.VDW.0>
-1.75542

>  <SCORE.INTRA.norm>
-0.124702

>  <SCORE.RESTR>
0

>  <SCORE.RESTR.CAVITY>
0

>  <SCORE.RESTR.norm>
0

>  <SCORE.SYSTEM>
0

>  <SCORE.SYSTEM.CONST>
0

>  <SCORE.SYSTEM.DIHEDRAL>
0

>  <SCORE.SYSTEM.SOLV>
0

>  <SCORE.SYSTEM.norm>
0

>  <SCORE.heavy>
31

>  <SCORE.norm>
-0.816641

>  <RMSD>
4.714

$$$$
1byj cryst
 OpenBabel11021811383D
libRbt.so/2013.1/901 2013/11/27
 31 33  0  0  0  0  0  0  0  0999 V2000
    7.2532    4.4294    0.0199 C   0  0  1  0  0  0  0  0  0  0  0  0
    6.1621    4.6877    0.9605 O   0  0  0  0  0  0  0  0  0  0  0  0
    6.4877    4.9161    2.3643 C   0  0  2  0  0  0  0  0  0  0  0  0
    7.1969    6.1812    2.5465 O   0  0  0  0  0  0  0  0  0  0  0  0
    7.3322    3.7195    2.8985 C   0  0  2  0  0  0  0  0  0  0  0  0
    7.7112    3.8621    4.3181 N   0  3  0  0  0  0  0  0  0  0  0  0
    8.5943    3.5243    2.0193 C   0  0  0  0  0  0  0  0  0  0  0  0
    8.2139    3.3267    0.5442 C   0  0  0  0  0  0  0  0  0  0  0  0
    6.6676    3.9905   -1.3338 C   0  0  0  0  0  0  0  0  0  0  0  0
    7.5349    4.2895   -2.4809 N   0  3  0  0  0  0  0  0  0  0  0  0
    6.3242    7.8447    4.1407 C   0  0  1  0  0  0  0  0  0  0  0  0
    5.4207    9.0890    4.3198 C   0  0  0  0  0  0  0  0  0  0  0  0
    3.9855    8.7972    3.8053 C   0  0  1  0  0  0  0  0  0  0  0  0
    3.1163    9.9634    4.0531 N   0  3  0  0  0  0  0  0  0  0  0  0
    4.0217    8.4095    2.2986 C   0  0  1  0  0  0  0  0  0  0  0  0
    4.9923    7.2311    2.0352 C   0  0  1  0  0  0  0  0  0  0  0  0
    5.0734    7.0796    0.6257 O   0  0  0  0  0  0  0  0  0  0  0  0
    6.4232    7.4184    2.6392 C   0  0  2  0  0  0  0  0  0  0  0  0
    7.6533    8.0965    4.7251 N   0  3  0  0  0  0  0  0  0  0  0  0
    2.2994    9.4055   -0.8280 C   0  0  0  0  0  0  0  0  0  0  0  0
    0.9051    8.9530   -1.3267 C   0  0  2  0  0  0  0  0  0  0  0  0
    0.0998   10.1261   -1.4335 O   0  0  0  0  0  0  0  0  0  0  0  0
    0.2838    7.9368   -0.2958 C   0  0  1  0  0  0  0  0  0  0  0  0
    0.3648    8.4439    1.1842 C   0  0  2  0  0  0  0  0  0  0  0  0
    1.7453    9.0411    1.5577 C   0  0  1  0  0  0  0  0  0  0  0  0
    2.7030    7.9889    1.8460 O   0  0  0  0  0  0  0  0  0  0  0  0
    2.2233    9.9425    0.5195 O   0  0  0  0  0  0  0  0  0  0  0  0
    0.0469    7.4069    2.1087 O   0  0  0  0  0  0  0  0  0  0  0  0
   -1.1319    7.6349   -0.6736 N   0  3  0  0  0  0  0  0  0  0  0  0
   -1.3643    6.4302   -1.4963 C   0  0  0  0  0  0  0  0  0  0  0  0
    1.0554    8.3667   -2.7520 C   0  0  0  0  0  0  0  0  0  0  0  0
  1  8  1  0  0  0  0
  1  9  1  6  0  0  0
  1  2  1  0  0  0  0
  2  3  1  0  0  0  0
  3  5  1  0  0  0  0
  3  4  1  6  0  0  0
  5  7  1  0  0  0  0
  5  6  1  1  0  0  0
  7  8  1  0  0  0  0
  9 10  1  0  0  0  0
 11 12  1  0  0  0  0
 11 18  1  0  0  0  0
 11 19  1  6  0  0  0
 12 13  1  0  0  0  0
 13 15  1  0  0  0  0
 13 14  1  6  0  0  0
 15 16  1  0  0  0  0
 15 26  1  1  0  0  0
 16 18  1  0  0  0  0
 16 17  1  6  0  0  0
 18  4  1  1  0  0  0
 20 21  1  0  0  0  0
 20 27  1  0  0  0  0
 21 31  1  6  0  0  0
 21 23  1  0  0  0  0
 21 22  1  0  0  0  0
 23 24  1  0  0  0  0
 23 29  1  6  0  0  0
 24 25  1  0  0  0  0
 24 28  1  1  0  0  0
 25 27  1  0  0  0  0
 25 26  1  6  0  0  0
 29 30  1  0  0  0  0
M  CHG  5   6   1  10   1  14   1  19   1  29   1
M  END
>  <CHROM.1>
153.48186307,82.92266103,101.68888908,53.46782141,154.57368748,70.96689506
72.51983971,78.83316569,-166.74100693,171.92255990,-144.12789657,-65.16098520
-176.05477669,4.15702021,7.05728706,1.24879258,0.01158278,0.55285815,-2.15628121

>  <Name>
1byj cryst

>  <RI>
0

>  <Rbt.Current_Directory>
/home/itssahil/PROJECTS/Mol_Feturizer/New_Systems/rnas/1byj

>  <Rbt.Executable>
rbdock ($Id: //depot/dev/client3/rdock/2013.1/src/exe/rbdock.cxx#4 $)

>  <Rbt.Library>
libRbt.so (2013.1, Build901 2013/11/27)

>  <Rbt.Parameter_File>
/export/apps/rDock/src/rDock_2013.1_src/data/scripts/dock_solv.prm

>  <Rbt.Receptor>
prm/pocket_docking_7.prm

>  <SCORE>
-33.6672

>  <SCORE.INTER>
-29.9585

>  <SCORE.INTER.CONST>
1

>  <SCORE.INTER.POLAR>
-5.49718

>  <SCORE.INTER.ROT>
6

>  <SCORE.INTER.SOLV>
11.1941

>  <SCORE.INTER.VDW>
-12.9797

>  <SCORE.INTER.norm>
-0.966403

>  <SCORE.INTRA>
-3.70872

>  <SCORE.INTRA.DIHEDRAL>
-0.669788

>  <SCORE.INTRA.DIHEDRAL.0>
18.4149

>  <SCORE.INTRA.POLAR>
-0.94409

>  <SCORE.INTRA.POLAR.0>
0

>  <SCORE.INTRA.REPUL>
-0.092687

>  <SCORE.INTRA.REPUL.0>
0.092687

>  <SCORE.INTRA.SOLV>
-1.57807

>  <SCORE.INTRA.SOLV.lig_0>
-120.37

>  <SCORE.INTRA.VDW>
1.08855

>  <SCORE.INTRA.VDW.0>
-1.75542

>  <SCORE.INTRA.norm>
-0.119636

>  <SCORE.RESTR>
0

>  <SCORE.RESTR.CAVITY>
0

>  <SCORE.RESTR.norm>
0

>  <SCORE.SYSTEM>
0

>  <SCORE.SYSTEM.CONST>
0

>  <SCORE.SYSTEM.DIHEDRAL>
0

>  <SCORE.SYSTEM.SOLV>
0

>  <SCORE.SYSTEM.norm>
0

>  <SCORE.heavy>
31

>  <SCORE.norm>
-1.08604

>  <RMSD>
4.716

$$$$
1byj cryst
 OpenBabel11021811383D
libRbt.so/2013.1/901 2013/11/27
 31 33  0  0  0  0  0  0  0  0999 V2000
    5.4989    1.2878   -0.4062 C   0  0  1  0  0  0  0  0  0  0  0  0
    5.7686    2.6991   -0.1276 O   0  0  0  0  0  0  0  0  0  0  0  0
    7.0318    3.0578    0.5081 C   0  0  2  0  0  0  0  0  0  0  0  0
    8.1631    2.8232   -0.3874 O   0  0  0  0  0  0  0  0  0  0  0  0
    7.1898    2.2505    1.8324 C   0  0  2  0  0  0  0  0  0  0  0  0
    8.4451    2.5482    2.5496 N   0  3  0  0  0  0  0  0  0  0  0  0
    7.0788    0.7308    1.5454 C   0  0  0  0  0  0  0  0  0  0  0  0
    5.7550    0.3976    0.8411 C   0  0  0  0  0  0  0  0  0  0  0  0
    4.0353    1.1259   -0.8533 C   0  0  0  0  0  0  0  0  0  0  0  0
    3.6564   -0.2609   -1.1544 N   0  3  0  0  0  0  0  0  0  0  0  0
    9.3176    2.6863   -2.5597 C   0  0  1  0  0  0  0  0  0  0  0  0
    9.2437    3.0282   -4.0677 C   0  0  0  0  0  0  0  0  0  0  0  0
    8.9989    4.5478   -4.2692 C   0  0  1  0  0  0  0  0  0  0  0  0
    9.0085    4.8716   -5.7086 N   0  3  0  0  0  0  0  0  0  0  0  0
    7.6669    4.9741   -3.5868 C   0  0  1  0  0  0  0  0  0  0  0  0
    7.6342    4.5657   -2.0927 C   0  0  1  0  0  0  0  0  0  0  0  0
    6.3237    4.8464   -1.6239 O   0  0  0  0  0  0  0  0  0  0  0  0
    7.9941    3.0680   -1.8190 C   0  0  2  0  0  0  0  0  0  0  0  0
    9.6522    1.2625   -2.3798 N   0  3  0  0  0  0  0  0  0  0  0  0
    4.4752    6.6048   -3.3028 C   0  0  0  0  0  0  0  0  0  0  0  0
    4.1616    8.1192   -3.2261 C   0  0  2  0  0  0  0  0  0  0  0  0
    3.3072    8.4242   -4.3275 O   0  0  0  0  0  0  0  0  0  0  0  0
    5.5046    8.9379   -3.3131 C   0  0  1  0  0  0  0  0  0  0  0  0
    6.4253    8.4749   -4.4930 C   0  0  2  0  0  0  0  0  0  0  0  0
    6.5528    6.9347   -4.6089 C   0  0  1  0  0  0  0  0  0  0  0  0
    7.5038    6.4202   -3.6401 O   0  0  0  0  0  0  0  0  0  0  0  0
    5.2524    6.2918   -4.4894 O   0  0  0  0  0  0  0  0  0  0  0  0
    7.7303    9.0379   -4.3877 O   0  0  0  0  0  0  0  0  0  0  0  0
    5.2004   10.3986   -3.4228 N   0  3  0  0  0  0  0  0  0  0  0  0
    4.6269   10.8702   -4.6998 C   0  0  0  0  0  0  0  0  0  0  0  0
    3.3584    8.3934   -1.9308 C   0  0  0  0  0  0  0  0  0  0  0  0
  1  8  1  0  0  0  0
  1  9  1  1  0  0  0
  1  2  1  0  0  0  0
  2  3  1  0  0  0  0
  3  5  1  0  0  0  0
  3  4  1  6  0  0  0
  5  7  1  0  0  0  0
  5  6  1  6  0  0  0
  7  8  1  0  0  0  0
  9 10  1  0  0  0  0
 11 12  1  0  0  0  0
 11 18  1  0  0  0  0
 11 19  1  6  0  0  0
 12 13  1  0  0  0  0
 13 15  1  0  0  0  0
 13 14  1  6  0  0  0
 15 16  1  0  0  0  0
 15 26  1  1  0  0  0
 16 18  1  0  0  0  0
 16 17  1  6  0  0  0
 18  4  1  1  0  0  0
 20 21  1  0  0  0  0
 20 27  1  0  0  0  0
 21 31  1  1  0  0  0
 21 23  1  0  0  0  0
 21 22  1  0  0  0  0
 23 24  1  0  0  0  0
 23 29  1  6  0  0  0
 24 25  1  0  0  0  0
 24 28  1  1  0  0  0
 25 27  1  0  0  0  0
 25 26  1  1  0  0  0
 29 30  1  0  0  0  0
M  CHG  5   6   1  10   1  14   1  19   1  29   1
M  END
>  <CHROM.1>
-179.77067455,35.80266260,-177.57686381,28.06982423,85.30056447,178.79919352
-46.97224327,104.32484120,65.33671278,54.97648520,49.91660642,-161.46750141
176.65344219,6.52844640,4.82689759,-2.25977420,1.37199488,-0.47068903,2.53312543

>  <Name>
1byj cryst

>  <RI>
0

>  <Rbt.Current_Directory>
/home/itssahil/PROJECTS/Mol_Feturizer/New_Systems/rnas/1byj

>  <Rbt.Executable>
rbdock ($Id: //depot/dev/client3/rdock/2013.1/src/exe/rbdock.cxx#4 $)

>  <Rbt.Library>
libRbt.so (2013.1, Build901 2013/11/27)

>  <Rbt.Parameter_File>
/export/apps/rDock/src/rDock_2013.1_src/data/scripts/dock_solv.prm

>  <Rbt.Receptor>
prm/pocket_docking_8.prm

>  <SCORE>
-34.8243

>  <SCORE.INTER>
-30.97

>  <SCORE.INTER.CONST>
1

>  <SCORE.INTER.POLAR>
-5.22751

>  <SCORE.INTER.ROT>
6

>  <SCORE.INTER.SOLV>
25.3719

>  <SCORE.INTER.VDW>
-19.279

>  <SCORE.INTER.norm>
-0.999033

>  <SCORE.INTRA>
-3.85427

>  <SCORE.INTRA.DIHEDRAL>
-3.59381

>  <SCORE.INTRA.DIHEDRAL.0>
18.4149

>  <SCORE.INTRA.POLAR>
0

>  <SCORE.INTRA.POLAR.0>
0

>  <SCORE.INTRA.REPUL>
-0.092687

>  <SCORE.INTRA.REPUL.0>
0.092687

>  <SCORE.INTRA.SOLV>
-5.07386

>  <SCORE.INTRA.SOLV.lig_0>
-120.37

>  <SCORE.INTRA.VDW>
0.943

>  <SCORE.INTRA.VDW.0>
-1.75542

>  <SCORE.INTRA.norm>
-0.124331

>  <SCORE.RESTR>
0

>  <SCORE.RESTR.CAVITY>
0

>  <SCORE.RESTR.norm>
0

>  <SCORE.SYSTEM>
0

>  <SCORE.SYSTEM.CONST>
0

>  <SCORE.SYSTEM.DIHEDRAL>
0

>  <SCORE.SYSTEM.SOLV>
0

>  <SCORE.SYSTEM.norm>
0

>  <SCORE.heavy>
31

>  <SCORE.norm>
-1.12336

>  <RMSD>
4.718

$$$$
1byj cryst
 OpenBabel11021811383D
libRbt.so/2013.1/901 2013/11/27
 31 33  0  0  0  0  0  0  0  0999 V2000
    6.5580    6.5577   -1.5240 C   0  0  1  0  0  0  0  0  0  0  0  0
    7.4899    7.3345   -2.3428 O   0  0  0  0  0  0  0  0  0  0  0  0
    7.6308    6.9955   -3.7548 C   0  0  2  0  0  0  0  0  0  0  0  0
    6.4148    7.3124   -4.5015 O   0  0  0  0  0  0  0  0  0  0  0  0
    7.9916    5.4847   -3.8885 C   0  0  2  0  0  0  0  0  0  0  0  0
    8.1551    5.0467   -5.2886 N   0  3  0  0  0  0  0  0  0  0  0  0
    6.9245    4.6175   -3.1721 C   0  0  0  0  0  0  0  0  0  0  0  0
    6.7762    5.0295   -1.6998 C   0  0  0  0  0  0  0  0  0  0  0  0
    6.7466    6.9301   -0.0428 C   0  0  0  0  0  0  0  0  0  0  0  0
    5.8284    6.2319    0.8664 N   0  3  0  0  0  0  0  0  0  0  0  0
    7.2252    9.6334   -4.6650 C   0  0  1  0  0  0  0  0  0  0  0  0
    6.8278   11.1291   -4.6296 C   0  0  0  0  0  0  0  0  0  0  0  0
    6.0775   11.4611   -3.3117 C   0  0  1  0  0  0  0  0  0  0  0  0
    5.7739   12.9039   -3.2564 N   0  3  0  0  0  0  0  0  0  0  0  0
    4.7924   10.5920   -3.1897 C   0  0  1  0  0  0  0  0  0  0  0  0
    5.1098    9.0814   -3.3219 C   0  0  1  0  0  0  0  0  0  0  0  0
    3.8611    8.4070   -3.3675 O   0  0  0  0  0  0  0  0  0  0  0  0
    5.9709    8.7037   -4.5722 C   0  0  2  0  0  0  0  0  0  0  0  0
    8.0253    9.3511   -5.8698 N   0  3  0  0  0  0  0  0  0  0  0  0
    2.3029    8.7576   -0.5713 C   0  0  0  0  0  0  0  0  0  0  0  0
    1.6520    9.5083    0.6163 C   0  0  2  0  0  0  0  0  0  0  0  0
    0.2451    9.5241    0.3787 O   0  0  0  0  0  0  0  0  0  0  0  0
    2.2262   10.9733    0.6887 C   0  0  1  0  0  0  0  0  0  0  0  0
    2.2041   11.7057   -0.6959 C   0  0  2  0  0  0  0  0  0  0  0  0
    2.7127   10.8274   -1.8672 C   0  0  1  0  0  0  0  0  0  0  0  0
    4.1637   10.7865   -1.8907 O   0  0  0  0  0  0  0  0  0  0  0  0
    2.1316    9.4940   -1.8117 O   0  0  0  0  0  0  0  0  0  0  0  0
    2.9645   12.9105   -0.6606 O   0  0  0  0  0  0  0  0  0  0  0  0
    1.4744   11.7612    1.7146 N   0  3  0  0  0  0  0  0  0  0  0  0
    2.1129   12.9969    2.2116 C   0  0  0  0  0  0  0  0  0  0  0  0
    1.8911    8.6906    1.9095 C   0  0  0  0  0  0  0  0  0  0  0  0
  1  8  1  0  0  0  0
  1  9  1  1  0  0  0
  1  2  1  0  0  0  0
  2  3  1  0  0  0  0
  3  5  1  0  0  0  0
  3  4  1  6  0  0  0
  5  7  1  0  0  0  0
  5  6  1  6  0  0  0
  7  8  1  0  0  0  0
  9 10  1  0  0  0  0
 11 12  1  0  0  0  0
 11 18  1  0  0  0  0
 11 19  1  6  0  0  0
 12 13  1  0  0  0  0
 13 15  1  0  0  0  0
 13 14  1  6  0  0  0
 15 16  1  0  0  0  0
 15 26  1  1  0  0  0
 16 18  1  0  0  0  0
 16 17  1  6  0  0  0
 18  4  1  1  0  0  0
 20 21  1  0  0  0  0
 20 27  1  0  0  0  0
 21 31  1  1  0  0  0
 21 23  1  0  0  0  0
 21 22  1  0  0  0  0
 23 24  1  0  0  0  0
 23 29  1  1  0  0  0
 24 25  1  0  0  0  0
 24 28  1  1  0  0  0
 25 27  1  0  0  0  0
 25 26  1  1  0  0  0
 29 30  1  0  0  0  0
M  CHG  5   6   1  10   1  14   1  19   1  29   1
M  END
>  <CHROM.1>
178.34373688,62.26320393,36.53544601,177.91975795,69.22923790,-178.16376481
-53.43336337,141.32024194,62.43639150,-63.32405739,-76.89276357,-79.93208823
-151.20087706,4.82703200,9.07183485,-1.98074186,0.22576099,-0.82318550,2.67552502

>  <Name>
1byj cryst

>  <RI>
0

>  <Rbt.Current_Directory>
/home/itssahil/PROJECTS/Mol_Feturizer/New_Systems/rnas/1byj

>  <Rbt.Executable>
rbdock ($Id: //depot/dev/client3/rdock/2013.1/src/exe/rbdock.cxx#4 $)

>  <Rbt.Library>
libRbt.so (2013.1, Build901 2013/11/27)

>  <Rbt.Parameter_File>
/export/apps/rDock/src/rDock_2013.1_src/data/scripts/dock_solv.prm

>  <Rbt.Receptor>
prm/pocket_docking_7.prm

>  <SCORE>
-36.1555

>  <SCORE.INTER>
-32.0534

>  <SCORE.INTER.CONST>
1

>  <SCORE.INTER.POLAR>
-5.32867

>  <SCORE.INTER.ROT>
6

>  <SCORE.INTER.SOLV>
24.7599

>  <SCORE.INTER.VDW>
-19.46

>  <SCORE.INTER.norm>
-1.03398

>  <SCORE.INTRA>
-4.10205

>  <SCORE.INTRA.DIHEDRAL>
-4.23582

>  <SCORE.INTRA.DIHEDRAL.0>
18.4149

>  <SCORE.INTRA.POLAR>
0

>  <SCORE.INTRA.POLAR.0>
0

>  <SCORE.INTRA.REPUL>
-0.092687

>  <SCORE.INTRA.REPUL.0>
0.092687

>  <SCORE.INTRA.SOLV>
-1.40776

>  <SCORE.INTRA.SOLV.lig_0>
-120.37

>  <SCORE.INTRA.VDW>
-0.816818

>  <SCORE.INTRA.VDW.0>
-1.75542

>  <SCORE.INTRA.norm>
-0.132324

>  <SCORE.RESTR>
0

>  <SCORE.RESTR.CAVITY>
0

>  <SCORE.RESTR.norm>
0

>  <SCORE.SYSTEM>
0

>  <SCORE.SYSTEM.CONST>
0

>  <SCORE.SYSTEM.DIHEDRAL>
0

>  <SCORE.SYSTEM.SOLV>
0

>  <SCORE.SYSTEM.norm>
0

>  <SCORE.heavy>
31

>  <SCORE.norm>
-1.16631

>  <RMSD>
4.733

$$$$
1byj cryst
 OpenBabel11021811383D
libRbt.so/2013.1/901 2013/11/27
 31 33  0  0  0  0  0  0  0  0999 V2000
    5.2818    3.4285    2.0705 C   0  0  1  0  0  0  0  0  0  0  0  0
    6.1448    4.2821    1.2528 O   0  0  0  0  0  0  0  0  0  0  0  0
    7.4215    3.7484    0.7904 C   0  0  2  0  0  0  0  0  0  0  0  0
    7.2279    2.6819   -0.1903 O   0  0  0  0  0  0  0  0  0  0  0  0
    8.2413    3.2401    2.0151 C   0  0  2  0  0  0  0  0  0  0  0  0
    9.5553    2.6792    1.6440 N   0  3  0  0  0  0  0  0  0  0  0  0
    7.4152    2.1987    2.8132 C   0  0  0  0  0  0  0  0  0  0  0  0
    6.0630    2.7833    3.2484 C   0  0  0  0  0  0  0  0  0  0  0  0
    4.1185    4.2654    2.6311 C   0  0  0  0  0  0  0  0  0  0  0  0
    4.5460    5.4919    3.3168 N   0  3  0  0  0  0  0  0  0  0  0  0
    8.4617    2.5708   -2.3200 C   0  0  1  0  0  0  0  0  0  0  0  0
    8.4885    3.0120   -3.8037 C   0  0  0  0  0  0  0  0  0  0  0  0
    8.3964    4.5578   -3.9128 C   0  0  1  0  0  0  0  0  0  0  0  0
    8.5014    4.9687   -5.3259 N   0  3  0  0  0  0  0  0  0  0  0  0
    7.0806    5.0668   -3.2561 C   0  0  1  0  0  0  0  0  0  0  0  0
    6.9422    4.5706   -1.7950 C   0  0  1  0  0  0  0  0  0  0  0  0
    5.6438    4.9463   -1.3602 O   0  0  0  0  0  0  0  0  0  0  0  0
    7.1476    3.0311   -1.6079 C   0  0  2  0  0  0  0  0  0  0  0  0
    8.6532    1.1130   -2.2225 N   0  3  0  0  0  0  0  0  0  0  0  0
    4.0237    6.8038   -3.4314 C   0  0  0  0  0  0  0  0  0  0  0  0
    3.7353    8.3114   -3.2272 C   0  0  2  0  0  0  0  0  0  0  0  0
    3.1133    8.7823   -4.4219 O   0  0  0  0  0  0  0  0  0  0  0  0
    5.0884    9.0726   -2.9604 C   0  0  1  0  0  0  0  0  0  0  0  0
    6.2061    8.7101   -3.9964 C   0  0  2  0  0  0  0  0  0  0  0  0
    6.3188    7.1900   -4.2767 C   0  0  1  0  0  0  0  0  0  0  0  0
    7.0561    6.5224   -3.2192 O   0  0  0  0  0  0  0  0  0  0  0  0
    5.0052    6.5973   -4.4821 O   0  0  0  0  0  0  0  0  0  0  0  0
    7.4796    9.1968   -3.5810 O   0  0  0  0  0  0  0  0  0  0  0  0
    4.8435   10.5484   -2.9428 N   0  3  0  0  0  0  0  0  0  0  0  0
    5.9465   11.4056   -2.4626 C   0  0  0  0  0  0  0  0  0  0  0  0
    2.7066    8.4677   -2.0803 C   0  0  0  0  0  0  0  0  0  0  0  0
  1  8  1  0  0  0  0
  1  9  1  1  0  0  0
  1  2  1  0  0  0  0
  2  3  1  0  0  0  0
  3  5  1  0  0  0  0
  3  4  1  6  0  0  0
  5  7  1  0  0  0  0
  5  6  1  6  0  0  0
  7  8  1  0  0  0  0
  9 10  1  0  0  0  0
 11 12  1  0  0  0  0
 11 18  1  0  0  0  0
 11 19  1  6  0  0  0
 12 13  1  0  0  0  0
 13 15  1  0  0  0  0
 13 14  1  6  0  0  0
 15 16  1  0  0  0  0
 15 26  1  1  0  0  0
 16 18  1  0  0  0  0
 16 17  1  6  0  0  0
 18  4  1  1  0  0  0
 20 21  1  0  0  0  0
 20 27  1  0  0  0  0
 21 31  1  1  0  0  0
 21 23  1  0  0  0  0
 21 22  1  0  0  0  0
 23 24  1  0  0  0  0
 23 29  1  6  0  0  0
 24 25  1  0  0  0  0
 24 28  1  1  0  0  0
 25 27  1  0  0  0  0
 25 26  1  1  0  0  0
 29 30  1  0  0  0  0
M  CHG  5   6   1  10   1  14   1  19   1  29   1
M  END
>  <CHROM.1>
-51.92480959,89.71845392,107.70767067,-174.59969548,58.91418247,-169.05741402
-139.84381952,97.85147687,-172.87331449,55.84032927,-69.83553077,66.03258152
171.76485439,6.35111107,5.51370540,-1.52526032,1.13891129,-0.87518188,2.11144588

>  <Name>
1byj cryst

>  <RI>
0

>  <Rbt.Current_Directory>
/home/itssahil/PROJECTS/Mol_Feturizer/New_Systems/rnas/1byj

>  <Rbt.Executable>
rbdock ($Id: //depot/dev/client3/rdock/2013.1/src/exe/rbdock.cxx#4 $)

>  <Rbt.Library>
libRbt.so (2013.1, Build901 2013/11/27)

>  <Rbt.Parameter_File>
/export/apps/rDock/src/rDock_2013.1_src/data/scripts/dock_solv.prm

>  <Rbt.Receptor>
prm/pocket_docking_6.prm

>  <SCORE>
-27.0319

>  <SCORE.INTER>
-24.115

>  <SCORE.INTER.CONST>
1

>  <SCORE.INTER.POLAR>
-4.24367

>  <SCORE.INTER.ROT>
6

>  <SCORE.INTER.SOLV>
23.7884

>  <SCORE.INTER.VDW>
-17.4606

>  <SCORE.INTER.norm>
-0.777904

>  <SCORE.INTRA>
-2.91687

>  <SCORE.INTRA.DIHEDRAL>
1.39329

>  <SCORE.INTRA.DIHEDRAL.0>
18.4149

>  <SCORE.INTRA.POLAR>
-1.02085

>  <SCORE.INTRA.POLAR.0>
0

>  <SCORE.INTRA.REPUL>
-0.0899775

>  <SCORE.INTRA.REPUL.0>
0.092687

>  <SCORE.INTRA.SOLV>
-1.42441

>  <SCORE.INTRA.SOLV.lig_0>
-120.37

>  <SCORE.INTRA.VDW>
1.01948

>  <SCORE.INTRA.VDW.0>
-1.75542

>  <SCORE.INTRA.norm>
-0.0940925

>  <SCORE.RESTR>
0

>  <SCORE.RESTR.CAVITY>
0

>  <SCORE.RESTR.norm>
0

>  <SCORE.SYSTEM>
0

>  <SCORE.SYSTEM.CONST>
0

>  <SCORE.SYSTEM.DIHEDRAL>
0

>  <SCORE.SYSTEM.SOLV>
0

>  <SCORE.SYSTEM.norm>
0

>  <SCORE.heavy>
31

>  <SCORE.norm>
-0.871996

>  <RMSD>
4.840

$$$$
1byj cryst
 OpenBabel11021811383D
libRbt.so/2013.1/901 2013/11/27
 31 33  0  0  0  0  0  0  0  0999 V2000
    6.0785    1.9267    0.5084 C   0  0  1  0  0  0  0  0  0  0  0  0
    6.7994    3.1759    0.2594 O   0  0  0  0  0  0  0  0  0  0  0  0
    8.0514    3.1243   -0.4879 C   0  0  2  0  0  0  0  0  0  0  0  0
    7.8222    2.7576   -1.8843 O   0  0  0  0  0  0  0  0  0  0  0  0
    9.0224    2.1189    0.2024 C   0  0  2  0  0  0  0  0  0  0  0  0
   10.3225    1.9987   -0.4863 N   0  3  0  0  0  0  0  0  0  0  0  0
    8.3474    0.7288    0.3289 C   0  0  0  0  0  0  0  0  0  0  0  0
    7.0146    0.8294    1.0859 C   0  0  0  0  0  0  0  0  0  0  0  0
    4.9310    2.1880    1.4999 C   0  0  0  0  0  0  0  0  0  0  0  0
    3.9803    1.0743    1.6144 N   0  3  0  0  0  0  0  0  0  0  0  0
    8.8608    4.1447   -3.6358 C   0  0  1  0  0  0  0  0  0  0  0  0
    8.6631    5.3357   -4.6047 C   0  0  0  0  0  0  0  0  0  0  0  0
    8.2327    6.6063   -3.8234 C   0  0  1  0  0  0  0  0  0  0  0  0
    8.1236    7.7513   -4.7475 N   0  3  0  0  0  0  0  0  0  0  0  0
    6.9007    6.3453   -3.0622 C   0  0  1  0  0  0  0  0  0  0  0  0
    6.9997    5.0979   -2.1487 C   0  0  1  0  0  0  0  0  0  0  0  0
    5.6939    4.8596   -1.6447 O   0  0  0  0  0  0  0  0  0  0  0  0
    7.5458    3.8141   -2.8565 C   0  0  2  0  0  0  0  0  0  0  0  0
    9.3680    2.9731   -4.3716 N   0  3  0  0  0  0  0  0  0  0  0  0
    4.0852    8.9344   -1.1929 C   0  0  0  0  0  0  0  0  0  0  0  0
    4.5740   10.3471   -0.7890 C   0  0  2  0  0  0  0  0  0  0  0  0
    3.8719   11.2811   -1.6080 O   0  0  0  0  0  0  0  0  0  0  0  0
    6.1282   10.4512   -1.0236 C   0  0  1  0  0  0  0  0  0  0  0  0
    6.5668    9.9389   -2.4375 C   0  0  2  0  0  0  0  0  0  0  0  0
    5.9007    8.5996   -2.8430 C   0  0  1  0  0  0  0  0  0  0  0  0
    6.5681    7.4772   -2.2086 O   0  0  0  0  0  0  0  0  0  0  0  0
    4.4738    8.6172   -2.5561 O   0  0  0  0  0  0  0  0  0  0  0  0
    7.9820    9.7934   -2.5234 O   0  0  0  0  0  0  0  0  0  0  0  0
    6.5787   11.8618   -0.8101 N   0  3  0  0  0  0  0  0  0  0  0  0
    7.9012   12.0557   -0.1814 C   0  0  0  0  0  0  0  0  0  0  0  0
    4.1552   10.6153    0.6776 C   0  0  0  0  0  0  0  0  0  0  0  0
  1  8  1  0  0  0  0
  1  9  1  1  0  0  0
  1  2  1  0  0  0  0
  2  3  1  0  0  0  0
  3  5  1  0  0  0  0
  3  4  1  6  0  0  0
  5  7  1  0  0  0  0
  5  6  1  6  0  0  0
  7  8  1  0  0  0  0
  9 10  1  0  0  0  0
 11 12  1  0  0  0  0
 11 18  1  0  0  0  0
 11 19  1  6  0  0  0
 12 13  1  0  0  0  0
 13 15  1  0  0  0  0
 13 14  1  6  0  0  0
 15 16  1  0  0  0  0
 15 26  1  1  0  0  0
 16 18  1  0  0  0  0
 16 17  1  6  0  0  0
 18  4  1  1  0  0  0
 20 21  1  0  0  0  0
 20 27  1  0  0  0  0
 21 31  1  1  0  0  0
 21 23  1  0  0  0  0
 21 22  1  0  0  0  0
 23 24  1  0  0  0  0
 23 29  1  6  0  0  0
 24 25  1  0  0  0  0
 24 28  1  1  0  0  0
 25 27  1  0  0  0  0
 25 26  1  1  0  0  0
 29 30  1  0  0  0  0
M  CHG  5   6   1  10   1  14   1  19   1  29   1
M  END
>  <CHROM.1>
168.36128829,88.37869652,99.31291464,152.19700151,69.19408222,-178.48427656
-147.60864959,82.56375112,61.88775568,-62.19300575,-95.29870878,-62.95137104
-132.77393891,6.82100980,6.04128869,-1.48864494,1.28647990,-0.80572598,2.79913144

>  <Name>
1byj cryst

>  <RI>
0

>  <Rbt.Current_Directory>
/home/itssahil/PROJECTS/Mol_Feturizer/New_Systems/rnas/1byj

>  <Rbt.Executable>
rbdock ($Id: //depot/dev/client3/rdock/2013.1/src/exe/rbdock.cxx#4 $)

>  <Rbt.Library>
libRbt.so (2013.1, Build901 2013/11/27)

>  <Rbt.Parameter_File>
/export/apps/rDock/src/rDock_2013.1_src/data/scripts/dock_solv.prm

>  <Rbt.Receptor>
prm/pocket_docking_6.prm

>  <SCORE>
-41.0684

>  <SCORE.INTER>
-39.877

>  <SCORE.INTER.CONST>
1

>  <SCORE.INTER.POLAR>
-6.69412

>  <SCORE.INTER.ROT>
6

>  <SCORE.INTER.SOLV>
22.1564

>  <SCORE.INTER.VDW>
-19.2564

>  <SCORE.INTER.norm>
-1.28636

>  <SCORE.INTRA>
-1.19131

>  <SCORE.INTRA.DIHEDRAL>
5.78159

>  <SCORE.INTRA.DIHEDRAL.0>
18.4149

>  <SCORE.INTRA.POLAR>
-1.03584

>  <SCORE.INTRA.POLAR.0>
0

>  <SCORE.INTRA.REPUL>
-0.092687

>  <SCORE.INTRA.REPUL.0>
0.092687

>  <SCORE.INTRA.SOLV>
0.630405

>  <SCORE.INTRA.SOLV.lig_0>
-120.37

>  <SCORE.INTRA.VDW>
-0.412019

>  <SCORE.INTRA.VDW.0>
-1.75542

>  <SCORE.INTRA.norm>
-0.0384295

>  <SCORE.RESTR>
0

>  <SCORE.RESTR.CAVITY>
0

>  <SCORE.RESTR.norm>
0

>  <SCORE.SYSTEM>
0

>  <SCORE.SYSTEM.CONST>
0

>  <SCORE.SYSTEM.DIHEDRAL>
0

>  <SCORE.SYSTEM.SOLV>
0

>  <SCORE.SYSTEM.norm>
0

>  <SCORE.heavy>
31

>  <SCORE.norm>
-1.32479

>  <RMSD>
4.857

$$$$
1byj cryst
 OpenBabel11021811383D
libRbt.so/2013.1/901 2013/11/27
 31 33  0  0  0  0  0  0  0  0999 V2000
    8.5634    1.3037   -1.4124 C   0  0  1  0  0  0  0  0  0  0  0  0
    8.3432    2.7495   -1.3558 O   0  0  0  0  0  0  0  0  0  0  0  0
    8.1163    3.4721   -2.6028 C   0  0  2  0  0  0  0  0  0  0  0  0
    6.8328    3.1095   -3.2013 O   0  0  0  0  0  0  0  0  0  0  0  0
    9.2923    3.1862   -3.5854 C   0  0  2  0  0  0  0  0  0  0  0  0
    9.1496    3.8781   -4.8815 N   0  3  0  0  0  0  0  0  0  0  0  0
    9.4449    1.6585   -3.8024 C   0  0  0  0  0  0  0  0  0  0  0  0
    9.6422    0.9283   -2.4655 C   0  0  0  0  0  0  0  0  0  0  0  0
    9.0086    0.8001   -0.0281 C   0  0  0  0  0  0  0  0  0  0  0  0
    9.8430    1.7562    0.7113 N   0  3  0  0  0  0  0  0  0  0  0  0
    4.4219    2.6332   -3.0258 C   0  0  1  0  0  0  0  0  0  0  0  0
    3.0649    3.1119   -2.4548 C   0  0  0  0  0  0  0  0  0  0  0  0
    2.7666    4.5660   -2.9091 C   0  0  1  0  0  0  0  0  0  0  0  0
    1.4368    4.9812   -2.4232 N   0  3  0  0  0  0  0  0  0  0  0  0
    3.8897    5.5249   -2.4186 C   0  0  1  0  0  0  0  0  0  0  0  0
    5.2907    5.0426   -2.8711 C   0  0  1  0  0  0  0  0  0  0  0  0
    6.2365    5.8858   -2.2306 O   0  0  0  0  0  0  0  0  0  0  0  0
    5.5997    3.5437   -2.5465 C   0  0  2  0  0  0  0  0  0  0  0  0
    4.6476    1.2198   -2.6754 N   0  3  0  0  0  0  0  0  0  0  0  0
    6.1334    8.6010   -2.3652 C   0  0  0  0  0  0  0  0  0  0  0  0
    5.7849   10.0026   -2.9233 C   0  0  2  0  0  0  0  0  0  0  0  0
    5.7999   10.9064   -1.8192 O   0  0  0  0  0  0  0  0  0  0  0  0
    4.3609    9.9602   -3.5955 C   0  0  1  0  0  0  0  0  0  0  0  0
    3.2789    9.2814   -2.6886 C   0  0  2  0  0  0  0  0  0  0  0  0
    3.7640    7.9664   -2.0273 C   0  0  1  0  0  0  0  0  0  0  0  0
    3.6981    6.8607   -2.9658 O   0  0  0  0  0  0  0  0  0  0  0  0
    5.0974    8.1246   -1.4654 O   0  0  0  0  0  0  0  0  0  0  0  0
    2.0816    9.0166   -3.4149 O   0  0  0  0  0  0  0  0  0  0  0  0
    3.9390   11.3446   -3.9746 N   0  3  0  0  0  0  0  0  0  0  0  0
    4.5543   11.9253   -5.1854 C   0  0  0  0  0  0  0  0  0  0  0  0
    6.9088   10.4426   -3.8935 C   0  0  0  0  0  0  0  0  0  0  0  0
  1  8  1  0  0  0  0
  1  9  1  1  0  0  0
  1  2  1  0  0  0  0
  2  3  1  0  0  0  0
  3  5  1  0  0  0  0
  3  4  1  6  0  0  0
  5  7  1  0  0  0  0
  5  6  1  6  0  0  0
  7  8  1  0  0  0  0
  9 10  1  0  0  0  0
 11 12  1  0  0  0  0
 11 18  1  0  0  0  0
 11 19  1  1  0  0  0
 12 13  1  0  0  0  0
 13 15  1  0  0  0  0
 13 14  1  1  0  0  0
 15 16  1  0  0  0  0
 15 26  1  6  0  0  0
 16 18  1  0  0  0  0
 16 17  1  1  0  0  0
 18  4  1  6  0  0  0
 20 21  1  0  0  0  0
 20 27  1  0  0  0  0
 21 31  1  6  0  0  0
 21 23  1  0  0  0  0
 21 22  1  0  0  0  0
 23 24  1  0  0  0  0
 23 29  1  1  0  0  0
 24 25  1  0  0  0  0
 24 28  1  6  0  0  0
 25 27  1  0  0  0  0
 25 26  1  6  0  0  0
 29 30  1  0  0  0  0
M  CHG  5   6   1  10   1  14   1  19   1  29   1
M  END
>  <CHROM.1>
-34.46731526,69.89575910,-159.21049144,-69.26828186,29.80102030,-179.98632297
67.19577092,130.91615334,-173.59580035,57.27180189,-162.08224961,55.97910733
-169.15603941,5.83449552,5.63057817,-2.65323630,-1.10664832,-0.02362579,-0.14409110

>  <Name>
1byj cryst

>  <RI>
0

>  <Rbt.Current_Directory>
/home/itssahil/PROJECTS/Mol_Feturizer/New_Systems/rnas/1byj

>  <Rbt.Executable>
rbdock ($Id: //depot/dev/client3/rdock/2013.1/src/exe/rbdock.cxx#4 $)

>  <Rbt.Library>
libRbt.so (2013.1, Build901 2013/11/27)

>  <Rbt.Parameter_File>
/export/apps/rDock/src/rDock_2013.1_src/data/scripts/dock_solv.prm

>  <Rbt.Receptor>
prm/pocket_docking_5.prm

>  <SCORE>
-36.6805

>  <SCORE.INTER>
-32.8256

>  <SCORE.INTER.CONST>
1

>  <SCORE.INTER.POLAR>
-4.8071

>  <SCORE.INTER.ROT>
6

>  <SCORE.INTER.SOLV>
26.0463

>  <SCORE.INTER.VDW>
-22.1422

>  <SCORE.INTER.norm>
-1.05889

>  <SCORE.INTRA>
-3.85486

>  <SCORE.INTRA.DIHEDRAL>
-3.33317

>  <SCORE.INTRA.DIHEDRAL.0>
18.4149

>  <SCORE.INTRA.POLAR>
-0.318301

>  <SCORE.INTRA.POLAR.0>
0

>  <SCORE.INTRA.REPUL>
-0.092687

>  <SCORE.INTRA.REPUL.0>
0.092687

>  <SCORE.INTRA.SOLV>
-2.73639

>  <SCORE.INTRA.SOLV.lig_0>
-120.37

>  <SCORE.INTRA.VDW>
0.725582

>  <SCORE.INTRA.VDW.0>
-1.75542

>  <SCORE.INTRA.norm>
-0.12435

>  <SCORE.RESTR>
0

>  <SCORE.RESTR.CAVITY>
0

>  <SCORE.RESTR.norm>
0

>  <SCORE.SYSTEM>
0

>  <SCORE.SYSTEM.CONST>
0

>  <SCORE.SYSTEM.DIHEDRAL>
0

>  <SCORE.SYSTEM.SOLV>
0

>  <SCORE.SYSTEM.norm>
0

>  <SCORE.heavy>
31

>  <SCORE.norm>
-1.18324

>  <RMSD>
4.907

$$$$
1byj cryst
 OpenBabel11021811383D
libRbt.so/2013.1/901 2013/11/27
 31 33  0  0  0  0  0  0  0  0999 V2000
    5.1788    3.6402    1.7164 C   0  0  1  0  0  0  0  0  0  0  0  0
    6.2927    4.2404    0.9807 O   0  0  0  0  0  0  0  0  0  0  0  0
    7.4034    3.3865    0.5736 C   0  0  2  0  0  0  0  0  0  0  0  0
    6.9913    2.4323   -0.4543 O   0  0  0  0  0  0  0  0  0  0  0  0
    7.9727    2.6504    1.8243 C   0  0  2  0  0  0  0  0  0  0  0  0
    9.1059    1.7584    1.5094 N   0  3  0  0  0  0  0  0  0  0  0  0
    6.8444    1.8599    2.5358 C   0  0  0  0  0  0  0  0  0  0  0  0
    5.6769    2.7839    2.9133 C   0  0  0  0  0  0  0  0  0  0  0  0
    4.2530    4.7528    2.2389 C   0  0  0  0  0  0  0  0  0  0  0  0
    4.9478    5.7865    3.0173 N   0  3  0  0  0  0  0  0  0  0  0  0
    8.5722    2.3905   -2.3436 C   0  0  1  0  0  0  0  0  0  0  0  0
    8.8365    2.8544   -3.7967 C   0  0  0  0  0  0  0  0  0  0  0  0
    8.7141    4.3981   -3.9052 C   0  0  1  0  0  0  0  0  0  0  0  0
    9.0445    4.8331   -5.2758 N   0  3  0  0  0  0  0  0  0  0  0  0
    7.2901    4.8571   -3.4774 C   0  0  1  0  0  0  0  0  0  0  0  0
    6.9215    4.3352   -2.0661 C   0  0  1  0  0  0  0  0  0  0  0  0
    5.5566    4.6648   -1.8553 O   0  0  0  0  0  0  0  0  0  0  0  0
    7.1419    2.8000   -1.8614 C   0  0  2  0  0  0  0  0  0  0  0  0
    8.7915    0.9379   -2.2287 N   0  3  0  0  0  0  0  0  0  0  0  0
    4.2031    6.8001   -3.2762 C   0  0  0  0  0  0  0  0  0  0  0  0
    4.0418    8.3358   -3.1608 C   0  0  2  0  0  0  0  0  0  0  0  0
    3.2974    8.7635   -4.3007 O   0  0  0  0  0  0  0  0  0  0  0  0
    5.4643    9.0118   -3.1326 C   0  0  1  0  0  0  0  0  0  0  0  0
    6.4084    8.4930   -4.2699 C   0  0  2  0  0  0  0  0  0  0  0  0
    6.3850    6.9524   -4.4370 C   0  0  1  0  0  0  0  0  0  0  0  0
    7.2124    6.3105   -3.4314 O   0  0  0  0  0  0  0  0  0  0  0  0
    5.0205    6.4455   -4.4234 O   0  0  0  0  0  0  0  0  0  0  0  0
    7.7544    8.9127   -4.0620 O   0  0  0  0  0  0  0  0  0  0  0  0
    5.3190   10.4991   -3.2046 N   0  3  0  0  0  0  0  0  0  0  0  0
    4.9973   11.2033   -1.9466 C   0  0  0  0  0  0  0  0  0  0  0  0
    3.1873    8.6510   -1.9084 C   0  0  0  0  0  0  0  0  0  0  0  0
  1  8  1  0  0  0  0
  1  9  1  1  0  0  0
  1  2  1  0  0  0  0
  2  3  1  0  0  0  0
  3  5  1  0  0  0  0
  3  4  1  6  0  0  0
  5  7  1  0  0  0  0
  5  6  1  6  0  0  0
  7  8  1  0  0  0  0
  9 10  1  0  0  0  0
 11 12  1  0  0  0  0
 11 18  1  0  0  0  0
 11 19  1  6  0  0  0
 12 13  1  0  0  0  0
 13 15  1  0  0  0  0
 13 14  1  6  0  0  0
 15 16  1  0  0  0  0
 15 26  1  1  0  0  0
 16 18  1  0  0  0  0
 16 17  1  6  0  0  0
 18  4  1  1  0  0  0
 20 21  1  0  0  0  0
 20 27  1  0  0  0  0
 21 31  1  1  0  0  0
 21 23  1  0  0  0  0
 21 22  1  0  0  0  0
 23 24  1  0  0  0  0
 23 29  1  6  0  0  0
 24 25  1  0  0  0  0
 24 28  1  1  0  0  0
 25 27  1  0  0  0  0
 25 26  1  1  0  0  0
 29 30  1  0  0  0  0
M  CHG  5   6   1  10   1  14   1  19   1  29   1
M  END
>  <CHROM.1>
-53.23257813,91.68163477,88.11284594,165.30070465,60.26094603,76.06891806
179.62763651,111.27429253,-168.63091060,-63.24624073,-157.86973591,67.66842498
-179.55543178,6.42252304,5.36696522,-1.67041593,1.14447926,-0.89319792,2.18459473

>  <Name>
1byj cryst

>  <RI>
0

>  <Rbt.Current_Directory>
/home/itssahil/PROJECTS/Mol_Feturizer/New_Systems/rnas/1byj

>  <Rbt.Executable>
rbdock ($Id: //depot/dev/client3/rdock/2013.1/src/exe/rbdock.cxx#4 $)

>  <Rbt.Library>
libRbt.so (2013.1, Build901 2013/11/27)

>  <Rbt.Parameter_File>
/export/apps/rDock/src/rDock_2013.1_src/data/scripts/dock_solv.prm

>  <Rbt.Receptor>
prm/pocket_docking_3.prm

>  <SCORE>
-30.7699

>  <SCORE.INTER>
-27.509

>  <SCORE.INTER.CONST>
1

>  <SCORE.INTER.POLAR>
-4.7848

>  <SCORE.INTER.ROT>
6

>  <SCORE.INTER.SOLV>
24.3346

>  <SCORE.INTER.VDW>
-18.1015

>  <SCORE.INTER.norm>
-0.887387

>  <SCORE.INTRA>
-4.02495

>  <SCORE.INTRA.DIHEDRAL>
-0.900996

>  <SCORE.INTRA.DIHEDRAL.0>
18.4149

>  <SCORE.INTRA.POLAR>
-0.605493

>  <SCORE.INTRA.POLAR.0>
0

>  <SCORE.INTRA.REPUL>
-0.0481646

>  <SCORE.INTRA.REPUL.0>
0.092687

>  <SCORE.INTRA.SOLV>
-0.160984

>  <SCORE.INTRA.SOLV.lig_0>
-120.37

>  <SCORE.INTRA.VDW>
-1.19446

>  <SCORE.INTRA.VDW.0>
-1.75542

>  <SCORE.INTRA.norm>
-0.129837

>  <SCORE.RESTR>
0.76402

>  <SCORE.RESTR.CAVITY>
0.76402

>  <SCORE.RESTR.norm>
0.0246458

>  <SCORE.SYSTEM>
0

>  <SCORE.SYSTEM.CONST>
0

>  <SCORE.SYSTEM.DIHEDRAL>
0

>  <SCORE.SYSTEM.SOLV>
0

>  <SCORE.SYSTEM.norm>
0

>  <SCORE.heavy>
31

>  <SCORE.norm>
-0.992578

>  <RMSD>
4.913

$$$$
1byj cryst
 OpenBabel11021811383D
libRbt.so/2013.1/901 2013/11/27
 31 33  0  0  0  0  0  0  0  0999 V2000
    5.5495    2.2684    1.6260 C   0  0  1  0  0  0  0  0  0  0  0  0
    6.0654    3.4869    1.0006 O   0  0  0  0  0  0  0  0  0  0  0  0
    7.5101    3.6734    0.9181 C   0  0  2  0  0  0  0  0  0  0  0  0
    8.1178    2.7163   -0.0045 O   0  0  0  0  0  0  0  0  0  0  0  0
    8.1282    3.5461    2.3437 C   0  0  2  0  0  0  0  0  0  0  0  0
    9.5939    3.7209    2.3606 N   0  3  0  0  0  0  0  0  0  0  0  0
    7.7393    2.1832    2.9724 C   0  0  0  0  0  0  0  0  0  0  0  0
    6.2138    2.0062    3.0058 C   0  0  0  0  0  0  0  0  0  0  0  0
    4.0271    2.3946    1.8116 C   0  0  0  0  0  0  0  0  0  0  0  0
    3.3595    1.1237    2.1223 N   0  3  0  0  0  0  0  0  0  0  0  0
    9.2606    2.4908   -2.1756 C   0  0  1  0  0  0  0  0  0  0  0  0
    9.1838    2.7814   -3.6943 C   0  0  0  0  0  0  0  0  0  0  0  0
    8.9559    4.2959   -3.9471 C   0  0  1  0  0  0  0  0  0  0  0  0
    8.9626    4.5698   -5.3968 N   0  3  0  0  0  0  0  0  0  0  0  0
    7.6321    4.7613   -3.2742 C   0  0  1  0  0  0  0  0  0  0  0  0
    7.6016    4.4050   -1.7668 C   0  0  1  0  0  0  0  0  0  0  0  0
    6.2966    4.7173   -1.3025 O   0  0  0  0  0  0  0  0  0  0  0  0
    7.9451    2.9136   -1.4430 C   0  0  2  0  0  0  0  0  0  0  0  0
    9.5794    1.0703   -1.9480 N   0  3  0  0  0  0  0  0  0  0  0  0
    4.4533    6.4629   -3.1341 C   0  0  0  0  0  0  0  0  0  0  0  0
    4.1687    7.9849   -3.1266 C   0  0  2  0  0  0  0  0  0  0  0  0
    3.3517    8.2618   -4.2633 O   0  0  0  0  0  0  0  0  0  0  0  0
    5.5300    8.7734   -3.2074 C   0  0  1  0  0  0  0  0  0  0  0  0
    6.4735    8.2456   -4.3411 C   0  0  2  0  0  0  0  0  0  0  0  0
    6.5728    6.6999   -4.3921 C   0  0  1  0  0  0  0  0  0  0  0  0
    7.4857    6.2065   -3.3768 O   0  0  0  0  0  0  0  0  0  0  0  0
    5.2567    6.0874   -4.2845 O   0  0  0  0  0  0  0  0  0  0  0  0
    7.7864    8.7872   -4.2209 O   0  0  0  0  0  0  0  0  0  0  0  0
    5.2588   10.2342   -3.3837 N   0  3  0  0  0  0  0  0  0  0  0  0
    6.3685   11.1629   -3.0873 C   0  0  0  0  0  0  0  0  0  0  0  0
    3.3354    8.3265   -1.8668 C   0  0  0  0  0  0  0  0  0  0  0  0
  1  8  1  0  0  0  0
  1  9  1  1  0  0  0
  1  2  1  0  0  0  0
  2  3  1  0  0  0  0
  3  5  1  0  0  0  0
  3  4  1  6  0  0  0
  5  7  1  0  0  0  0
  5  6  1  6  0  0  0
  7  8  1  0  0  0  0
  9 10  1  0  0  0  0
 11 12  1  0  0  0  0
 11 18  1  0  0  0  0
 11 19  1  6  0  0  0
 12 13  1  0  0  0  0
 13 15  1  0  0  0  0
 13 14  1  6  0  0  0
 15 16  1  0  0  0  0
 15 26  1  1  0  0  0
 16 18  1  0  0  0  0
 16 17  1  6  0  0  0
 18  4  1  1  0  0  0
 20 21  1  0  0  0  0
 20 27  1  0  0  0  0
 21 31  1  1  0  0  0
 21 23  1  0  0  0  0
 21 22  1  0  0  0  0
 23 24  1  0  0  0  0
 23 29  1  6  0  0  0
 24 25  1  0  0  0  0
 24 28  1  1  0  0  0
 25 27  1  0  0  0  0
 25 26  1  1  0  0  0
 29 30  1  0  0  0  0
M  CHG  5   6   1  10   1  14   1  19   1  29   1
M  END
>  <CHROM.1>
165.89647282,74.34962646,143.47514010,14.06945549,44.89579021,60.00329243
-59.39451412,102.13951935,-73.97406012,179.16669622,-76.32944836,56.70803335
177.50169634,6.69575239,5.05535939,-1.60712036,1.36035509,-0.62737966,2.31600615

>  <Name>
1byj cryst

>  <RI>
0

>  <Rbt.Current_Directory>
/home/itssahil/PROJECTS/Mol_Feturizer/New_Systems/rnas/1byj

>  <Rbt.Executable>
rbdock ($Id: //depot/dev/client3/rdock/2013.1/src/exe/rbdock.cxx#4 $)

>  <Rbt.Library>
libRbt.so (2013.1, Build901 2013/11/27)

>  <Rbt.Parameter_File>
/export/apps/rDock/src/rDock_2013.1_src/data/scripts/dock_solv.prm

>  <Rbt.Receptor>
prm/pocket_docking_8.prm

>  <SCORE>
-29.4185

>  <SCORE.INTER>
-27.862

>  <SCORE.INTER.CONST>
1

>  <SCORE.INTER.POLAR>
-4.97249

>  <SCORE.INTER.ROT>
6

>  <SCORE.INTER.SOLV>
23.775

>  <SCORE.INTER.VDW>
-17.5247

>  <SCORE.INTER.norm>
-0.898775

>  <SCORE.INTRA>
-1.55652

>  <SCORE.INTRA.DIHEDRAL>
-0.507087

>  <SCORE.INTRA.DIHEDRAL.0>
18.4149

>  <SCORE.INTRA.POLAR>
0

>  <SCORE.INTRA.POLAR.0>
0

>  <SCORE.INTRA.REPUL>
-0.0791787

>  <SCORE.INTRA.REPUL.0>
0.092687

>  <SCORE.INTRA.SOLV>
-3.33259

>  <SCORE.INTRA.SOLV.lig_0>
-120.37

>  <SCORE.INTRA.VDW>
0.759217

>  <SCORE.INTRA.VDW.0>
-1.75542

>  <SCORE.INTRA.norm>
-0.0502102

>  <SCORE.RESTR>
0

>  <SCORE.RESTR.CAVITY>
0

>  <SCORE.RESTR.norm>
0

>  <SCORE.SYSTEM>
0

>  <SCORE.SYSTEM.CONST>
0

>  <SCORE.SYSTEM.DIHEDRAL>
0

>  <SCORE.SYSTEM.SOLV>
0

>  <SCORE.SYSTEM.norm>
0

>  <SCORE.heavy>
31

>  <SCORE.norm>
-0.948985

>  <RMSD>
4.948

$$$$
1byj cryst
 OpenBabel11021811383D
libRbt.so/2013.1/901 2013/11/27
 31 33  0  0  0  0  0  0  0  0999 V2000
    8.0754    4.1042   -2.7245 C   0  0  1  0  0  0  0  0  0  0  0  0
    6.8963    4.3715   -1.8998 O   0  0  0  0  0  0  0  0  0  0  0  0
    6.5190    3.3970   -0.8816 C   0  0  2  0  0  0  0  0  0  0  0  0
    7.5000    3.3526    0.2012 O   0  0  0  0  0  0  0  0  0  0  0  0
    6.3546    1.9959   -1.5453 C   0  0  2  0  0  0  0  0  0  0  0  0
    5.9718    0.9395   -0.5880 N   0  3  0  0  0  0  0  0  0  0  0  0
    7.6566    1.6040   -2.2903 C   0  0  0  0  0  0  0  0  0  0  0  0
    8.0430    2.6716   -3.3249 C   0  0  0  0  0  0  0  0  0  0  0  0
    8.1430    5.1321   -3.8678 C   0  0  0  0  0  0  0  0  0  0  0  0
    9.1071    4.7867   -4.9206 N   0  3  0  0  0  0  0  0  0  0  0  0
    8.3362    3.9671    2.4358 C   0  0  1  0  0  0  0  0  0  0  0  0
    8.2915    5.0200    3.5698 C   0  0  0  0  0  0  0  0  0  0  0  0
    6.8282    5.2655    4.0261 C   0  0  1  0  0  0  0  0  0  0  0  0
    6.8071    6.2114    5.1583 N   0  3  0  0  0  0  0  0  0  0  0  0
    5.9687    5.7706    2.8312 C   0  0  1  0  0  0  0  0  0  0  0  0
    6.0539    4.8089    1.6195 C   0  0  1  0  0  0  0  0  0  0  0  0
    5.3802    5.4486    0.5458 O   0  0  0  0  0  0  0  0  0  0  0  0
    7.5096    4.4288    1.1909 C   0  0  2  0  0  0  0  0  0  0  0  0
    9.7342    3.6652    2.0809 N   0  3  0  0  0  0  0  0  0  0  0  0
    2.3724    5.4070    1.1360 C   0  0  0  0  0  0  0  0  0  0  0  0
    1.0538    5.8198    1.8349 C   0  0  2  0  0  0  0  0  0  0  0  0
    0.5049    6.9018    1.0838 O   0  0  0  0  0  0  0  0  0  0  0  0
    1.3611    6.2622    3.3152 C   0  0  1  0  0  0  0  0  0  0  0  0
    2.5502    7.2772    3.4135 C   0  0  2  0  0  0  0  0  0  0  0  0
    3.7737    6.8806    2.5488 C   0  0  1  0  0  0  0  0  0  0  0  0
    4.5657    5.8596    3.2107 O   0  0  0  0  0  0  0  0  0  0  0  0
    3.3602    6.4690    1.2152 O   0  0  0  0  0  0  0  0  0  0  0  0
    2.9771    7.4509    4.7622 O   0  0  0  0  0  0  0  0  0  0  0  0
    0.1269    6.8330    3.9391 N   0  3  0  0  0  0  0  0  0  0  0  0
   -0.8103    5.8790    4.5664 C   0  0  0  0  0  0  0  0  0  0  0  0
    0.0540    4.6409    1.7415 C   0  0  0  0  0  0  0  0  0  0  0  0
  1  8  1  0  0  0  0
  1  9  1  6  0  0  0
  1  2  1  0  0  0  0
  2  3  1  0  0  0  0
  3  5  1  0  0  0  0
  3  4  1  1  0  0  0
  5  7  1  0  0  0  0
  5  6  1  1  0  0  0
  7  8  1  0  0  0  0
  9 10  1  0  0  0  0
 11 12  1  0  0  0  0
 11 18  1  0  0  0  0
 11 19  1  6  0  0  0
 12 13  1  0  0  0  0
 13 15  1  0  0  0  0
 13 14  1  1  0  0  0
 15 16  1  0  0  0  0
 15 26  1  1  0  0  0
 16 18  1  0  0  0  0
 16 17  1  6  0  0  0
 18  4  1  6  0  0  0
 20 21  1  0  0  0  0
 20 27  1  0  0  0  0
 21 31  1  1  0  0  0
 21 23  1  0  0  0  0
 21 22  1  0  0  0  0
 23 24  1  0  0  0  0
 23 29  1  6  0  0  0
 24 25  1  0  0  0  0
 24 28  1  1  0  0  0
 25 27  1  0  0  0  0
 25 26  1  1  0  0  0
 29 30  1  0  0  0  0
M  CHG  5   6   1  10   1  14   1  19   1  29   1
M  END
>  <CHROM.1>
-167.25760153,76.03610823,164.08753947,-58.36374819,-47.24781718,-151.52732392
-56.83289830,149.63614902,65.34716255,169.10766734,-153.00377418,66.15309105
-155.84298144,5.18999400,4.93841273,1.11512575,0.72627388,0.19922843,-1.86587892

>  <Name>
1byj cryst

>  <RI>
0

>  <Rbt.Current_Directory>
/home/itssahil/PROJECTS/Mol_Feturizer/New_Systems/rnas/1byj

>  <Rbt.Executable>
rbdock ($Id: //depot/dev/client3/rdock/2013.1/src/exe/rbdock.cxx#4 $)

>  <Rbt.Library>
libRbt.so (2013.1, Build901 2013/11/27)

>  <Rbt.Parameter_File>
/export/apps/rDock/src/rDock_2013.1_src/data/scripts/dock_solv.prm

>  <Rbt.Receptor>
prm/pocket_docking_8.prm

>  <SCORE>
-26.0261

>  <SCORE.INTER>
-24.1448

>  <SCORE.INTER.CONST>
1

>  <SCORE.INTER.POLAR>
-4.97142

>  <SCORE.INTER.ROT>
6

>  <SCORE.INTER.SOLV>
20.4066

>  <SCORE.INTER.VDW>
-13.9274

>  <SCORE.INTER.norm>
-0.778865

>  <SCORE.INTRA>
-1.88124

>  <SCORE.INTRA.DIHEDRAL>
-4.70908

>  <SCORE.INTRA.DIHEDRAL.0>
18.4149

>  <SCORE.INTRA.POLAR>
-0.0410991

>  <SCORE.INTRA.POLAR.0>
0

>  <SCORE.INTRA.REPUL>
-0.0741959

>  <SCORE.INTRA.REPUL.0>
0.092687

>  <SCORE.INTRA.SOLV>
-3.50091

>  <SCORE.INTRA.SOLV.lig_0>
-120.37

>  <SCORE.INTRA.VDW>
2.73447

>  <SCORE.INTRA.VDW.0>
-1.75542

>  <SCORE.INTRA.norm>
-0.0606852

>  <SCORE.RESTR>
0

>  <SCORE.RESTR.CAVITY>
0

>  <SCORE.RESTR.norm>
0

>  <SCORE.SYSTEM>
0

>  <SCORE.SYSTEM.CONST>
0

>  <SCORE.SYSTEM.DIHEDRAL>
0

>  <SCORE.SYSTEM.SOLV>
0

>  <SCORE.SYSTEM.norm>
0

>  <SCORE.heavy>
31

>  <SCORE.norm>
-0.83955

>  <RMSD>
4.993

$$$$
1byj cryst
 OpenBabel11021811383D
libRbt.so/2013.1/901 2013/11/27
 31 33  0  0  0  0  0  0  0  0999 V2000
    5.9791    4.9357   -0.6606 C   0  0  1  0  0  0  0  0  0  0  0  0
    6.9381    3.8799   -0.9887 O   0  0  0  0  0  0  0  0  0  0  0  0
    6.4654    2.7063   -1.7152 C   0  0  2  0  0  0  0  0  0  0  0  0
    6.0843    3.0468   -3.0847 O   0  0  0  0  0  0  0  0  0  0  0  0
    5.2697    2.0698   -0.9436 C   0  0  2  0  0  0  0  0  0  0  0  0
    4.7216    0.8700   -1.6062 N   0  3  0  0  0  0  0  0  0  0  0  0
    4.1541    3.1246   -0.7272 C   0  0  0  0  0  0  0  0  0  0  0  0
    4.6981    4.3608    0.0045 C   0  0  0  0  0  0  0  0  0  0  0  0
    6.6380    5.9452    0.2959 C   0  0  0  0  0  0  0  0  0  0  0  0
    7.7742    6.6663   -0.2927 N   0  3  0  0  0  0  0  0  0  0  0  0
    8.4004    3.6698   -3.6488 C   0  0  1  0  0  0  0  0  0  0  0  0
    9.3105    4.7326   -4.3112 C   0  0  0  0  0  0  0  0  0  0  0  0
    9.0665    6.1284   -3.6773 C   0  0  1  0  0  0  0  0  0  0  0  0
    9.9941    7.1151   -4.2628 N   0  3  0  0  0  0  0  0  0  0  0  0
    7.5796    6.5501   -3.8588 C   0  0  1  0  0  0  0  0  0  0  0  0
    6.6096    5.4754   -3.3072 C   0  0  1  0  0  0  0  0  0  0  0  0
    5.3005    5.8823   -3.6771 O   0  0  0  0  0  0  0  0  0  0  0  0
    6.8865    4.0235   -3.8197 C   0  0  2  0  0  0  0  0  0  0  0  0
    8.7119    2.3327   -4.1840 N   0  3  0  0  0  0  0  0  0  0  0  0
    4.6496    8.8779   -4.1738 C   0  0  0  0  0  0  0  0  0  0  0  0
    4.4193   10.1997   -3.4009 C   0  0  2  0  0  0  0  0  0  0  0  0
    4.3716   11.2462   -4.3697 O   0  0  0  0  0  0  0  0  0  0  0  0
    5.6025   10.4268   -2.3861 C   0  0  1  0  0  0  0  0  0  0  0  0
    7.0126   10.2388   -3.0422 C   0  0  2  0  0  0  0  0  0  0  0  0
    7.1126    8.9802   -3.9409 C   0  0  1  0  0  0  0  0  0  0  0  0
    7.3058    7.7858   -3.1386 O   0  0  0  0  0  0  0  0  0  0  0  0
    5.9534    8.8675   -4.8141 O   0  0  0  0  0  0  0  0  0  0  0  0
    8.0422   10.1844   -2.0583 O   0  0  0  0  0  0  0  0  0  0  0  0
    5.4849   11.7839   -1.7674 N   0  3  0  0  0  0  0  0  0  0  0  0
    5.9711   12.9287   -2.5642 C   0  0  0  0  0  0  0  0  0  0  0  0
    3.0297   10.1393   -2.7200 C   0  0  0  0  0  0  0  0  0  0  0  0
  1  8  1  0  0  0  0
  1  9  1  1  0  0  0
  1  2  1  0  0  0  0
  2  3  1  0  0  0  0
  3  5  1  0  0  0  0
  3  4  1  6  0  0  0
  5  7  1  0  0  0  0
  5  6  1  6  0  0  0
  7  8  1  0  0  0  0
  9 10  1  0  0  0  0
 11 12  1  0  0  0  0
 11 18  1  0  0  0  0
 11 19  1  6  0  0  0
 12 13  1  0  0  0  0
 13 15  1  0  0  0  0
 13 14  1  6  0  0  0
 15 16  1  0  0  0  0
 15 26  1  1  0  0  0
 16 18  1  0  0  0  0
 16 17  1  6  0  0  0
 18  4  1  1  0  0  0
 20 21  1  0  0  0  0
 20 27  1  0  0  0  0
 21 31  1  1  0  0  0
 21 23  1  0  0  0  0
 21 22  1  0  0  0  0
 23 24  1  0  0  0  0
 23 29  1  6  0  0  0
 24 25  1  0  0  0  0
 24 28  1  1  0  0  0
 25 27  1  0  0  0  0
 25 26  1  1  0  0  0
 29 30  1  0  0  0  0
M  CHG  5   6   1  10   1  14   1  19   1  29   1
M  END
>  <CHROM.1>
64.10331859,38.21509363,46.99729217,-175.39748195,63.48592886,179.40630666
-76.53694654,107.85224280,-176.73187728,170.25895307,40.82468207,-177.67054992
-172.73559609,6.45089877,6.63694535,-2.67911016,1.45427166,-0.54380389,2.95795304

>  <Name>
1byj cryst

>  <RI>
0

>  <Rbt.Current_Directory>
/home/itssahil/PROJECTS/Mol_Feturizer/New_Systems/rnas/1byj

>  <Rbt.Executable>
rbdock ($Id: //depot/dev/client3/rdock/2013.1/src/exe/rbdock.cxx#4 $)

>  <Rbt.Library>
libRbt.so (2013.1, Build901 2013/11/27)

>  <Rbt.Parameter_File>
/export/apps/rDock/src/rDock_2013.1_src/data/scripts/dock_solv.prm

>  <Rbt.Receptor>
prm/pocket_docking_5.prm

>  <SCORE>
-44.4789

>  <SCORE.INTER>
-37.8554

>  <SCORE.INTER.CONST>
1

>  <SCORE.INTER.POLAR>
-7.06855

>  <SCORE.INTER.ROT>
6

>  <SCORE.INTER.SOLV>
27.154

>  <SCORE.INTER.VDW>
-18.3264

>  <SCORE.INTER.norm>
-1.22114

>  <SCORE.INTRA>
-6.62354

>  <SCORE.INTRA.DIHEDRAL>
-6.23715

>  <SCORE.INTRA.DIHEDRAL.0>
18.4149

>  <SCORE.INTRA.POLAR>
-1.1666

>  <SCORE.INTRA.POLAR.0>
0

>  <SCORE.INTRA.REPUL>
-0.0917585

>  <SCORE.INTRA.REPUL.0>
0.092687

>  <SCORE.INTRA.SOLV>
1.2924

>  <SCORE.INTRA.SOLV.lig_0>
-120.37

>  <SCORE.INTRA.VDW>
0.274061

>  <SCORE.INTRA.VDW.0>
-1.75542

>  <SCORE.INTRA.norm>
-0.213662

>  <SCORE.RESTR>
0

>  <SCORE.RESTR.CAVITY>
0

>  <SCORE.RESTR.norm>
0

>  <SCORE.SYSTEM>
0

>  <SCORE.SYSTEM.CONST>
0

>  <SCORE.SYSTEM.DIHEDRAL>
0

>  <SCORE.SYSTEM.SOLV>
0

>  <SCORE.SYSTEM.norm>
0

>  <SCORE.heavy>
31

>  <SCORE.norm>
-1.4348

>  <RMSD>
5.092

$$$$
1byj cryst
 OpenBabel11021811383D
libRbt.so/2013.1/901 2013/11/27
 31 33  0  0  0  0  0  0  0  0999 V2000
    8.4904    1.1188   -0.9775 C   0  0  1  0  0  0  0  0  0  0  0  0
    8.2052    2.5464   -1.1280 O   0  0  0  0  0  0  0  0  0  0  0  0
    8.1079    3.1025   -2.4734 C   0  0  2  0  0  0  0  0  0  0  0  0
    6.9266    2.5998   -3.1722 O   0  0  0  0  0  0  0  0  0  0  0  0
    9.4096    2.7693   -3.2640 C   0  0  2  0  0  0  0  0  0  0  0  0
    9.4033    3.2940   -4.6437 N   0  3  0  0  0  0  0  0  0  0  0  0
    9.6515    1.2378   -3.2694 C   0  0  0  0  0  0  0  0  0  0  0  0
    9.7084    0.6831   -1.8381 C   0  0  0  0  0  0  0  0  0  0  0  0
    8.7776    0.8084    0.5021 C   0  0  0  0  0  0  0  0  0  0  0  0
    9.6499    1.7922    1.1567 N   0  3  0  0  0  0  0  0  0  0  0  0
    5.6528    4.5652   -2.4074 C   0  0  1  0  0  0  0  0  0  0  0  0
    4.3099    5.0670   -1.8230 C   0  0  0  0  0  0  0  0  0  0  0  0
    3.9715    4.3100   -0.5107 C   0  0  1  0  0  0  0  0  0  0  0  0
    2.7307    4.8516    0.0759 N   0  3  0  0  0  0  0  0  0  0  0  0
    3.8666    2.7813   -0.7822 C   0  0  1  0  0  0  0  0  0  0  0  0
    5.1448    2.2334   -1.4650 C   0  0  1  0  0  0  0  0  0  0  0  0
    4.8710    0.8850   -1.8158 O   0  0  0  0  0  0  0  0  0  0  0  0
    5.6035    3.0352   -2.7275 C   0  0  2  0  0  0  0  0  0  0  0  0
    6.0161    5.3594   -3.5942 N   0  3  0  0  0  0  0  0  0  0  0  0
    2.4676    0.7756    2.9516 C   0  0  0  0  0  0  0  0  0  0  0  0
    1.0099    1.2954    3.0009 C   0  0  2  0  0  0  0  0  0  0  0  0
    0.1574    0.1549    2.9082 O   0  0  0  0  0  0  0  0  0  0  0  0
    0.7635    2.2805    1.7966 C   0  0  1  0  0  0  0  0  0  0  0  0
    1.2517    1.7011    0.4255 C   0  0  2  0  0  0  0  0  0  0  0  0
    2.6531    1.0432    0.4970 C   0  0  1  0  0  0  0  0  0  0  0  0
    3.6991    2.0495    0.4656 O   0  0  0  0  0  0  0  0  0  0  0  0
    2.7657    0.1776    1.6619 O   0  0  0  0  0  0  0  0  0  0  0  0
    1.2649    2.7024   -0.5886 O   0  0  0  0  0  0  0  0  0  0  0  0
   -0.6860    2.6450    1.7296 N   0  3  0  0  0  0  0  0  0  0  0  0
   -1.1260    3.7976    2.5419 C   0  0  0  0  0  0  0  0  0  0  0  0
    0.7621    1.9439    4.3851 C   0  0  0  0  0  0  0  0  0  0  0  0
  1  8  1  0  0  0  0
  1  9  1  1  0  0  0
  1  2  1  0  0  0  0
  2  3  1  0  0  0  0
  3  5  1  0  0  0  0
  3  4  1  6  0  0  0
  5  7  1  0  0  0  0
  5  6  1  6  0  0  0
  7  8  1  0  0  0  0
  9 10  1  0  0  0  0
 11 12  1  0  0  0  0
 11 18  1  0  0  0  0
 11 19  1  6  0  0  0
 12 13  1  0  0  0  0
 13 15  1  0  0  0  0
 13 14  1  6  0  0  0
 15 16  1  0  0  0  0
 15 26  1  1  0  0  0
 16 18  1  0  0  0  0
 16 17  1  6  0  0  0
 18  4  1  1  0  0  0
 20 21  1  0  0  0  0
 20 27  1  0  0  0  0
 21 31  1  1  0  0  0
 21 23  1  0  0  0  0
 21 22  1  0  0  0  0
 23 24  1  0  0  0  0
 23 29  1  6  0  0  0
 24 25  1  0  0  0  0
 24 28  1  6  0  0  0
 25 27  1  0  0  0  0
 25 26  1  1  0  0  0
 29 30  1  0  0  0  0
M  CHG  5   6   1  10   1  14   1  19   1  29   1
M  END
>  <CHROM.1>
-43.48167117,69.73314373,41.81588896,174.41339426,-71.81040295,-55.87573039
-148.95916271,132.74791826,-147.13331230,-58.93249189,-151.61565504,-66.00188477
-68.26559505,4.67611534,2.38471282,-0.40402666,-0.42503829,-0.32894520,2.29635656

>  <Name>
1byj cryst

>  <RI>
0

>  <Rbt.Current_Directory>
/home/itssahil/PROJECTS/Mol_Feturizer/New_Systems/rnas/1byj

>  <Rbt.Executable>
rbdock ($Id: //depot/dev/client3/rdock/2013.1/src/exe/rbdock.cxx#4 $)

>  <Rbt.Library>
libRbt.so (2013.1, Build901 2013/11/27)

>  <Rbt.Parameter_File>
/export/apps/rDock/src/rDock_2013.1_src/data/scripts/dock_solv.prm

>  <Rbt.Receptor>
prm/pocket_docking_7.prm

>  <SCORE>
-38.1395

>  <SCORE.INTER>
-34.4204

>  <SCORE.INTER.CONST>
1

>  <SCORE.INTER.POLAR>
-5.08915

>  <SCORE.INTER.ROT>
6

>  <SCORE.INTER.SOLV>
21.3557

>  <SCORE.INTER.VDW>
-20.7017

>  <SCORE.INTER.norm>
-1.11034

>  <SCORE.INTRA>
-3.71911

>  <SCORE.INTRA.DIHEDRAL>
-0.280027

>  <SCORE.INTRA.DIHEDRAL.0>
18.4149

>  <SCORE.INTRA.POLAR>
-1.12144

>  <SCORE.INTRA.POLAR.0>
0

>  <SCORE.INTRA.REPUL>
-0.092687

>  <SCORE.INTRA.REPUL.0>
0.092687

>  <SCORE.INTRA.SOLV>
3.21382

>  <SCORE.INTRA.SOLV.lig_0>
-120.37

>  <SCORE.INTRA.VDW>
-0.909658

>  <SCORE.INTRA.VDW.0>
-1.75542

>  <SCORE.INTRA.norm>
-0.119971

>  <SCORE.RESTR>
0

>  <SCORE.RESTR.CAVITY>
0

>  <SCORE.RESTR.norm>
0

>  <SCORE.SYSTEM>
0

>  <SCORE.SYSTEM.CONST>
0

>  <SCORE.SYSTEM.DIHEDRAL>
0

>  <SCORE.SYSTEM.SOLV>
0

>  <SCORE.SYSTEM.norm>
0

>  <SCORE.heavy>
31

>  <SCORE.norm>
-1.23031

>  <RMSD>
5.107

$$$$
1byj cryst
 OpenBabel11021811383D
libRbt.so/2013.1/901 2013/11/27
 31 33  0  0  0  0  0  0  0  0999 V2000
    7.3051    6.8495   -3.5038 C   0  0  1  0  0  0  0  0  0  0  0  0
    6.1590    6.5268   -2.6527 O   0  0  0  0  0  0  0  0  0  0  0  0
    5.5187    7.6027   -1.9036 C   0  0  2  0  0  0  0  0  0  0  0  0
    4.8339    8.5369   -2.7953 O   0  0  0  0  0  0  0  0  0  0  0  0
    6.5888    8.3366   -1.0395 C   0  0  2  0  0  0  0  0  0  0  0  0
    6.0318    9.4470   -0.2422 N   0  3  0  0  0  0  0  0  0  0  0  0
    7.7434    8.8447   -1.9410 C   0  0  0  0  0  0  0  0  0  0  0  0
    8.3659    7.6917   -2.7427 C   0  0  0  0  0  0  0  0  0  0  0  0
    7.9542    5.5464   -4.0024 C   0  0  0  0  0  0  0  0  0  0  0  0
    7.0495    4.6941   -4.7849 N   0  3  0  0  0  0  0  0  0  0  0  0
    2.8811    9.5712   -1.7058 C   0  0  1  0  0  0  0  0  0  0  0  0
    1.3379    9.5667   -1.5819 C   0  0  0  0  0  0  0  0  0  0  0  0
    0.8273    8.1509   -1.2017 C   0  0  1  0  0  0  0  0  0  0  0  0
   -0.6354    8.1790   -1.0109 N   0  3  0  0  0  0  0  0  0  0  0  0
    1.2521    7.1163   -2.2838 C   0  0  1  0  0  0  0  0  0  0  0  0
    2.7813    7.1438   -2.5312 C   0  0  1  0  0  0  0  0  0  0  0  0
    3.0277    6.2952   -3.6427 O   0  0  0  0  0  0  0  0  0  0  0  0
    3.3721    8.5672   -2.7998 C   0  0  2  0  0  0  0  0  0  0  0  0
    3.3635   10.9392   -1.9650 N   0  3  0  0  0  0  0  0  0  0  0  0
    0.6618    3.3464   -3.7094 C   0  0  0  0  0  0  0  0  0  0  0  0
   -0.0268    2.2497   -2.8604 C   0  0  2  0  0  0  0  0  0  0  0  0
   -1.2572    1.9315   -3.5092 O   0  0  0  0  0  0  0  0  0  0  0  0
   -0.2836    2.7969   -1.4057 C   0  0  1  0  0  0  0  0  0  0  0  0
   -0.9564    4.2115   -1.3966 C   0  0  2  0  0  0  0  0  0  0  0  0
   -0.3179    5.2054   -2.3998 C   0  0  1  0  0  0  0  0  0  0  0  0
    0.9095    5.7649   -1.8631 O   0  0  0  0  0  0  0  0  0  0  0  0
   -0.1085    4.5778   -3.6964 O   0  0  0  0  0  0  0  0  0  0  0  0
   -0.9319    4.7921   -0.0953 O   0  0  0  0  0  0  0  0  0  0  0  0
   -1.1081    1.8153   -0.6343 N   0  3  0  0  0  0  0  0  0  0  0  0
   -1.1169    1.9559    0.8360 C   0  0  0  0  0  0  0  0  0  0  0  0
    0.8524    0.9753   -2.8906 C   0  0  0  0  0  0  0  0  0  0  0  0
  1  8  1  0  0  0  0
  1  9  1  1  0  0  0
  1  2  1  0  0  0  0
  2  3  1  0  0  0  0
  3  5  1  0  0  0  0
  3  4  1  6  0  0  0
  5  7  1  0  0  0  0
  5  6  1  6  0  0  0
  7  8  1  0  0  0  0
  9 10  1  0  0  0  0
 11 12  1  0  0  0  0
 11 18  1  0  0  0  0
 11 19  1  6  0  0  0
 12 13  1  0  0  0  0
 13 15  1  0  0  0  0
 13 14  1  6  0  0  0
 15 16  1  0  0  0  0
 15 26  1  1  0  0  0
 16 18  1  0  0  0  0
 16 17  1  6  0  0  0
 18  4  1  1  0  0  0
 20 21  1  0  0  0  0
 20 27  1  0  0  0  0
 21 31  1  1  0  0  0
 21 23  1  0  0  0  0
 21 22  1  0  0  0  0
 23 24  1  0  0  0  0
 23 29  1  1  0  0  0
 24 25  1  0  0  0  0
 24 28  1  1  0  0  0
 25 27  1  0  0  0  0
 25 26  1  1  0  0  0
 29 30  1  0  0  0  0
M  CHG  5   6   1  10   1  14   1  19   1  29   1
M  END
>  <CHROM.1>
59.74587209,109.83000277,88.16604001,-63.41178587,51.92082654,71.34704623
-62.49373350,98.54276389,58.91385388,-75.44727691,-76.40978031,-163.35387636
-149.46758234,2.61510581,6.09576896,-2.19302829,-0.57603438,-0.27899667,-2.86911549

>  <Name>
1byj cryst

>  <RI>
0

>  <Rbt.Current_Directory>
/home/itssahil/PROJECTS/Mol_Feturizer/New_Systems/rnas/1byj

>  <Rbt.Executable>
rbdock ($Id: //depot/dev/client3/rdock/2013.1/src/exe/rbdock.cxx#4 $)

>  <Rbt.Library>
libRbt.so (2013.1, Build901 2013/11/27)

>  <Rbt.Parameter_File>
/export/apps/rDock/src/rDock_2013.1_src/data/scripts/dock_solv.prm

>  <Rbt.Receptor>
prm/pocket_docking_6.prm

>  <SCORE>
-30.5454

>  <SCORE.INTER>
-31.2824

>  <SCORE.INTER.CONST>
1

>  <SCORE.INTER.POLAR>
-5.46895

>  <SCORE.INTER.ROT>
6

>  <SCORE.INTER.SOLV>
18.7864

>  <SCORE.INTER.VDW>
-16.4872

>  <SCORE.INTER.norm>
-1.00911

>  <SCORE.INTRA>
0.736988

>  <SCORE.INTRA.DIHEDRAL>
4.14593

>  <SCORE.INTRA.DIHEDRAL.0>
18.4149

>  <SCORE.INTRA.POLAR>
-0.00369828

>  <SCORE.INTRA.POLAR.0>
0

>  <SCORE.INTRA.REPUL>
-0.092687

>  <SCORE.INTRA.REPUL.0>
0.092687

>  <SCORE.INTRA.SOLV>
1.49928

>  <SCORE.INTRA.SOLV.lig_0>
-120.37

>  <SCORE.INTRA.VDW>
-1.60961

>  <SCORE.INTRA.VDW.0>
-1.75542

>  <SCORE.INTRA.norm>
0.0237738

>  <SCORE.RESTR>
0

>  <SCORE.RESTR.CAVITY>
0

>  <SCORE.RESTR.norm>
0

>  <SCORE.SYSTEM>
0

>  <SCORE.SYSTEM.CONST>
0

>  <SCORE.SYSTEM.DIHEDRAL>
0

>  <SCORE.SYSTEM.SOLV>
0

>  <SCORE.SYSTEM.norm>
0

>  <SCORE.heavy>
31

>  <SCORE.norm>
-0.985335

>  <RMSD>
5.125

$$$$
1byj cryst
 OpenBabel11021811383D
libRbt.so/2013.1/901 2013/11/27
 31 33  0  0  0  0  0  0  0  0999 V2000
    5.7127    2.1692    2.2370 C   0  0  1  0  0  0  0  0  0  0  0  0
    6.2575    3.2659    1.4353 O   0  0  0  0  0  0  0  0  0  0  0  0
    7.7058    3.4253    1.3601 C   0  0  2  0  0  0  0  0  0  0  0  0
    8.3238    2.3263    0.6205 O   0  0  0  0  0  0  0  0  0  0  0  0
    8.2886    3.5264    2.8024 C   0  0  2  0  0  0  0  0  0  0  0  0
    9.7555    3.6902    2.8276 N   0  3  0  0  0  0  0  0  0  0  0  0
    7.8690    2.2869    3.6340 C   0  0  0  0  0  0  0  0  0  0  0  0
    6.3412    2.1295    3.6573 C   0  0  0  0  0  0  0  0  0  0  0  0
    4.1880    2.3357    2.3613 C   0  0  0  0  0  0  0  0  0  0  0  0
    3.4824    2.3238    1.0732 N   0  3  0  0  0  0  0  0  0  0  0  0
    9.6529    2.0085   -1.4297 C   0  0  1  0  0  0  0  0  0  0  0  0
    9.6558    2.0984   -2.9752 C   0  0  0  0  0  0  0  0  0  0  0  0
    9.2428    3.5215   -3.4376 C   0  0  1  0  0  0  0  0  0  0  0  0
    9.3251    3.6156   -4.9077 N   0  3  0  0  0  0  0  0  0  0  0  0
    7.8192    3.8668   -2.9124 C   0  0  1  0  0  0  0  0  0  0  0  0
    7.7201    3.6953   -1.3758 C   0  0  1  0  0  0  0  0  0  0  0  0
    6.3524    3.8677   -1.0358 O   0  0  0  0  0  0  0  0  0  0  0  0
    8.2386    2.3203   -0.8392 C   0  0  2  0  0  0  0  0  0  0  0  0
   10.1447    0.6879   -0.9990 N   0  3  0  0  0  0  0  0  0  0  0  0
    4.4575    5.5851   -2.9968 C   0  0  0  0  0  0  0  0  0  0  0  0
    4.1784    7.0610   -3.3730 C   0  0  2  0  0  0  0  0  0  0  0  0
    3.3437    7.0454   -4.5302 O   0  0  0  0  0  0  0  0  0  0  0  0
    5.5410    7.7923   -3.6728 C   0  0  1  0  0  0  0  0  0  0  0  0
    6.4637    6.9859   -4.6488 C   0  0  2  0  0  0  0  0  0  0  0  0
    6.5566    5.4774   -4.3057 C   0  0  1  0  0  0  0  0  0  0  0  0
    7.4844    5.2519   -3.2122 O   0  0  0  0  0  0  0  0  0  0  0  0
    5.2402    4.9227   -4.0256 O   0  0  0  0  0  0  0  0  0  0  0  0
    7.7802    7.5301   -4.6905 O   0  0  0  0  0  0  0  0  0  0  0  0
    5.2722    9.1620   -4.2113 N   0  3  0  0  0  0  0  0  0  0  0  0
    4.8965   10.2047   -3.2349 C   0  0  0  0  0  0  0  0  0  0  0  0
    3.3675    7.7185   -2.2293 C   0  0  0  0  0  0  0  0  0  0  0  0
  1  8  1  0  0  0  0
  1  9  1  1  0  0  0
  1  2  1  0  0  0  0
  2  3  1  0  0  0  0
  3  5  1  0  0  0  0
  3  4  1  1  0  0  0
  5  7  1  0  0  0  0
  5  6  1  6  0  0  0
  7  8  1  0  0  0  0
  9 10  1  0  0  0  0
 11 12  1  0  0  0  0
 11 18  1  0  0  0  0
 11 19  1  6  0  0  0
 12 13  1  0  0  0  0
 13 15  1  0  0  0  0
 13 14  1  6  0  0  0
 15 16  1  0  0  0  0
 15 26  1  1  0  0  0
 16 18  1  0  0  0  0
 16 17  1  6  0  0  0
 18  4  1  1  0  0  0
 20 21  1  0  0  0  0
 20 27  1  0  0  0  0
 21 31  1  1  0  0  0
 21 23  1  0  0  0  0
 21 22  1  0  0  0  0
 23 24  1  0  0  0  0
 23 29  1  6  0  0  0
 24 25  1  0  0  0  0
 24 28  1  1  0  0  0
 25 27  1  0  0  0  0
 25 26  1  1  0  0  0
 29 30  1  0  0  0  0
M  CHG  5   6   1  10   1  14   1  19   1  29   1
M  END
>  <CHROM.1>
60.12731214,77.05759935,133.14642811,42.07575225,-176.60059210,-62.48754059
-175.81822729,104.30696770,64.61075215,56.91510484,-160.73522787,-175.16310310
-171.30882175,6.78875426,4.45702743,-1.41849405,1.22099384,-0.57375655,2.10263760

>  <Name>
1byj cryst

>  <RI>
0

>  <Rbt.Current_Directory>
/home/itssahil/PROJECTS/Mol_Feturizer/New_Systems/rnas/1byj

>  <Rbt.Executable>
rbdock ($Id: //depot/dev/client3/rdock/2013.1/src/exe/rbdock.cxx#4 $)

>  <Rbt.Library>
libRbt.so (2013.1, Build901 2013/11/27)

>  <Rbt.Parameter_File>
/export/apps/rDock/src/rDock_2013.1_src/data/scripts/dock_solv.prm

>  <Rbt.Receptor>
prm/pocket_docking_6.prm

>  <SCORE>
-35.2747

>  <SCORE.INTER>
-33.3842

>  <SCORE.INTER.CONST>
1

>  <SCORE.INTER.POLAR>
-5.08067

>  <SCORE.INTER.ROT>
6

>  <SCORE.INTER.SOLV>
27.9956

>  <SCORE.INTER.VDW>
-22.2524

>  <SCORE.INTER.norm>
-1.07691

>  <SCORE.INTRA>
-1.89058

>  <SCORE.INTRA.DIHEDRAL>
-2.08852

>  <SCORE.INTRA.DIHEDRAL.0>
18.4149

>  <SCORE.INTRA.POLAR>
-0.0725212

>  <SCORE.INTRA.POLAR.0>
0

>  <SCORE.INTRA.REPUL>
-0.0749935

>  <SCORE.INTRA.REPUL.0>
0.092687

>  <SCORE.INTRA.SOLV>
-3.37291

>  <SCORE.INTRA.SOLV.lig_0>
-120.37

>  <SCORE.INTRA.VDW>
1.46168

>  <SCORE.INTRA.VDW.0>
-1.75542

>  <SCORE.INTRA.norm>
-0.0609865

>  <SCORE.RESTR>
0

>  <SCORE.RESTR.CAVITY>
0

>  <SCORE.RESTR.norm>
0

>  <SCORE.SYSTEM>
0

>  <SCORE.SYSTEM.CONST>
0

>  <SCORE.SYSTEM.DIHEDRAL>
0

>  <SCORE.SYSTEM.SOLV>
0

>  <SCORE.SYSTEM.norm>
0

>  <SCORE.heavy>
31

>  <SCORE.norm>
-1.13789

>  <RMSD>
5.127

$$$$
1byj cryst
 OpenBabel11021811383D
libRbt.so/2013.1/901 2013/11/27
 31 33  0  0  0  0  0  0  0  0999 V2000
    7.0097    7.1202   -3.2728 C   0  0  1  0  0  0  0  0  0  0  0  0
    6.4091    5.8009   -3.0706 O   0  0  0  0  0  0  0  0  0  0  0  0
    7.2779    4.6832   -2.7176 C   0  0  2  0  0  0  0  0  0  0  0  0
    7.8332    4.8450   -1.3752 O   0  0  0  0  0  0  0  0  0  0  0  0
    8.4114    4.5561   -3.7803 C   0  0  2  0  0  0  0  0  0  0  0  0
    9.3454    3.4465   -3.5057 N   0  3  0  0  0  0  0  0  0  0  0  0
    9.1834    5.8956   -3.8976 C   0  0  0  0  0  0  0  0  0  0  0  0
    8.2311    7.0540   -4.2307 C   0  0  0  0  0  0  0  0  0  0  0  0
    5.9563    8.0767   -3.8590 C   0  0  0  0  0  0  0  0  0  0  0  0
    5.0696    7.4494   -4.8477 N   0  3  0  0  0  0  0  0  0  0  0  0
    7.4084    2.9048    0.0828 C   0  0  1  0  0  0  0  0  0  0  0  0
    6.5283    2.3319    1.2202 C   0  0  0  0  0  0  0  0  0  0  0  0
    5.0270    2.3948    0.8301 C   0  0  1  0  0  0  0  0  0  0  0  0
    4.2067    1.7753    1.8884 N   0  3  0  0  0  0  0  0  0  0  0  0
    4.6035    3.8665    0.5535 C   0  0  1  0  0  0  0  0  0  0  0  0
    5.5155    4.5338   -0.5062 C   0  0  1  0  0  0  0  0  0  0  0  0
    5.1496    5.9050   -0.5506 O   0  0  0  0  0  0  0  0  0  0  0  0
    7.0484    4.3950   -0.2265 C   0  0  2  0  0  0  0  0  0  0  0  0
    8.8345    2.7464    0.4182 N   0  3  0  0  0  0  0  0  0  0  0  0
    2.5095    6.5513    1.4066 C   0  0  0  0  0  0  0  0  0  0  0  0
    1.1168    6.9315    0.8467 C   0  0  2  0  0  0  0  0  0  0  0  0
    0.2187    6.9709    1.9549 O   0  0  0  0  0  0  0  0  0  0  0  0
    0.6626    5.8520   -0.2067 C   0  0  1  0  0  0  0  0  0  0  0  0
    0.8280    4.3841    0.3149 C   0  0  2  0  0  0  0  0  0  0  0  0
    2.1855    4.1275    1.0172 C   0  0  1  0  0  0  0  0  0  0  0  0
    3.2410    3.9200    0.0423 O   0  0  0  0  0  0  0  0  0  0  0  0
    2.5055    5.2023    1.9453 O   0  0  0  0  0  0  0  0  0  0  0  0
    0.6679    3.4360   -0.7371 O   0  0  0  0  0  0  0  0  0  0  0  0
   -0.7527    6.1100   -0.6173 N   0  3  0  0  0  0  0  0  0  0  0  0
   -1.2901    5.2915   -1.7232 C   0  0  0  0  0  0  0  0  0  0  0  0
    1.1919    8.3643    0.2640 C   0  0  0  0  0  0  0  0  0  0  0  0
  1  8  1  0  0  0  0
  1  9  1  6  0  0  0
  1  2  1  0  0  0  0
  2  3  1  0  0  0  0
  3  5  1  0  0  0  0
  3  4  1  1  0  0  0
  5  7  1  0  0  0  0
  5  6  1  1  0  0  0
  7  8  1  0  0  0  0
  9 10  1  0  0  0  0
 11 12  1  0  0  0  0
 11 18  1  0  0  0  0
 11 19  1  1  0  0  0
 12 13  1  0  0  0  0
 13 15  1  0  0  0  0
 13 14  1  1  0  0  0
 15 16  1  0  0  0  0
 15 26  1  6  0  0  0
 16 18  1  0  0  0  0
 16 17  1  1  0  0  0
 18  4  1  6  0  0  0
 20 21  1  0  0  0  0
 20 27  1  0  0  0  0
 21 31  1  6  0  0  0
 21 23  1  0  0  0  0
 21 22  1  0  0  0  0
 23 24  1  0  0  0  0
 23 29  1  1  0  0  0
 24 25  1  0  0  0  0
 24 28  1  6  0  0  0
 25 27  1  0  0  0  0
 25 26  1  6  0  0  0
 29 30  1  0  0  0  0
M  CHG  5   6   1  10   1  14   1  19   1  29   1
M  END
>  <CHROM.1>
-38.63502171,85.10134108,90.44464888,170.68556677,-167.23916096,-166.98213501
-164.90867173,93.80263259,62.15534408,-62.29099667,-66.15690036,-174.37420717
171.09860558,4.56068225,5.04968607,-0.84534786,0.22971702,0.34282553,-0.80727147

>  <Name>
1byj cryst

>  <RI>
0

>  <Rbt.Current_Directory>
/home/itssahil/PROJECTS/Mol_Feturizer/New_Systems/rnas/1byj

>  <Rbt.Executable>
rbdock ($Id: //depot/dev/client3/rdock/2013.1/src/exe/rbdock.cxx#4 $)

>  <Rbt.Library>
libRbt.so (2013.1, Build901 2013/11/27)

>  <Rbt.Parameter_File>
/export/apps/rDock/src/rDock_2013.1_src/data/scripts/dock_solv.prm

>  <Rbt.Receptor>
prm/pocket_docking_4.prm

>  <SCORE>
-25.6166

>  <SCORE.INTER>
-22.5376

>  <SCORE.INTER.CONST>
1

>  <SCORE.INTER.POLAR>
-4.15482

>  <SCORE.INTER.ROT>
6

>  <SCORE.INTER.SOLV>
19.2151

>  <SCORE.INTER.VDW>
-15.1807

>  <SCORE.INTER.norm>
-0.727018

>  <SCORE.INTRA>
-3.07901

>  <SCORE.INTRA.DIHEDRAL>
-3.65398

>  <SCORE.INTRA.DIHEDRAL.0>
18.4149

>  <SCORE.INTRA.POLAR>
-0.00671793

>  <SCORE.INTRA.POLAR.0>
0

>  <SCORE.INTRA.REPUL>
-0.0305886

>  <SCORE.INTRA.REPUL.0>
0.092687

>  <SCORE.INTRA.SOLV>
-0.390606

>  <SCORE.INTRA.SOLV.lig_0>
-120.37

>  <SCORE.INTRA.VDW>
-0.880933

>  <SCORE.INTRA.VDW.0>
-1.75542

>  <SCORE.INTRA.norm>
-0.099323

>  <SCORE.RESTR>
0

>  <SCORE.RESTR.CAVITY>
0

>  <SCORE.RESTR.norm>
0

>  <SCORE.SYSTEM>
0

>  <SCORE.SYSTEM.CONST>
0

>  <SCORE.SYSTEM.DIHEDRAL>
0

>  <SCORE.SYSTEM.SOLV>
0

>  <SCORE.SYSTEM.norm>
0

>  <SCORE.heavy>
31

>  <SCORE.norm>
-0.826341

>  <RMSD>
5.145

$$$$
1byj cryst
 OpenBabel11021811383D
libRbt.so/2013.1/901 2013/11/27
 31 33  0  0  0  0  0  0  0  0999 V2000
    6.2361    2.3922    2.2033 C   0  0  1  0  0  0  0  0  0  0  0  0
    6.6793    3.4611    1.3070 O   0  0  0  0  0  0  0  0  0  0  0  0
    7.6859    3.1545    0.2965 C   0  0  2  0  0  0  0  0  0  0  0  0
    7.1545    2.2578   -0.7283 O   0  0  0  0  0  0  0  0  0  0  0  0
    8.9379    2.5343    0.9880 C   0  0  2  0  0  0  0  0  0  0  0  0
   10.0157    2.1894    0.0401 N   0  3  0  0  0  0  0  0  0  0  0  0
    8.5267    1.2888    1.8149 C   0  0  0  0  0  0  0  0  0  0  0  0
    7.4384    1.6418    2.8398 C   0  0  0  0  0  0  0  0  0  0  0  0
    5.3629    2.9910    3.3200 C   0  0  0  0  0  0  0  0  0  0  0  0
    5.0907    2.0611    4.4239 N   0  3  0  0  0  0  0  0  0  0  0  0
    8.7206    2.2594   -2.6304 C   0  0  1  0  0  0  0  0  0  0  0  0
    8.9628    2.7357   -4.0833 C   0  0  0  0  0  0  0  0  0  0  0  0
    8.8057    4.2768   -4.1835 C   0  0  1  0  0  0  0  0  0  0  0  0
    9.1152    4.7252   -5.5547 N   0  3  0  0  0  0  0  0  0  0  0  0
    7.3753    4.7023   -3.7423 C   0  0  1  0  0  0  0  0  0  0  0  0
    7.0298    4.1660   -2.3305 C   0  0  1  0  0  0  0  0  0  0  0  0
    5.6597    4.4644   -2.1073 O   0  0  0  0  0  0  0  0  0  0  0  0
    7.2856    2.6351   -2.1348 C   0  0  2  0  0  0  0  0  0  0  0  0
    8.9727    0.8115   -2.5242 N   0  3  0  0  0  0  0  0  0  0  0  0
    4.4040    7.0266   -3.0838 C   0  0  0  0  0  0  0  0  0  0  0  0
    4.4229    8.5734   -3.1519 C   0  0  2  0  0  0  0  0  0  0  0  0
    3.5255    8.9558   -4.1933 O   0  0  0  0  0  0  0  0  0  0  0  0
    5.8864    9.0668   -3.4619 C   0  0  1  0  0  0  0  0  0  0  0  0
    6.5438    8.3074   -4.6641 C   0  0  2  0  0  0  0  0  0  0  0  0
    6.3342    6.7727   -4.6139 C   0  0  1  0  0  0  0  0  0  0  0  0
    7.2661    6.1535   -3.6888 O   0  0  0  0  0  0  0  0  0  0  0  0
    4.9523    6.4436   -4.2960 O   0  0  0  0  0  0  0  0  0  0  0  0
    7.9403    8.5783   -4.7509 O   0  0  0  0  0  0  0  0  0  0  0  0
    5.8811   10.5423   -3.7090 N   0  3  0  0  0  0  0  0  0  0  0  0
    7.1923   11.2217   -3.7414 C   0  0  0  0  0  0  0  0  0  0  0  0
    3.8541    9.1342   -1.8252 C   0  0  0  0  0  0  0  0  0  0  0  0
  1  8  1  0  0  0  0
  1  9  1  1  0  0  0
  1  2  1  0  0  0  0
  2  3  1  0  0  0  0
  3  5  1  0  0  0  0
  3  4  1  6  0  0  0
  5  7  1  0  0  0  0
  5  6  1  6  0  0  0
  7  8  1  0  0  0  0
  9 10  1  0  0  0  0
 11 12  1  0  0  0  0
 11 18  1  0  0  0  0
 11 19  1  6  0  0  0
 12 13  1  0  0  0  0
 13 15  1  0  0  0  0
 13 14  1  6  0  0  0
 15 16  1  0  0  0  0
 15 26  1  1  0  0  0
 16 18  1  0  0  0  0
 16 17  1  6  0  0  0
 18  4  1  1  0  0  0
 20 21  1  0  0  0  0
 20 27  1  0  0  0  0
 21 31  1  1  0  0  0
 21 23  1  0  0  0  0
 21 22  1  0  0  0  0
 23 24  1  0  0  0  0
 23 29  1  6  0  0  0
 24 25  1  0  0  0  0
 24 28  1  1  0  0  0
 25 27  1  0  0  0  0
 25 26  1  1  0  0  0
 29 30  1  0  0  0  0
M  CHG  5   6   1  10   1  14   1  19   1  29   1
M  END
>  <CHROM.1>
-168.17634593,127.65157236,81.57703993,-70.54299599,-161.73127720,-164.61990396
-165.61536157,116.09142994,58.07815121,-65.94102580,-71.12326342,-177.93561525
-167.65949904,6.87675268,5.02446740,-1.88507971,1.28478939,-0.85423584,2.24765932

>  <Name>
1byj cryst

>  <RI>
0

>  <Rbt.Current_Directory>
/home/itssahil/PROJECTS/Mol_Feturizer/New_Systems/rnas/1byj

>  <Rbt.Executable>
rbdock ($Id: //depot/dev/client3/rdock/2013.1/src/exe/rbdock.cxx#4 $)

>  <Rbt.Library>
libRbt.so (2013.1, Build901 2013/11/27)

>  <Rbt.Parameter_File>
/export/apps/rDock/src/rDock_2013.1_src/data/scripts/dock_solv.prm

>  <Rbt.Receptor>
prm/pocket_docking_6.prm

>  <SCORE>
-43.7322

>  <SCORE.INTER>
-46.2461

>  <SCORE.INTER.CONST>
1

>  <SCORE.INTER.POLAR>
-7.03097

>  <SCORE.INTER.ROT>
6

>  <SCORE.INTER.SOLV>
30.6299

>  <SCORE.INTER.VDW>
-25.2041

>  <SCORE.INTER.norm>
-1.49181

>  <SCORE.INTRA>
2.51397

>  <SCORE.INTRA.DIHEDRAL>
1.82806

>  <SCORE.INTRA.DIHEDRAL.0>
18.4149

>  <SCORE.INTRA.POLAR>
-0.00832771

>  <SCORE.INTRA.POLAR.0>
0

>  <SCORE.INTRA.REPUL>
-0.0565414

>  <SCORE.INTRA.REPUL.0>
0.092687

>  <SCORE.INTRA.SOLV>
4.04712

>  <SCORE.INTRA.SOLV.lig_0>
-120.37

>  <SCORE.INTRA.VDW>
-0.112608

>  <SCORE.INTRA.VDW.0>
-1.75542

>  <SCORE.INTRA.norm>
0.0810957

>  <SCORE.RESTR>
0

>  <SCORE.RESTR.CAVITY>
0

>  <SCORE.RESTR.norm>
0

>  <SCORE.SYSTEM>
0

>  <SCORE.SYSTEM.CONST>
0

>  <SCORE.SYSTEM.DIHEDRAL>
0

>  <SCORE.SYSTEM.SOLV>
0

>  <SCORE.SYSTEM.norm>
0

>  <SCORE.heavy>
31

>  <SCORE.norm>
-1.41072

>  <RMSD>
5.145

$$$$
1byj cryst
 OpenBabel11021811383D
libRbt.so/2013.1/901 2013/11/27
 31 33  0  0  0  0  0  0  0  0999 V2000
    6.1342    4.5122    1.2647 C   0  0  1  0  0  0  0  0  0  0  0  0
    7.4517    4.3251    0.6553 O   0  0  0  0  0  0  0  0  0  0  0  0
    7.9529    2.9667    0.4754 C   0  0  2  0  0  0  0  0  0  0  0  0
    7.1762    2.2422   -0.5289 O   0  0  0  0  0  0  0  0  0  0  0  0
    7.9283    2.2228    1.8452 C   0  0  2  0  0  0  0  0  0  0  0  0
    8.4201    0.8335    1.7623 N   0  3  0  0  0  0  0  0  0  0  0  0
    6.4978    2.2548    2.4425 C   0  0  0  0  0  0  0  0  0  0  0  0
    5.9894    3.6978    2.5798 C   0  0  0  0  0  0  0  0  0  0  0  0
    5.9183    6.0057    1.5663 C   0  0  0  0  0  0  0  0  0  0  0  0
    4.5648    6.3266    2.0378 N   0  3  0  0  0  0  0  0  0  0  0  0
    8.7797    2.3192   -2.3980 C   0  0  1  0  0  0  0  0  0  0  0  0
    9.0254    2.7981   -3.8495 C   0  0  0  0  0  0  0  0  0  0  0  0
    8.7836    4.3271   -3.9656 C   0  0  1  0  0  0  0  0  0  0  0  0
    9.0964    4.7826   -5.3337 N   0  3  0  0  0  0  0  0  0  0  0  0
    7.3225    4.6741   -3.5577 C   0  0  1  0  0  0  0  0  0  0  0  0
    6.9780    4.1290   -2.1490 C   0  0  1  0  0  0  0  0  0  0  0  0
    5.5888    4.3510   -1.9568 O   0  0  0  0  0  0  0  0  0  0  0  0
    7.3156    2.6164   -1.9355 C   0  0  2  0  0  0  0  0  0  0  0  0
    9.1109    0.8886   -2.2747 N   0  3  0  0  0  0  0  0  0  0  0  0
    4.2986    7.1197   -2.9749 C   0  0  0  0  0  0  0  0  0  0  0  0
    4.3596    8.6536   -3.1773 C   0  0  2  0  0  0  0  0  0  0  0  0
    3.4644    8.9693   -4.2427 O   0  0  0  0  0  0  0  0  0  0  0  0
    5.8335    9.0768   -3.5377 C   0  0  1  0  0  0  0  0  0  0  0  0
    6.4596    8.1977   -4.6731 C   0  0  2  0  0  0  0  0  0  0  0  0
    6.2083    6.6796   -4.4884 C   0  0  1  0  0  0  0  0  0  0  0  0
    7.1304    6.1170   -3.5184 O   0  0  0  0  0  0  0  0  0  0  0  0
    4.8205    6.4185   -4.1350 O   0  0  0  0  0  0  0  0  0  0  0  0
    7.8623    8.4206   -4.7914 O   0  0  0  0  0  0  0  0  0  0  0  0
    5.8668   10.5249   -3.9121 N   0  3  0  0  0  0  0  0  0  0  0  0
    7.1974   11.1416   -4.0883 C   0  0  0  0  0  0  0  0  0  0  0  0
    3.8175    9.3432   -1.9011 C   0  0  0  0  0  0  0  0  0  0  0  0
  1  8  1  0  0  0  0
  1  9  1  1  0  0  0
  1  2  1  0  0  0  0
  2  3  1  0  0  0  0
  3  5  1  0  0  0  0
  3  4  1  6  0  0  0
  5  7  1  0  0  0  0
  5  6  1  6  0  0  0
  7  8  1  0  0  0  0
  9 10  1  0  0  0  0
 11 12  1  0  0  0  0
 11 18  1  0  0  0  0
 11 19  1  6  0  0  0
 12 13  1  0  0  0  0
 13 15  1  0  0  0  0
 13 14  1  6  0  0  0
 15 16  1  0  0  0  0
 15 26  1  1  0  0  0
 16 18  1  0  0  0  0
 16 17  1  6  0  0  0
 18  4  1  1  0  0  0
 20 21  1  0  0  0  0
 20 27  1  0  0  0  0
 21 31  1  1  0  0  0
 21 23  1  0  0  0  0
 21 22  1  0  0  0  0
 23 24  1  0  0  0  0
 23 29  1  6  0  0  0
 24 25  1  0  0  0  0
 24 28  1  1  0  0  0
 25 27  1  0  0  0  0
 25 26  1  1  0  0  0
 29 30  1  0  0  0  0
M  CHG  5   6   1  10   1  14   1  19   1  29   1
M  END
>  <CHROM.1>
173.32017817,71.20245528,64.44142337,76.69784588,-175.85047549,58.15359883
63.39402816,114.70306684,-179.02315706,-67.41327292,-67.65385835,-173.77755604
-160.31531042,6.68307413,5.39548929,-1.91132363,1.15645354,-0.93213913,2.19902586

>  <Name>
1byj cryst

>  <RI>
0

>  <Rbt.Current_Directory>
/home/itssahil/PROJECTS/Mol_Feturizer/New_Systems/rnas/1byj

>  <Rbt.Executable>
rbdock ($Id: //depot/dev/client3/rdock/2013.1/src/exe/rbdock.cxx#4 $)

>  <Rbt.Library>
libRbt.so (2013.1, Build901 2013/11/27)

>  <Rbt.Parameter_File>
/export/apps/rDock/src/rDock_2013.1_src/data/scripts/dock_solv.prm

>  <Rbt.Receptor>
prm/pocket_docking_5.prm

>  <SCORE>
-42.1746

>  <SCORE.INTER>
-36.3326

>  <SCORE.INTER.CONST>
1

>  <SCORE.INTER.POLAR>
-5.8942

>  <SCORE.INTER.ROT>
6

>  <SCORE.INTER.SOLV>
28.7766

>  <SCORE.INTER.VDW>
-21.7666

>  <SCORE.INTER.norm>
-1.17202

>  <SCORE.INTRA>
-5.84195

>  <SCORE.INTRA.DIHEDRAL>
-7.06869

>  <SCORE.INTRA.DIHEDRAL.0>
18.4149

>  <SCORE.INTRA.POLAR>
0

>  <SCORE.INTRA.POLAR.0>
0

>  <SCORE.INTRA.REPUL>
-0.0038535

>  <SCORE.INTRA.REPUL.0>
0.092687

>  <SCORE.INTRA.SOLV>
-0.981647

>  <SCORE.INTRA.SOLV.lig_0>
-120.37

>  <SCORE.INTRA.VDW>
-1.79752

>  <SCORE.INTRA.VDW.0>
-1.75542

>  <SCORE.INTRA.norm>
-0.18845

>  <SCORE.RESTR>
0

>  <SCORE.RESTR.CAVITY>
0

>  <SCORE.RESTR.norm>
0

>  <SCORE.SYSTEM>
0

>  <SCORE.SYSTEM.CONST>
0

>  <SCORE.SYSTEM.DIHEDRAL>
0

>  <SCORE.SYSTEM.SOLV>
0

>  <SCORE.SYSTEM.norm>
0

>  <SCORE.heavy>
31

>  <SCORE.norm>
-1.36047

>  <RMSD>
5.157

$$$$
1byj cryst
 OpenBabel11021811383D
libRbt.so/2013.1/901 2013/11/27
 31 33  0  0  0  0  0  0  0  0999 V2000
    7.5320    2.4146    3.0298 C   0  0  1  0  0  0  0  0  0  0  0  0
    8.2041    1.6525    1.9764 O   0  0  0  0  0  0  0  0  0  0  0  0
    7.6360    1.6650    0.6327 C   0  0  2  0  0  0  0  0  0  0  0  0
    7.7570    2.9851    0.0166 O   0  0  0  0  0  0  0  0  0  0  0  0
    6.1453    1.2134    0.6993 C   0  0  2  0  0  0  0  0  0  0  0  0
    5.4830    1.1947   -0.6198 N   0  3  0  0  0  0  0  0  0  0  0  0
    5.3596    2.1154    1.6857 C   0  0  0  0  0  0  0  0  0  0  0  0
    6.0096    2.1080    3.0775 C   0  0  0  0  0  0  0  0  0  0  0  0
    8.1618    2.0699    4.3909 C   0  0  0  0  0  0  0  0  0  0  0  0
    7.5777    2.8069    5.5191 N   0  3  0  0  0  0  0  0  0  0  0  0
    9.0894    2.6310   -2.0254 C   0  0  1  0  0  0  0  0  0  0  0  0
    9.1488    2.8262   -3.5600 C   0  0  0  0  0  0  0  0  0  0  0  0
    8.9451    4.3209   -3.9262 C   0  0  1  0  0  0  0  0  0  0  0  0
    9.0816    4.5041   -5.3838 N   0  3  0  0  0  0  0  0  0  0  0  0
    7.5666    4.8203   -3.4045 C   0  0  1  0  0  0  0  0  0  0  0  0
    7.4012    4.5583   -1.8866 C   0  0  1  0  0  0  0  0  0  0  0  0
    6.0600    4.8920   -1.5611 O   0  0  0  0  0  0  0  0  0  0  0  0
    7.7138    3.0917   -1.4410 C   0  0  2  0  0  0  0  0  0  0  0  0
    9.3860    1.2291   -1.6821 N   0  3  0  0  0  0  0  0  0  0  0  0
    4.6435    7.2442   -2.8512 C   0  0  0  0  0  0  0  0  0  0  0  0
    4.6269    8.7484   -3.2180 C   0  0  2  0  0  0  0  0  0  0  0  0
    3.6074    8.9267   -4.2003 O   0  0  0  0  0  0  0  0  0  0  0  0
    6.0352    9.1648   -3.7877 C   0  0  1  0  0  0  0  0  0  0  0  0
    6.5611    8.1837   -4.8899 C   0  0  2  0  0  0  0  0  0  0  0  0
    6.3861    6.6888   -4.5204 C   0  0  1  0  0  0  0  0  0  0  0  0
    7.4305    6.2556   -3.6097 O   0  0  0  0  0  0  0  0  0  0  0  0
    5.0569    6.4347   -3.9843 O   0  0  0  0  0  0  0  0  0  0  0  0
    7.9329    8.4255   -5.1915 O   0  0  0  0  0  0  0  0  0  0  0  0
    5.9749   10.5647   -4.3123 N   0  3  0  0  0  0  0  0  0  0  0  0
    7.2548   11.1906   -4.7022 C   0  0  0  0  0  0  0  0  0  0  0  0
    4.2070    9.5584   -1.9667 C   0  0  0  0  0  0  0  0  0  0  0  0
  1  8  1  0  0  0  0
  1  9  1  1  0  0  0
  1  2  1  0  0  0  0
  2  3  1  0  0  0  0
  3  5  1  0  0  0  0
  3  4  1  1  0  0  0
  5  7  1  0  0  0  0
  5  6  1  6  0  0  0
  7  8  1  0  0  0  0
  9 10  1  0  0  0  0
 11 12  1  0  0  0  0
 11 18  1  0  0  0  0
 11 19  1  6  0  0  0
 12 13  1  0  0  0  0
 13 15  1  0  0  0  0
 13 14  1  6  0  0  0
 15 16  1  0  0  0  0
 15 26  1  1  0  0  0
 16 18  1  0  0  0  0
 16 17  1  6  0  0  0
 18  4  1  1  0  0  0
 20 21  1  0  0  0  0
 20 27  1  0  0  0  0
 21 31  1  1  0  0  0
 21 23  1  0  0  0  0
 21 22  1  0  0  0  0
 23 24  1  0  0  0  0
 23 29  1  6  0  0  0
 24 25  1  0  0  0  0
 24 28  1  1  0  0  0
 25 27  1  0  0  0  0
 25 26  1  1  0  0  0
 29 30  1  0  0  0  0
M  CHG  5   6   1  10   1  14   1  19   1  29   1
M  END
>  <CHROM.1>
178.69350313,157.71221538,-76.53292014,-47.62857948,-178.72076362,48.53377579
66.37885161,115.84738707,64.37269182,-176.05194750,-67.72886006,48.62030008
-167.10531904,6.89748132,4.99900950,-1.67937882,1.32562365,-0.93003436,2.19906062

>  <Name>
1byj cryst

>  <RI>
0

>  <Rbt.Current_Directory>
/home/itssahil/PROJECTS/Mol_Feturizer/New_Systems/rnas/1byj

>  <Rbt.Executable>
rbdock ($Id: //depot/dev/client3/rdock/2013.1/src/exe/rbdock.cxx#4 $)

>  <Rbt.Library>
libRbt.so (2013.1, Build901 2013/11/27)

>  <Rbt.Parameter_File>
/export/apps/rDock/src/rDock_2013.1_src/data/scripts/dock_solv.prm

>  <Rbt.Receptor>
prm/pocket_docking_5.prm

>  <SCORE>
-34.0666

>  <SCORE.INTER>
-32.2733

>  <SCORE.INTER.CONST>
1

>  <SCORE.INTER.POLAR>
-4.77022

>  <SCORE.INTER.ROT>
6

>  <SCORE.INTER.SOLV>
21.5663

>  <SCORE.INTER.VDW>
-20.4036

>  <SCORE.INTER.norm>
-1.04107

>  <SCORE.INTRA>
-1.79325

>  <SCORE.INTRA.DIHEDRAL>
-4.88959

>  <SCORE.INTRA.DIHEDRAL.0>
18.4149

>  <SCORE.INTRA.POLAR>
0

>  <SCORE.INTRA.POLAR.0>
0

>  <SCORE.INTRA.REPUL>
-0.092687

>  <SCORE.INTRA.REPUL.0>
0.092687

>  <SCORE.INTRA.SOLV>
1.69219

>  <SCORE.INTRA.SOLV.lig_0>
-120.37

>  <SCORE.INTRA.VDW>
0.268888

>  <SCORE.INTRA.VDW.0>
-1.75542

>  <SCORE.INTRA.norm>
-0.0578467

>  <SCORE.RESTR>
0

>  <SCORE.RESTR.CAVITY>
0

>  <SCORE.RESTR.norm>
0

>  <SCORE.SYSTEM>
0

>  <SCORE.SYSTEM.CONST>
0

>  <SCORE.SYSTEM.DIHEDRAL>
0

>  <SCORE.SYSTEM.SOLV>
0

>  <SCORE.SYSTEM.norm>
0

>  <SCORE.heavy>
31

>  <SCORE.norm>
-1.09892

>  <RMSD>
5.188

$$$$
1byj cryst
 OpenBabel11021811383D
libRbt.so/2013.1/901 2013/11/27
 31 33  0  0  0  0  0  0  0  0999 V2000
    5.6488    4.2807    1.1723 C   0  0  1  0  0  0  0  0  0  0  0  0
    7.0054    4.3228    0.6244 O   0  0  0  0  0  0  0  0  0  0  0  0
    7.7457    3.0726    0.4924 C   0  0  2  0  0  0  0  0  0  0  0  0
    7.1561    2.2111   -0.5309 O   0  0  0  0  0  0  0  0  0  0  0  0
    7.7894    2.3512    1.8737 C   0  0  2  0  0  0  0  0  0  0  0  0
    8.5216    1.0699    1.8387 N   0  3  0  0  0  0  0  0  0  0  0  0
    6.3496    2.1364    2.4075 C   0  0  0  0  0  0  0  0  0  0  0  0
    5.5892    3.4681    2.4951 C   0  0  0  0  0  0  0  0  0  0  0  0
    5.1595    5.7157    1.4357 C   0  0  0  0  0  0  0  0  0  0  0  0
    3.7616    5.7943    1.8796 N   0  3  0  0  0  0  0  0  0  0  0  0
    8.7216    2.2760   -2.4322 C   0  0  1  0  0  0  0  0  0  0  0  0
    8.9475    2.7670   -3.8829 C   0  0  0  0  0  0  0  0  0  0  0  0
    8.7368    4.3021   -3.9762 C   0  0  1  0  0  0  0  0  0  0  0  0
    9.0309    4.7672   -5.3451 N   0  3  0  0  0  0  0  0  0  0  0  0
    7.2924    4.6756   -3.5336 C   0  0  1  0  0  0  0  0  0  0  0  0
    6.9654    4.1211   -2.1244 C   0  0  1  0  0  0  0  0  0  0  0  0
    5.5857    4.3707   -1.9004 O   0  0  0  0  0  0  0  0  0  0  0  0
    7.2743    2.5992   -1.9356 C   0  0  2  0  0  0  0  0  0  0  0  0
    9.0240    0.8372   -2.3325 N   0  3  0  0  0  0  0  0  0  0  0  0
    4.3600    7.2964   -2.9714 C   0  0  0  0  0  0  0  0  0  0  0  0
    4.5127    8.8210   -3.1949 C   0  0  2  0  0  0  0  0  0  0  0  0
    3.6469    9.1729   -4.2732 O   0  0  0  0  0  0  0  0  0  0  0  0
    6.0120    9.1518   -3.5471 C   0  0  1  0  0  0  0  0  0  0  0  0
    6.5954    8.2210   -4.6639 C   0  0  2  0  0  0  0  0  0  0  0  0
    6.2537    6.7231   -4.4602 C   0  0  1  0  0  0  0  0  0  0  0  0
    7.1327    6.1218   -3.4736 O   0  0  0  0  0  0  0  0  0  0  0  0
    4.8500    6.5489   -4.1164 O   0  0  0  0  0  0  0  0  0  0  0  0
    8.0097    8.3596   -4.7719 O   0  0  0  0  0  0  0  0  0  0  0  0
    6.1335   10.5898   -3.9416 N   0  3  0  0  0  0  0  0  0  0  0  0
    6.4534   11.5546   -2.8698 C   0  0  0  0  0  0  0  0  0  0  0  0
    4.0009    9.5598   -1.9339 C   0  0  0  0  0  0  0  0  0  0  0  0
  1  8  1  0  0  0  0
  1  9  1  1  0  0  0
  1  2  1  0  0  0  0
  2  3  1  0  0  0  0
  3  5  1  0  0  0  0
  3  4  1  6  0  0  0
  5  7  1  0  0  0  0
  5  6  1  6  0  0  0
  7  8  1  0  0  0  0
  9 10  1  0  0  0  0
 11 12  1  0  0  0  0
 11 18  1  0  0  0  0
 11 19  1  6  0  0  0
 12 13  1  0  0  0  0
 13 15  1  0  0  0  0
 13 14  1  6  0  0  0
 15 16  1  0  0  0  0
 15 26  1  1  0  0  0
 16 18  1  0  0  0  0
 16 17  1  6  0  0  0
 18  4  1  1  0  0  0
 20 21  1  0  0  0  0
 20 27  1  0  0  0  0
 21 31  1  1  0  0  0
 21 23  1  0  0  0  0
 21 22  1  0  0  0  0
 23 24  1  0  0  0  0
 23 29  1  6  0  0  0
 24 25  1  0  0  0  0
 24 28  1  1  0  0  0
 25 27  1  0  0  0  0
 25 26  1  1  0  0  0
 29 30  1  0  0  0  0
M  CHG  5   6   1  10   1  14   1  19   1  29   1
M  END
>  <CHROM.1>
175.01185711,70.27150503,76.98650337,106.91986708,-49.61818818,-27.61352971
-177.48874850,111.75488608,63.39367129,-60.57398898,-147.04250957,-171.13477518
-157.31996553,6.58435961,5.40396095,-1.89102561,1.20873122,-0.91086926,2.28123317

>  <Name>
1byj cryst

>  <RI>
0

>  <Rbt.Current_Directory>
/home/itssahil/PROJECTS/Mol_Feturizer/New_Systems/rnas/1byj

>  <Rbt.Executable>
rbdock ($Id: //depot/dev/client3/rdock/2013.1/src/exe/rbdock.cxx#4 $)

>  <Rbt.Library>
libRbt.so (2013.1, Build901 2013/11/27)

>  <Rbt.Parameter_File>
/export/apps/rDock/src/rDock_2013.1_src/data/scripts/dock_solv.prm

>  <Rbt.Receptor>
prm/pocket_docking_6.prm

>  <SCORE>
-40.8369

>  <SCORE.INTER>
-39.6611

>  <SCORE.INTER.CONST>
1

>  <SCORE.INTER.POLAR>
-6.59502

>  <SCORE.INTER.ROT>
6

>  <SCORE.INTER.SOLV>
27.3831

>  <SCORE.INTER.VDW>
-21.185

>  <SCORE.INTER.norm>
-1.27939

>  <SCORE.INTRA>
-1.17583

>  <SCORE.INTRA.DIHEDRAL>
0.778712

>  <SCORE.INTRA.DIHEDRAL.0>
18.4149

>  <SCORE.INTRA.POLAR>
-0.0245926

>  <SCORE.INTRA.POLAR.0>
0

>  <SCORE.INTRA.REPUL>
-0.0658298

>  <SCORE.INTRA.REPUL.0>
0.092687

>  <SCORE.INTRA.SOLV>
-1.07719

>  <SCORE.INTRA.SOLV.lig_0>
-120.37

>  <SCORE.INTRA.VDW>
-0.613822

>  <SCORE.INTRA.VDW.0>
-1.75542

>  <SCORE.INTRA.norm>
-0.0379299

>  <SCORE.RESTR>
0

>  <SCORE.RESTR.CAVITY>
0

>  <SCORE.RESTR.norm>
0

>  <SCORE.SYSTEM>
0

>  <SCORE.SYSTEM.CONST>
0

>  <SCORE.SYSTEM.DIHEDRAL>
0

>  <SCORE.SYSTEM.SOLV>
0

>  <SCORE.SYSTEM.norm>
0

>  <SCORE.heavy>
31

>  <SCORE.norm>
-1.31732

>  <RMSD>
5.188

$$$$
1byj cryst
 OpenBabel11021811383D
libRbt.so/2013.1/901 2013/11/27
 31 33  0  0  0  0  0  0  0  0999 V2000
    5.7098    2.2268    2.1872 C   0  0  1  0  0  0  0  0  0  0  0  0
    6.2828    3.3238    1.4059 O   0  0  0  0  0  0  0  0  0  0  0  0
    7.7346    3.4529    1.3411 C   0  0  2  0  0  0  0  0  0  0  0  0
    8.3331    2.3524    0.5877 O   0  0  0  0  0  0  0  0  0  0  0  0
    8.3111    3.5189    2.7881 C   0  0  2  0  0  0  0  0  0  0  0  0
    9.7809    3.6504    2.8239 N   0  3  0  0  0  0  0  0  0  0  0  0
    7.8600    2.2759    3.5977 C   0  0  0  0  0  0  0  0  0  0  0  0
    6.3290    2.1513    3.6101 C   0  0  0  0  0  0  0  0  0  0  0  0
    4.1883    2.4243    2.3057 C   0  0  0  0  0  0  0  0  0  0  0  0
    3.7988    3.7487    2.8073 N   0  3  0  0  0  0  0  0  0  0  0  0
    9.6580    2.0764   -1.4711 C   0  0  1  0  0  0  0  0  0  0  0  0
    9.6537    2.1849   -3.0154 C   0  0  0  0  0  0  0  0  0  0  0  0
    9.2207    3.6081   -3.4591 C   0  0  1  0  0  0  0  0  0  0  0  0
    9.2961    3.7208   -4.9282 N   0  3  0  0  0  0  0  0  0  0  0  0
    7.7950    3.9288   -2.9243 C   0  0  1  0  0  0  0  0  0  0  0  0
    7.7041    3.7375   -1.3896 C   0  0  1  0  0  0  0  0  0  0  0  0
    6.3357    3.8883   -1.0423 O   0  0  0  0  0  0  0  0  0  0  0  0
    8.2422    2.3630   -0.8715 C   0  0  2  0  0  0  0  0  0  0  0  0
   10.1683    0.7571   -1.0583 N   0  3  0  0  0  0  0  0  0  0  0  0
    4.4123    5.5647   -2.9211 C   0  0  0  0  0  0  0  0  0  0  0  0
    4.0887    7.0406   -3.2594 C   0  0  2  0  0  0  0  0  0  0  0  0
    3.2303    7.0285   -4.3991 O   0  0  0  0  0  0  0  0  0  0  0  0
    5.4260    7.8125   -3.5712 C   0  0  1  0  0  0  0  0  0  0  0  0
    6.3476    7.0506   -4.5833 C   0  0  2  0  0  0  0  0  0  0  0  0
    6.4852    5.5380   -4.2751 C   0  0  1  0  0  0  0  0  0  0  0  0
    7.4414    5.3130   -3.2061 O   0  0  0  0  0  0  0  0  0  0  0  0
    5.1893    4.9443   -3.9800 O   0  0  0  0  0  0  0  0  0  0  0  0
    7.6490    7.6287   -4.6403 O   0  0  0  0  0  0  0  0  0  0  0  0
    5.1118    9.1860   -4.0742 N   0  3  0  0  0  0  0  0  0  0  0  0
    6.2560   10.0844   -4.3306 C   0  0  0  0  0  0  0  0  0  0  0  0
    3.2860    7.6530   -2.0852 C   0  0  0  0  0  0  0  0  0  0  0  0
  1  8  1  0  0  0  0
  1  9  1  1  0  0  0
  1  2  1  0  0  0  0
  2  3  1  0  0  0  0
  3  5  1  0  0  0  0
  3  4  1  1  0  0  0
  5  7  1  0  0  0  0
  5  6  1  6  0  0  0
  7  8  1  0  0  0  0
  9 10  1  0  0  0  0
 11 12  1  0  0  0  0
 11 18  1  0  0  0  0
 11 19  1  6  0  0  0
 12 13  1  0  0  0  0
 13 15  1  0  0  0  0
 13 14  1  6  0  0  0
 15 16  1  0  0  0  0
 15 26  1  1  0  0  0
 16 18  1  0  0  0  0
 16 17  1  6  0  0  0
 18  4  1  1  0  0  0
 20 21  1  0  0  0  0
 20 27  1  0  0  0  0
 21 31  1  1  0  0  0
 21 23  1  0  0  0  0
 21 22  1  0  0  0  0
 23 24  1  0  0  0  0
 23 29  1  6  0  0  0
 24 25  1  0  0  0  0
 24 28  1  1  0  0  0
 25 27  1  0  0  0  0
 25 26  1  1  0  0  0
 29 30  1  0  0  0  0
M  CHG  5   6   1  10   1  14   1  19   1  29   1
M  END
>  <CHROM.1>
-52.60998787,76.32738239,131.54495014,160.81379689,60.33984679,-57.86792381
-170.78624908,105.54203659,58.51206528,56.99447160,-62.95577927,-172.34744876
-172.58999464,6.81072362,4.54190497,-1.37297012,1.25574565,-0.59073598,2.08025859

>  <Name>
1byj cryst

>  <RI>
0

>  <Rbt.Current_Directory>
/home/itssahil/PROJECTS/Mol_Feturizer/New_Systems/rnas/1byj

>  <Rbt.Executable>
rbdock ($Id: //depot/dev/client3/rdock/2013.1/src/exe/rbdock.cxx#4 $)

>  <Rbt.Library>
libRbt.so (2013.1, Build901 2013/11/27)

>  <Rbt.Parameter_File>
/export/apps/rDock/src/rDock_2013.1_src/data/scripts/dock_solv.prm

>  <Rbt.Receptor>
prm/pocket_docking_6.prm

>  <SCORE>
-35.9496

>  <SCORE.INTER>
-34.7011

>  <SCORE.INTER.CONST>
1

>  <SCORE.INTER.POLAR>
-5.16965

>  <SCORE.INTER.ROT>
6

>  <SCORE.INTER.SOLV>
26.9659

>  <SCORE.INTER.VDW>
-22.4905

>  <SCORE.INTER.norm>
-1.11939

>  <SCORE.INTRA>
-1.24852

>  <SCORE.INTRA.DIHEDRAL>
-2.15597

>  <SCORE.INTRA.DIHEDRAL.0>
18.4149

>  <SCORE.INTRA.POLAR>
0

>  <SCORE.INTRA.POLAR.0>
0

>  <SCORE.INTRA.REPUL>
-0.092687

>  <SCORE.INTRA.REPUL.0>
0.092687

>  <SCORE.INTRA.SOLV>
-2.50917

>  <SCORE.INTRA.SOLV.lig_0>
-120.37

>  <SCORE.INTRA.VDW>
1.54748

>  <SCORE.INTRA.VDW.0>
-1.75542

>  <SCORE.INTRA.norm>
-0.0402749

>  <SCORE.RESTR>
0

>  <SCORE.RESTR.CAVITY>
0

>  <SCORE.RESTR.norm>
0

>  <SCORE.SYSTEM>
0

>  <SCORE.SYSTEM.CONST>
0

>  <SCORE.SYSTEM.DIHEDRAL>
0

>  <SCORE.SYSTEM.SOLV>
0

>  <SCORE.SYSTEM.norm>
0

>  <SCORE.heavy>
31

>  <SCORE.norm>
-1.15966

>  <RMSD>
5.191

$$$$
1byj cryst
 OpenBabel11021811383D
libRbt.so/2013.1/901 2013/11/27
 31 33  0  0  0  0  0  0  0  0999 V2000
    6.1666    1.3312    0.7680 C   0  0  1  0  0  0  0  0  0  0  0  0
    6.2846    2.6824    0.2181 O   0  0  0  0  0  0  0  0  0  0  0  0
    7.5925    3.3288    0.2248 C   0  0  2  0  0  0  0  0  0  0  0  0
    8.5161    2.6693   -0.6964 O   0  0  0  0  0  0  0  0  0  0  0  0
    8.1582    3.3320    1.6775 C   0  0  2  0  0  0  0  0  0  0  0  0
    9.4856    3.9689    1.7840 N   0  3  0  0  0  0  0  0  0  0  0  0
    8.2070    1.8851    2.2326 C   0  0  0  0  0  0  0  0  0  0  0  0
    6.8217    1.2242    2.1727 C   0  0  0  0  0  0  0  0  0  0  0  0
    4.6794    0.9496    0.8713 C   0  0  0  0  0  0  0  0  0  0  0  0
    4.4419   -0.4976    0.9512 N   0  3  0  0  0  0  0  0  0  0  0  0
    9.7349    2.5767   -2.8357 C   0  0  1  0  0  0  0  0  0  0  0  0
    9.6937    2.9241   -4.3438 C   0  0  0  0  0  0  0  0  0  0  0  0
    9.4109    4.4371   -4.5456 C   0  0  1  0  0  0  0  0  0  0  0  0
    9.4517    4.7684   -5.9827 N   0  3  0  0  0  0  0  0  0  0  0  0
    8.0485    4.8214   -3.8993 C   0  0  1  0  0  0  0  0  0  0  0  0
    7.9855    4.4046   -2.4085 C   0  0  1  0  0  0  0  0  0  0  0  0
    6.6548    4.6452   -1.9759 O   0  0  0  0  0  0  0  0  0  0  0  0
    8.3806    2.9165   -2.1311 C   0  0  2  0  0  0  0  0  0  0  0  0
   10.1053    1.1623   -2.6525 N   0  3  0  0  0  0  0  0  0  0  0  0
    4.9724    6.9248   -3.1587 C   0  0  0  0  0  0  0  0  0  0  0  0
    4.8472    8.4605   -3.3119 C   0  0  2  0  0  0  0  0  0  0  0  0
    3.8406    8.7007   -4.2944 O   0  0  0  0  0  0  0  0  0  0  0  0
    6.2320    9.0565   -3.7688 C   0  0  1  0  0  0  0  0  0  0  0  0
    6.8589    8.2834   -4.9784 C   0  0  2  0  0  0  0  0  0  0  0  0
    6.7923    6.7424   -4.8278 C   0  0  1  0  0  0  0  0  0  0  0  0
    7.8453    6.2625   -3.9510 O   0  0  0  0  0  0  0  0  0  0  0  0
    5.4745    6.3173   -4.3788 O   0  0  0  0  0  0  0  0  0  0  0  0
    8.2145    8.6662   -5.1955 O   0  0  0  0  0  0  0  0  0  0  0  0
    6.0752   10.5083   -4.0943 N   0  3  0  0  0  0  0  0  0  0  0  0
    7.2763   11.2216   -4.5743 C   0  0  0  0  0  0  0  0  0  0  0  0
    4.3357    9.0513   -1.9750 C   0  0  0  0  0  0  0  0  0  0  0  0
  1  8  1  0  0  0  0
  1  9  1  1  0  0  0
  1  2  1  0  0  0  0
  2  3  1  0  0  0  0
  3  5  1  0  0  0  0
  3  4  1  6  0  0  0
  5  7  1  0  0  0  0
  5  6  1  6  0  0  0
  7  8  1  0  0  0  0
  9 10  1  0  0  0  0
 11 12  1  0  0  0  0
 11 18  1  0  0  0  0
 11 19  1  6  0  0  0
 12 13  1  0  0  0  0
 13 15  1  0  0  0  0
 13 14  1  6  0  0  0
 15 16  1  0  0  0  0
 15 26  1  1  0  0  0
 16 18  1  0  0  0  0
 16 17  1  6  0  0  0
 18  4  1  1  0  0  0
 20 21  1  0  0  0  0
 20 27  1  0  0  0  0
 21 31  1  1  0  0  0
 21 23  1  0  0  0  0
 21 22  1  0  0  0  0
 23 24  1  0  0  0  0
 23 29  1  6  0  0  0
 24 25  1  0  0  0  0
 24 28  1  1  0  0  0
 25 27  1  0  0  0  0
 25 26  1  1  0  0  0
 29 30  1  0  0  0  0
M  CHG  5   6   1  10   1  14   1  19   1  29   1
M  END
>  <CHROM.1>
159.65503611,76.63071025,158.83126586,-55.96178661,64.66470469,-177.17618945
-33.53007147,111.58745097,61.32007549,-62.97164238,-57.48071188,169.37650104
-169.73929371,7.17591302,4.96257258,-2.24828442,1.43291404,-0.65674627,2.44645648

>  <Name>
1byj cryst

>  <RI>
0

>  <Rbt.Current_Directory>
/home/itssahil/PROJECTS/Mol_Feturizer/New_Systems/rnas/1byj

>  <Rbt.Executable>
rbdock ($Id: //depot/dev/client3/rdock/2013.1/src/exe/rbdock.cxx#4 $)

>  <Rbt.Library>
libRbt.so (2013.1, Build901 2013/11/27)

>  <Rbt.Parameter_File>
/export/apps/rDock/src/rDock_2013.1_src/data/scripts/dock_solv.prm

>  <Rbt.Receptor>
prm/blind_docking_60.prm

>  <SCORE>
-24.282

>  <SCORE.INTER>
-28.9843

>  <SCORE.INTER.CONST>
1

>  <SCORE.INTER.POLAR>
-5.97271

>  <SCORE.INTER.ROT>
6

>  <SCORE.INTER.SOLV>
33.4418

>  <SCORE.INTER.VDW>
-18.1611

>  <SCORE.INTER.norm>
-0.934976

>  <SCORE.INTRA>
-3.25986

>  <SCORE.INTRA.DIHEDRAL>
-3.8739

>  <SCORE.INTRA.DIHEDRAL.0>
18.4149

>  <SCORE.INTRA.POLAR>
0

>  <SCORE.INTRA.POLAR.0>
0

>  <SCORE.INTRA.REPUL>
-0.00719135

>  <SCORE.INTRA.REPUL.0>
0.092687

>  <SCORE.INTRA.SOLV>
-4.08213

>  <SCORE.INTRA.SOLV.lig_0>
-120.37

>  <SCORE.INTRA.VDW>
0.754114

>  <SCORE.INTRA.VDW.0>
-1.75542

>  <SCORE.INTRA.norm>
-0.105157

>  <SCORE.RESTR>
7.9621

>  <SCORE.RESTR.CAVITY>
7.9621

>  <SCORE.RESTR.norm>
0.256842

>  <SCORE.SYSTEM>
0

>  <SCORE.SYSTEM.CONST>
0

>  <SCORE.SYSTEM.DIHEDRAL>
0

>  <SCORE.SYSTEM.SOLV>
0

>  <SCORE.SYSTEM.norm>
0

>  <SCORE.heavy>
31

>  <SCORE.norm>
-0.783291

>  <RMSD>
5.195

$$$$
1byj cryst
 OpenBabel11021811383D
libRbt.so/2013.1/901 2013/11/27
 31 33  0  0  0  0  0  0  0  0999 V2000
    5.5505    2.2138    2.1787 C   0  0  1  0  0  0  0  0  0  0  0  0
    6.1056    3.3166    1.3927 O   0  0  0  0  0  0  0  0  0  0  0  0
    7.5538    3.4906    1.3565 C   0  0  2  0  0  0  0  0  0  0  0  0
    8.2024    2.3986    0.6330 O   0  0  0  0  0  0  0  0  0  0  0  0
    8.0966    3.5961    2.8141 C   0  0  2  0  0  0  0  0  0  0  0  0
    9.5605    3.7746    2.8788 N   0  3  0  0  0  0  0  0  0  0  0  0
    7.6673    2.3516    3.6332 C   0  0  0  0  0  0  0  0  0  0  0  0
    6.1410    2.1790    3.6153 C   0  0  0  0  0  0  0  0  0  0  0  0
    4.0214    2.3649    2.2621 C   0  0  0  0  0  0  0  0  0  0  0  0
    3.3388    2.2175    0.9699 N   0  3  0  0  0  0  0  0  0  0  0  0
    9.5544    2.0336   -1.3942 C   0  0  1  0  0  0  0  0  0  0  0  0
    9.5824    2.1104   -2.9401 C   0  0  0  0  0  0  0  0  0  0  0  0
    9.2088    3.5385   -3.4203 C   0  0  1  0  0  0  0  0  0  0  0  0
    9.3152    3.6183   -4.8897 N   0  3  0  0  0  0  0  0  0  0  0  0
    7.7858    3.9203   -2.9194 C   0  0  1  0  0  0  0  0  0  0  0  0
    7.6599    3.7640   -1.3832 C   0  0  1  0  0  0  0  0  0  0  0  0
    6.2915    3.9701   -1.0653 O   0  0  0  0  0  0  0  0  0  0  0  0
    8.1389    2.3823   -0.8277 C   0  0  2  0  0  0  0  0  0  0  0  0
   10.0096    0.7059   -0.9455 N   0  3  0  0  0  0  0  0  0  0  0  0
    4.4653    5.6377   -2.9501 C   0  0  0  0  0  0  0  0  0  0  0  0
    4.1768    7.1172   -3.3043 C   0  0  2  0  0  0  0  0  0  0  0  0
    3.3168    7.1131   -4.4429 O   0  0  0  0  0  0  0  0  0  0  0  0
    5.5319    7.8531   -3.6261 C   0  0  1  0  0  0  0  0  0  0  0  0
    6.4335    7.0582   -4.6306 C   0  0  2  0  0  0  0  0  0  0  0  0
    6.5352    5.5462   -4.3059 C   0  0  1  0  0  0  0  0  0  0  0  0
    7.4870    5.3101   -3.2354 O   0  0  0  0  0  0  0  0  0  0  0  0
    5.2258    4.9872   -4.0029 O   0  0  0  0  0  0  0  0  0  0  0  0
    7.7484    7.6041   -4.6954 O   0  0  0  0  0  0  0  0  0  0  0  0
    5.2502    9.2282   -4.1439 N   0  3  0  0  0  0  0  0  0  0  0  0
    6.4158   10.0617   -4.5025 C   0  0  0  0  0  0  0  0  0  0  0  0
    3.3906    7.7617   -2.1361 C   0  0  0  0  0  0  0  0  0  0  0  0
  1  8  1  0  0  0  0
  1  9  1  1  0  0  0
  1  2  1  0  0  0  0
  2  3  1  0  0  0  0
  3  5  1  0  0  0  0
  3  4  1  1  0  0  0
  5  7  1  0  0  0  0
  5  6  1  6  0  0  0
  7  8  1  0  0  0  0
  9 10  1  0  0  0  0
 11 12  1  0  0  0  0
 11 18  1  0  0  0  0
 11 19  1  6  0  0  0
 12 13  1  0  0  0  0
 13 15  1  0  0  0  0
 13 14  1  6  0  0  0
 15 16  1  0  0  0  0
 15 26  1  1  0  0  0
 16 18  1  0  0  0  0
 16 17  1  6  0  0  0
 18  4  1  1  0  0  0
 20 21  1  0  0  0  0
 20 27  1  0  0  0  0
 21 31  1  1  0  0  0
 21 23  1  0  0  0  0
 21 22  1  0  0  0  0
 23 24  1  0  0  0  0
 23 29  1  6  0  0  0
 24 25  1  0  0  0  0
 24 28  1  1  0  0  0
 25 27  1  0  0  0  0
 25 26  1  1  0  0  0
 29 30  1  0  0  0  0
M  CHG  5   6   1  10   1  14   1  19   1  29   1
M  END
>  <CHROM.1>
65.71914566,76.12991233,135.48481941,165.33125503,59.57626098,62.54513935
-57.01338327,106.95987667,63.88641672,60.47654405,-58.72066397,-174.76966150
-173.87446295,6.75852973,4.49940736,-1.44921600,1.30593911,-0.53487374,2.14429857

>  <Name>
1byj cryst

>  <RI>
0

>  <Rbt.Current_Directory>
/home/itssahil/PROJECTS/Mol_Feturizer/New_Systems/rnas/1byj

>  <Rbt.Executable>
rbdock ($Id: //depot/dev/client3/rdock/2013.1/src/exe/rbdock.cxx#4 $)

>  <Rbt.Library>
libRbt.so (2013.1, Build901 2013/11/27)

>  <Rbt.Parameter_File>
/export/apps/rDock/src/rDock_2013.1_src/data/scripts/dock_solv.prm

>  <Rbt.Receptor>
prm/pocket_docking_4.prm

>  <SCORE>
-36.1727

>  <SCORE.INTER>
-33.993

>  <SCORE.INTER.CONST>
1

>  <SCORE.INTER.POLAR>
-5.08124

>  <SCORE.INTER.ROT>
6

>  <SCORE.INTER.SOLV>
25.8921

>  <SCORE.INTER.VDW>
-21.9552

>  <SCORE.INTER.norm>
-1.09655

>  <SCORE.INTRA>
-2.17966

>  <SCORE.INTRA.DIHEDRAL>
-3.28337

>  <SCORE.INTRA.DIHEDRAL.0>
18.4149

>  <SCORE.INTRA.POLAR>
-0.00107396

>  <SCORE.INTRA.POLAR.0>
0

>  <SCORE.INTRA.REPUL>
-0.092687

>  <SCORE.INTRA.REPUL.0>
0.092687

>  <SCORE.INTRA.SOLV>
-3.46664

>  <SCORE.INTRA.SOLV.lig_0>
-120.37

>  <SCORE.INTRA.VDW>
1.66243

>  <SCORE.INTRA.VDW.0>
-1.75542

>  <SCORE.INTRA.norm>
-0.0703115

>  <SCORE.RESTR>
0

>  <SCORE.RESTR.CAVITY>
0

>  <SCORE.RESTR.norm>
0

>  <SCORE.SYSTEM>
0

>  <SCORE.SYSTEM.CONST>
0

>  <SCORE.SYSTEM.DIHEDRAL>
0

>  <SCORE.SYSTEM.SOLV>
0

>  <SCORE.SYSTEM.norm>
0

>  <SCORE.heavy>
31

>  <SCORE.norm>
-1.16686

>  <RMSD>
5.196

$$$$
1byj cryst
 OpenBabel11021811383D
libRbt.so/2013.1/901 2013/11/27
 31 33  0  0  0  0  0  0  0  0999 V2000
    9.5371    2.3768   -3.5677 C   0  0  1  0  0  0  0  0  0  0  0  0
    8.1390    2.5674   -3.9563 O   0  0  0  0  0  0  0  0  0  0  0  0
    7.1564    2.8535   -2.9164 C   0  0  2  0  0  0  0  0  0  0  0  0
    7.3712    4.1758   -2.3314 O   0  0  0  0  0  0  0  0  0  0  0  0
    7.2223    1.7418   -1.8255 C   0  0  2  0  0  0  0  0  0  0  0  0
    6.2590    1.9471   -0.7260 N   0  3  0  0  0  0  0  0  0  0  0  0
    8.6642    1.6294   -1.2667 C   0  0  0  0  0  0  0  0  0  0  0  0
    9.6740    1.3678   -2.3942 C   0  0  0  0  0  0  0  0  0  0  0  0
   10.3377    1.8610   -4.7765 C   0  0  0  0  0  0  0  0  0  0  0  0
   10.0323    0.4715   -5.1416 N   0  3  0  0  0  0  0  0  0  0  0  0
    8.1978    5.9774   -3.7948 C   0  0  1  0  0  0  0  0  0  0  0  0
    7.8409    7.2991   -4.5175 C   0  0  0  0  0  0  0  0  0  0  0  0
    7.2957    8.3420   -3.5052 C   0  0  1  0  0  0  0  0  0  0  0  0
    7.0333    9.6205   -4.1935 N   0  3  0  0  0  0  0  0  0  0  0  0
    6.0238    7.7919   -2.7973 C   0  0  1  0  0  0  0  0  0  0  0  0
    6.2872    6.4144   -2.1388 C   0  0  1  0  0  0  0  0  0  0  0  0
    5.0312    5.9377   -1.6792 O   0  0  0  0  0  0  0  0  0  0  0  0
    6.9509    5.3578   -3.0824 C   0  0  2  0  0  0  0  0  0  0  0  0
    8.8098    5.0311   -4.7442 N   0  3  0  0  0  0  0  0  0  0  0  0
    8.1381   10.3026   -1.2258 C   0  0  0  0  0  0  0  0  0  0  0  0
    7.7519   11.3534   -0.1562 C   0  0  2  0  0  0  0  0  0  0  0  0
    8.5700   11.1054    0.9864 O   0  0  0  0  0  0  0  0  0  0  0  0
    6.2255   11.2008    0.2018 C   0  0  1  0  0  0  0  0  0  0  0  0
    5.8146    9.7187    0.4994 C   0  0  2  0  0  0  0  0  0  0  0  0
    6.3836    8.7028   -0.5233 C   0  0  1  0  0  0  0  0  0  0  0  0
    5.5931    8.6972   -1.7411 O   0  0  0  0  0  0  0  0  0  0  0  0
    7.7912    8.9613   -0.7895 O   0  0  0  0  0  0  0  0  0  0  0  0
    4.3981    9.5715    0.5546 O   0  0  0  0  0  0  0  0  0  0  0  0
    5.8865   12.0853    1.3598 N   0  3  0  0  0  0  0  0  0  0  0  0
    5.2862   13.3983    1.0477 C   0  0  0  0  0  0  0  0  0  0  0  0
    8.1198   12.7602   -0.6889 C   0  0  0  0  0  0  0  0  0  0  0  0
  1  8  1  0  0  0  0
  1  9  1  6  0  0  0
  1  2  1  0  0  0  0
  2  3  1  0  0  0  0
  3  5  1  0  0  0  0
  3  4  1  1  0  0  0
  5  7  1  0  0  0  0
  5  6  1  1  0  0  0
  7  8  1  0  0  0  0
  9 10  1  0  0  0  0
 11 12  1  0  0  0  0
 11 18  1  0  0  0  0
 11 19  1  6  0  0  0
 12 13  1  0  0  0  0
 13 15  1  0  0  0  0
 13 14  1  6  0  0  0
 15 16  1  0  0  0  0
 15 26  1  1  0  0  0
 16 18  1  0  0  0  0
 16 17  1  6  0  0  0
 18  4  1  1  0  0  0
 20 21  1  0  0  0  0
 20 27  1  0  0  0  0
 21 31  1  6  0  0  0
 21 23  1  0  0  0  0
 21 22  1  0  0  0  0
 23 24  1  0  0  0  0
 23 29  1  1  0  0  0
 24 25  1  0  0  0  0
 24 28  1  6  0  0  0
 25 27  1  0  0  0  0
 25 26  1  6  0  0  0
 29 30  1  0  0  0  0
M  CHG  5   6   1  10   1  14   1  19   1  29   1
M  END
>  <CHROM.1>
-71.37247913,76.53821650,-99.45799784,65.65706967,167.46798800,116.92496933
48.35341221,-74.52839808,-60.48487842,51.81881759,-141.65439348,55.95383265
179.52868021,7.33514549,6.79656573,-1.92363320,-1.19819835,0.94550140,0.04952025

>  <Name>
1byj cryst

>  <RI>
0

>  <Rbt.Current_Directory>
/home/itssahil/PROJECTS/Mol_Feturizer/New_Systems/rnas/1byj

>  <Rbt.Executable>
rbdock ($Id: //depot/dev/client3/rdock/2013.1/src/exe/rbdock.cxx#4 $)

>  <Rbt.Library>
libRbt.so (2013.1, Build901 2013/11/27)

>  <Rbt.Parameter_File>
/export/apps/rDock/src/rDock_2013.1_src/data/scripts/dock_solv.prm

>  <Rbt.Receptor>
prm/pocket_docking_7.prm

>  <SCORE>
-30.6111

>  <SCORE.INTER>
-27.9377

>  <SCORE.INTER.CONST>
1

>  <SCORE.INTER.POLAR>
-3.93621

>  <SCORE.INTER.ROT>
6

>  <SCORE.INTER.SOLV>
21.2924

>  <SCORE.INTER.VDW>
-20.2019

>  <SCORE.INTER.norm>
-0.901216

>  <SCORE.INTRA>
-2.67593

>  <SCORE.INTRA.DIHEDRAL>
-2.93549

>  <SCORE.INTRA.DIHEDRAL.0>
18.4149

>  <SCORE.INTRA.POLAR>
-0.865823

>  <SCORE.INTRA.POLAR.0>
0

>  <SCORE.INTRA.REPUL>
-0.092687

>  <SCORE.INTRA.REPUL.0>
0.092687

>  <SCORE.INTRA.SOLV>
2.42423

>  <SCORE.INTRA.SOLV.lig_0>
-120.37

>  <SCORE.INTRA.VDW>
0.986935

>  <SCORE.INTRA.VDW.0>
-1.75542

>  <SCORE.INTRA.norm>
-0.0863202

>  <SCORE.RESTR>
0.00248828

>  <SCORE.RESTR.CAVITY>
0.00248828

>  <SCORE.RESTR.norm>
8.02673e-05

>  <SCORE.SYSTEM>
0

>  <SCORE.SYSTEM.CONST>
0

>  <SCORE.SYSTEM.DIHEDRAL>
0

>  <SCORE.SYSTEM.SOLV>
0

>  <SCORE.SYSTEM.norm>
0

>  <SCORE.heavy>
31

>  <SCORE.norm>
-0.987456

>  <RMSD>
5.259

$$$$
1byj cryst
 OpenBabel11021811383D
libRbt.so/2013.1/901 2013/11/27
 31 33  0  0  0  0  0  0  0  0999 V2000
    5.8460    1.2442   -0.2582 C   0  0  1  0  0  0  0  0  0  0  0  0
    6.0685    2.6902   -0.2145 O   0  0  0  0  0  0  0  0  0  0  0  0
    7.3282    3.1883    0.3274 C   0  0  2  0  0  0  0  0  0  0  0  0
    8.4521    2.8512   -0.5443 O   0  0  0  0  0  0  0  0  0  0  0  0
    7.5377    2.6094    1.7596 C   0  0  2  0  0  0  0  0  0  0  0  0
    8.7932    3.0601    2.3919 N   0  3  0  0  0  0  0  0  0  0  0  0
    7.4777    1.0605    1.7215 C   0  0  0  0  0  0  0  0  0  0  0  0
    6.1554    0.5745    1.1092 C   0  0  0  0  0  0  0  0  0  0  0  0
    4.3821    0.9638   -0.6408 C   0  0  0  0  0  0  0  0  0  0  0  0
    4.2215   -0.1185   -1.6207 N   0  3  0  0  0  0  0  0  0  0  0  0
    9.6746    2.7133   -2.6790 C   0  0  1  0  0  0  0  0  0  0  0  0
    9.6317    3.0188   -4.1960 C   0  0  0  0  0  0  0  0  0  0  0  0
    9.3329    4.5225   -4.4394 C   0  0  1  0  0  0  0  0  0  0  0  0
    9.3720    4.8148   -5.8851 N   0  3  0  0  0  0  0  0  0  0  0  0
    7.9655    4.9097   -3.8054 C   0  0  1  0  0  0  0  0  0  0  0  0
    7.9051    4.5331   -2.3038 C   0  0  1  0  0  0  0  0  0  0  0  0
    6.5712    4.7710   -1.8793 O   0  0  0  0  0  0  0  0  0  0  0  0
    8.3158    3.0575   -1.9854 C   0  0  2  0  0  0  0  0  0  0  0  0
   10.0600    1.3085   -2.4568 N   0  3  0  0  0  0  0  0  0  0  0  0
    5.0336    7.4417   -3.0257 C   0  0  0  0  0  0  0  0  0  0  0  0
    5.0438    8.9359   -3.4316 C   0  0  2  0  0  0  0  0  0  0  0  0
    3.9812    9.1213   -4.3658 O   0  0  0  0  0  0  0  0  0  0  0  0
    6.4330    9.2929   -4.0826 C   0  0  1  0  0  0  0  0  0  0  0  0
    6.8718    8.2680   -5.1830 C   0  0  2  0  0  0  0  0  0  0  0  0
    6.6708    6.7893   -4.7649 C   0  0  1  0  0  0  0  0  0  0  0  0
    7.7468    6.3465   -3.8967 O   0  0  0  0  0  0  0  0  0  0  0  0
    5.3636    6.5910   -4.1559 O   0  0  0  0  0  0  0  0  0  0  0  0
    8.2331    8.4585   -5.5598 O   0  0  0  0  0  0  0  0  0  0  0  0
    6.3884   10.6802   -4.6411 N   0  3  0  0  0  0  0  0  0  0  0  0
    7.6836   11.3305   -4.9261 C   0  0  0  0  0  0  0  0  0  0  0  0
    4.7132    9.7903   -2.1831 C   0  0  0  0  0  0  0  0  0  0  0  0
  1  8  1  0  0  0  0
  1  9  1  1  0  0  0
  1  2  1  0  0  0  0
  2  3  1  0  0  0  0
  3  5  1  0  0  0  0
  3  4  1  6  0  0  0
  5  7  1  0  0  0  0
  5  6  1  6  0  0  0
  7  8  1  0  0  0  0
  9 10  1  0  0  0  0
 11 12  1  0  0  0  0
 11 18  1  0  0  0  0
 11 19  1  6  0  0  0
 12 13  1  0  0  0  0
 13 15  1  0  0  0  0
 13 14  1  6  0  0  0
 15 16  1  0  0  0  0
 15 26  1  1  0  0  0
 16 18  1  0  0  0  0
 16 17  1  6  0  0  0
 18  4  1  1  0  0  0
 20 21  1  0  0  0  0
 20 27  1  0  0  0  0
 21 31  1  1  0  0  0
 21 23  1  0  0  0  0
 21 22  1  0  0  0  0
 23 24  1  0  0  0  0
 23 29  1  6  0  0  0
 24 25  1  0  0  0  0
 24 28  1  1  0  0  0
 25 27  1  0  0  0  0
 25 26  1  1  0  0  0
 29 30  1  0  0  0  0
M  CHG  5   6   1  10   1  14   1  19   1  29   1
M  END
>  <CHROM.1>
136.93291953,45.23775541,176.32973914,-140.26566650,-73.49876375,-62.15654170
-38.88451294,112.89116289,-64.02683264,-64.03855845,-76.49648734,-73.41903306
-158.90878314,7.07019939,5.00574657,-2.47112030,1.46645776,-0.60701851,2.54126188

>  <Name>
1byj cryst

>  <RI>
0

>  <Rbt.Current_Directory>
/home/itssahil/PROJECTS/Mol_Feturizer/New_Systems/rnas/1byj

>  <Rbt.Executable>
rbdock ($Id: //depot/dev/client3/rdock/2013.1/src/exe/rbdock.cxx#4 $)

>  <Rbt.Library>
libRbt.so (2013.1, Build901 2013/11/27)

>  <Rbt.Parameter_File>
/export/apps/rDock/src/rDock_2013.1_src/data/scripts/dock_solv.prm

>  <Rbt.Receptor>
prm/blind_docking_60.prm

>  <SCORE>
-17.8309

>  <SCORE.INTER>
-26.4378

>  <SCORE.INTER.CONST>
1

>  <SCORE.INTER.POLAR>
-5.33592

>  <SCORE.INTER.ROT>
6

>  <SCORE.INTER.SOLV>
30.214

>  <SCORE.INTER.VDW>
-17.5101

>  <SCORE.INTER.norm>
-0.852832

>  <SCORE.INTRA>
-0.144304

>  <SCORE.INTRA.DIHEDRAL>
1.99616

>  <SCORE.INTRA.DIHEDRAL.0>
18.4149

>  <SCORE.INTRA.POLAR>
-0.00720882

>  <SCORE.INTRA.POLAR.0>
0

>  <SCORE.INTRA.REPUL>
-0.00708364

>  <SCORE.INTRA.REPUL.0>
0.092687

>  <SCORE.INTRA.SOLV>
-3.83903

>  <SCORE.INTRA.SOLV.lig_0>
-120.37

>  <SCORE.INTRA.VDW>
0.837058

>  <SCORE.INTRA.VDW.0>
-1.75542

>  <SCORE.INTRA.norm>
-0.00465498

>  <SCORE.RESTR>
8.75117

>  <SCORE.RESTR.CAVITY>
8.75117

>  <SCORE.RESTR.norm>
0.282296

>  <SCORE.SYSTEM>
0

>  <SCORE.SYSTEM.CONST>
0

>  <SCORE.SYSTEM.DIHEDRAL>
0

>  <SCORE.SYSTEM.SOLV>
0

>  <SCORE.SYSTEM.norm>
0

>  <SCORE.heavy>
31

>  <SCORE.norm>
-0.575191

>  <RMSD>
5.268

$$$$
1byj cryst
 OpenBabel11021811383D
libRbt.so/2013.1/901 2013/11/27
 31 33  0  0  0  0  0  0  0  0999 V2000
    8.6554    1.6724   -1.0043 C   0  0  1  0  0  0  0  0  0  0  0  0
    9.0881    2.9100   -1.6548 O   0  0  0  0  0  0  0  0  0  0  0  0
    9.1509    2.9496   -3.1119 C   0  0  2  0  0  0  0  0  0  0  0  0
    7.8159    2.8828   -3.7035 O   0  0  0  0  0  0  0  0  0  0  0  0
   10.0476    1.7803   -3.6210 C   0  0  2  0  0  0  0  0  0  0  0  0
   10.1710    1.7388   -5.0914 N   0  3  0  0  0  0  0  0  0  0  0  0
    9.5125    0.4273   -3.0852 C   0  0  0  0  0  0  0  0  0  0  0  0
    9.4231    0.4376   -1.5518 C   0  0  0  0  0  0  0  0  0  0  0  0
    8.8894    1.7837    0.5126 C   0  0  0  0  0  0  0  0  0  0  0  0
   10.0230    2.6437    0.8769 N   0  3  0  0  0  0  0  0  0  0  0  0
    7.7713    5.3244   -4.0304 C   0  0  1  0  0  0  0  0  0  0  0  0
    6.9403    6.6195   -3.8607 C   0  0  0  0  0  0  0  0  0  0  0  0
    6.4905    6.7872   -2.3845 C   0  0  1  0  0  0  0  0  0  0  0  0
    5.7671    8.0628   -2.2217 N   0  3  0  0  0  0  0  0  0  0  0  0
    5.6279    5.5698   -1.9425 C   0  0  1  0  0  0  0  0  0  0  0  0
    6.3656    4.2291   -2.1843 C   0  0  1  0  0  0  0  0  0  0  0  0
    5.4307    3.1963   -1.9096 O   0  0  0  0  0  0  0  0  0  0  0  0
    6.9486    4.0573   -3.6259 C   0  0  2  0  0  0  0  0  0  0  0  0
    8.2799    5.2270   -5.4100 N   0  3  0  0  0  0  0  0  0  0  0  0
    5.7467    7.5790    1.8044 C   0  0  0  0  0  0  0  0  0  0  0  0
    5.6366    6.7145    3.0843 C   0  0  2  0  0  0  0  0  0  0  0  0
    6.8905    6.8071    3.7590 O   0  0  0  0  0  0  0  0  0  0  0  0
    5.3222    5.2236    2.6845 C   0  0  1  0  0  0  0  0  0  0  0  0
    6.2655    4.6832    1.5566 C   0  0  2  0  0  0  0  0  0  0  0  0
    6.4621    5.6797    0.3860 C   0  0  1  0  0  0  0  0  0  0  0  0
    5.3278    5.6440   -0.5195 O   0  0  0  0  0  0  0  0  0  0  0  0
    6.7211    7.0237    0.8812 O   0  0  0  0  0  0  0  0  0  0  0  0
    5.7945    3.4445    1.0321 O   0  0  0  0  0  0  0  0  0  0  0  0
    5.3937    4.3491    3.8964 N   0  3  0  0  0  0  0  0  0  0  0  0
    4.1608    4.2121    4.6983 C   0  0  0  0  0  0  0  0  0  0  0  0
    4.5668    7.3395    4.0132 C   0  0  0  0  0  0  0  0  0  0  0  0
  1  8  1  0  0  0  0
  1  9  1  1  0  0  0
  1  2  1  0  0  0  0
  2  3  1  0  0  0  0
  3  5  1  0  0  0  0
  3  4  1  6  0  0  0
  5  7  1  0  0  0  0
  5  6  1  6  0  0  0
  7  8  1  0  0  0  0
  9 10  1  0  0  0  0
 11 12  1  0  0  0  0
 11 18  1  0  0  0  0
 11 19  1  6  0  0  0
 12 13  1  0  0  0  0
 13 15  1  0  0  0  0
 13 14  1  6  0  0  0
 15 16  1  0  0  0  0
 15 26  1  1  0  0  0
 16 18  1  0  0  0  0
 16 17  1  6  0  0  0
 18  4  1  1  0  0  0
 20 21  1  0  0  0  0
 20 27  1  0  0  0  0
 21 31  1  1  0  0  0
 21 23  1  0  0  0  0
 21 22  1  0  0  0  0
 23 24  1  0  0  0  0
 23 29  1  1  0  0  0
 24 25  1  0  0  0  0
 24 28  1  6  0  0  0
 25 27  1  0  0  0  0
 25 26  1  6  0  0  0
 29 30  1  0  0  0  0
M  CHG  5   6   1  10   1  14   1  19   1  29   1
M  END
>  <CHROM.1>
-29.99033905,73.42834589,46.48590684,-47.58595770,-77.82411493,169.66790856
-55.16853090,-58.77477638,-66.67334985,57.76651587,-151.45004372,-169.27455061
-133.19595646,7.12806992,4.42396432,-0.69203336,-0.62915519,-1.01359099,1.94998846

>  <Name>
1byj cryst

>  <RI>
0

>  <Rbt.Current_Directory>
/home/itssahil/PROJECTS/Mol_Feturizer/New_Systems/rnas/1byj

>  <Rbt.Executable>
rbdock ($Id: //depot/dev/client3/rdock/2013.1/src/exe/rbdock.cxx#4 $)

>  <Rbt.Library>
libRbt.so (2013.1, Build901 2013/11/27)

>  <Rbt.Parameter_File>
/export/apps/rDock/src/rDock_2013.1_src/data/scripts/dock_solv.prm

>  <Rbt.Receptor>
prm/pocket_docking_7.prm

>  <SCORE>
-42.5065

>  <SCORE.INTER>
-36.247

>  <SCORE.INTER.CONST>
1

>  <SCORE.INTER.POLAR>
-6.31536

>  <SCORE.INTER.ROT>
6

>  <SCORE.INTER.SOLV>
27.9507

>  <SCORE.INTER.VDW>
-20.0304

>  <SCORE.INTER.norm>
-1.16926

>  <SCORE.INTRA>
-6.25947

>  <SCORE.INTRA.DIHEDRAL>
-3.70961

>  <SCORE.INTRA.DIHEDRAL.0>
18.4149

>  <SCORE.INTRA.POLAR>
-0.86806

>  <SCORE.INTRA.POLAR.0>
0

>  <SCORE.INTRA.REPUL>
-0.092687

>  <SCORE.INTRA.REPUL.0>
0.092687

>  <SCORE.INTRA.SOLV>
0.631228

>  <SCORE.INTRA.SOLV.lig_0>
-120.37

>  <SCORE.INTRA.VDW>
-1.30544

>  <SCORE.INTRA.VDW.0>
-1.75542

>  <SCORE.INTRA.norm>
-0.201918

>  <SCORE.RESTR>
0

>  <SCORE.RESTR.CAVITY>
0

>  <SCORE.RESTR.norm>
0

>  <SCORE.SYSTEM>
0

>  <SCORE.SYSTEM.CONST>
0

>  <SCORE.SYSTEM.DIHEDRAL>
0

>  <SCORE.SYSTEM.SOLV>
0

>  <SCORE.SYSTEM.norm>
0

>  <SCORE.heavy>
31

>  <SCORE.norm>
-1.37118

>  <RMSD>
5.289

$$$$
1byj cryst
 OpenBabel11021811383D
libRbt.so/2013.1/901 2013/11/27
 31 33  0  0  0  0  0  0  0  0999 V2000
    7.0938    5.7760    1.1176 C   0  0  1  0  0  0  0  0  0  0  0  0
    8.2713    5.0941    0.5784 O   0  0  0  0  0  0  0  0  0  0  0  0
    8.3610    3.6438    0.7090 C   0  0  2  0  0  0  0  0  0  0  0  0
    7.3597    2.9726   -0.1178 O   0  0  0  0  0  0  0  0  0  0  0  0
    8.2023    3.2508    2.2093 C   0  0  2  0  0  0  0  0  0  0  0  0
    8.2796    1.7950    2.4412 N   0  3  0  0  0  0  0  0  0  0  0  0
    6.8724    3.8174    2.7699 C   0  0  0  0  0  0  0  0  0  0  0  0
    6.7972    5.3397    2.5789 C   0  0  0  0  0  0  0  0  0  0  0  0
    7.3219    7.2974    1.0787 C   0  0  0  0  0  0  0  0  0  0  0  0
    8.5459    7.7320    1.7643 N   0  3  0  0  0  0  0  0  0  0  0  0
    8.8348    2.6476   -2.0643 C   0  0  1  0  0  0  0  0  0  0  0  0
    9.0132    2.8842   -3.5837 C   0  0  0  0  0  0  0  0  0  0  0  0
    8.8660    4.3925   -3.9199 C   0  0  1  0  0  0  0  0  0  0  0  0
    9.1151    4.6134   -5.3573 N   0  3  0  0  0  0  0  0  0  0  0  0
    7.4619    4.9062   -3.4881 C   0  0  1  0  0  0  0  0  0  0  0  0
    7.1779    4.6055   -1.9951 C   0  0  1  0  0  0  0  0  0  0  0  0
    5.8226    4.9583   -1.7609 O   0  0  0  0  0  0  0  0  0  0  0  0
    7.4282    3.1207   -1.5708 C   0  0  2  0  0  0  0  0  0  0  0  0
    9.0781    1.2306   -1.7411 N   0  3  0  0  0  0  0  0  0  0  0  0
    4.6692    7.4678   -2.7773 C   0  0  0  0  0  0  0  0  0  0  0  0
    4.7095    8.9728   -3.1392 C   0  0  2  0  0  0  0  0  0  0  0  0
    3.6576    9.2047   -4.0751 O   0  0  0  0  0  0  0  0  0  0  0  0
    6.1099    9.3233   -3.7695 C   0  0  1  0  0  0  0  0  0  0  0  0
    6.5386    8.3231   -4.8963 C   0  0  2  0  0  0  0  0  0  0  0  0
    6.3078    6.8367   -4.5232 C   0  0  1  0  0  0  0  0  0  0  0  0
    7.3689    6.3492   -3.6606 O   0  0  0  0  0  0  0  0  0  0  0  0
    4.9926    6.6446   -3.9296 O   0  0  0  0  0  0  0  0  0  0  0  0
    7.9060    8.4996   -5.2575 O   0  0  0  0  0  0  0  0  0  0  0  0
    6.0945   10.7269   -4.2874 N   0  3  0  0  0  0  0  0  0  0  0  0
    7.3745   11.2732   -4.7825 C   0  0  0  0  0  0  0  0  0  0  0  0
    4.3847    9.7963   -1.8686 C   0  0  0  0  0  0  0  0  0  0  0  0
  1  8  1  0  0  0  0
  1  9  1  1  0  0  0
  1  2  1  0  0  0  0
  2  3  1  0  0  0  0
  3  5  1  0  0  0  0
  3  4  1  6  0  0  0
  5  7  1  0  0  0  0
  5  6  1  6  0  0  0
  7  8  1  0  0  0  0
  9 10  1  0  0  0  0
 11 12  1  0  0  0  0
 11 18  1  0  0  0  0
 11 19  1  6  0  0  0
 12 13  1  0  0  0  0
 13 15  1  0  0  0  0
 13 14  1  6  0  0  0
 15 16  1  0  0  0  0
 15 26  1  1  0  0  0
 16 18  1  0  0  0  0
 16 17  1  6  0  0  0
 18  4  1  1  0  0  0
 20 21  1  0  0  0  0
 20 27  1  0  0  0  0
 21 31  1  1  0  0  0
 21 23  1  0  0  0  0
 21 22  1  0  0  0  0
 23 24  1  0  0  0  0
 23 29  1  6  0  0  0
 24 25  1  0  0  0  0
 24 28  1  1  0  0  0
 25 27  1  0  0  0  0
 25 26  1  1  0  0  0
 29 30  1  0  0  0  0
M  CHG  5   6   1  10   1  14   1  19   1  29   1
M  END
>  <CHROM.1>
-55.00269032,63.59613822,56.58349913,-40.46539303,64.31689411,-174.84020068
-173.65686437,122.33768034,65.91717199,-58.68861897,-65.33558269,47.44587622
-165.82606166,7.10580668,5.92714568,-1.86325984,0.87102959,-1.13398347,1.79253663

>  <Name>
1byj cryst

>  <RI>
0

>  <Rbt.Current_Directory>
/home/itssahil/PROJECTS/Mol_Feturizer/New_Systems/rnas/1byj

>  <Rbt.Executable>
rbdock ($Id: //depot/dev/client3/rdock/2013.1/src/exe/rbdock.cxx#4 $)

>  <Rbt.Library>
libRbt.so (2013.1, Build901 2013/11/27)

>  <Rbt.Parameter_File>
/export/apps/rDock/src/rDock_2013.1_src/data/scripts/dock_solv.prm

>  <Rbt.Receptor>
prm/pocket_docking_6.prm

>  <SCORE>
-42.9794

>  <SCORE.INTER>
-36.8846

>  <SCORE.INTER.CONST>
1

>  <SCORE.INTER.POLAR>
-6.12503

>  <SCORE.INTER.ROT>
6

>  <SCORE.INTER.SOLV>
24.9436

>  <SCORE.INTER.VDW>
-20.0875

>  <SCORE.INTER.norm>
-1.18983

>  <SCORE.INTRA>
-6.09482

>  <SCORE.INTRA.DIHEDRAL>
-7.61031

>  <SCORE.INTRA.DIHEDRAL.0>
18.4149

>  <SCORE.INTRA.POLAR>
0

>  <SCORE.INTRA.POLAR.0>
0

>  <SCORE.INTRA.REPUL>
-0.092687

>  <SCORE.INTRA.REPUL.0>
0.092687

>  <SCORE.INTRA.SOLV>
-0.783289

>  <SCORE.INTRA.SOLV.lig_0>
-120.37

>  <SCORE.INTRA.VDW>
-1.43458

>  <SCORE.INTRA.VDW.0>
-1.75542

>  <SCORE.INTRA.norm>
-0.196607

>  <SCORE.RESTR>
0

>  <SCORE.RESTR.CAVITY>
0

>  <SCORE.RESTR.norm>
0

>  <SCORE.SYSTEM>
0

>  <SCORE.SYSTEM.CONST>
0

>  <SCORE.SYSTEM.DIHEDRAL>
0

>  <SCORE.SYSTEM.SOLV>
0

>  <SCORE.SYSTEM.norm>
0

>  <SCORE.heavy>
31

>  <SCORE.norm>
-1.38643

>  <RMSD>
5.298

$$$$
1byj cryst
 OpenBabel11021811383D
libRbt.so/2013.1/901 2013/11/27
 31 33  0  0  0  0  0  0  0  0999 V2000
    6.3066    1.4010    1.0273 C   0  0  1  0  0  0  0  0  0  0  0  0
    6.3126    2.7249    0.4032 O   0  0  0  0  0  0  0  0  0  0  0  0
    7.5695    3.4629    0.3396 C   0  0  2  0  0  0  0  0  0  0  0  0
    8.5170    2.8216   -0.5703 O   0  0  0  0  0  0  0  0  0  0  0  0
    8.1675    3.5865    1.7739 C   0  0  2  0  0  0  0  0  0  0  0  0
    9.4470    4.3219    1.8100 N   0  3  0  0  0  0  0  0  0  0  0  0
    8.3350    2.1796    2.4037 C   0  0  0  0  0  0  0  0  0  0  0  0
    7.0007    1.4188    2.4172 C   0  0  0  0  0  0  0  0  0  0  0  0
    4.8541    0.9201    1.1915 C   0  0  0  0  0  0  0  0  0  0  0  0
    4.2883    0.3152   -0.0214 N   0  3  0  0  0  0  0  0  0  0  0  0
    9.7182    2.6905   -2.7174 C   0  0  1  0  0  0  0  0  0  0  0  0
    9.6581    2.9962   -4.2339 C   0  0  0  0  0  0  0  0  0  0  0  0
    9.3492    4.4985   -4.4737 C   0  0  1  0  0  0  0  0  0  0  0  0
    9.3719    4.7913   -5.9196 N   0  3  0  0  0  0  0  0  0  0  0  0
    7.9864    4.8785   -3.8255 C   0  0  1  0  0  0  0  0  0  0  0  0
    7.9434    4.5012   -2.3235 C   0  0  1  0  0  0  0  0  0  0  0  0
    6.6127    4.7321   -1.8852 O   0  0  0  0  0  0  0  0  0  0  0  0
    8.3648    3.0276   -2.0098 C   0  0  2  0  0  0  0  0  0  0  0  0
   10.1130    1.2876   -2.4996 N   0  3  0  0  0  0  0  0  0  0  0  0
    5.0607    7.4176   -3.0091 C   0  0  0  0  0  0  0  0  0  0  0  0
    5.0656    8.9089   -3.4259 C   0  0  2  0  0  0  0  0  0  0  0  0
    3.9888    9.0884   -4.3448 O   0  0  0  0  0  0  0  0  0  0  0  0
    6.4449    9.2602   -4.1008 C   0  0  1  0  0  0  0  0  0  0  0  0
    6.8660    8.2271   -5.2005 C   0  0  2  0  0  0  0  0  0  0  0  0
    6.6705    6.7515   -4.7688 C   0  0  1  0  0  0  0  0  0  0  0  0
    7.7595    6.3142   -3.9141 O   0  0  0  0  0  0  0  0  0  0  0  0
    5.3728    6.5587   -4.1382 O   0  0  0  0  0  0  0  0  0  0  0  0
    8.2214    8.4139   -5.5995 O   0  0  0  0  0  0  0  0  0  0  0  0
    6.3925   10.6435   -4.6684 N   0  3  0  0  0  0  0  0  0  0  0  0
    7.5292   11.0659   -5.5118 C   0  0  0  0  0  0  0  0  0  0  0  0
    4.7549    9.7724   -2.1785 C   0  0  0  0  0  0  0  0  0  0  0  0
  1  8  1  0  0  0  0
  1  9  1  1  0  0  0
  1  2  1  0  0  0  0
  2  3  1  0  0  0  0
  3  5  1  0  0  0  0
  3  4  1  6  0  0  0
  5  7  1  0  0  0  0
  5  6  1  6  0  0  0
  7  8  1  0  0  0  0
  9 10  1  0  0  0  0
 11 12  1  0  0  0  0
 11 18  1  0  0  0  0
 11 19  1  6  0  0  0
 12 13  1  0  0  0  0
 13 15  1  0  0  0  0
 13 14  1  6  0  0  0
 15 16  1  0  0  0  0
 15 26  1  1  0  0  0
 16 18  1  0  0  0  0
 16 17  1  6  0  0  0
 18  4  1  1  0  0  0
 20 21  1  0  0  0  0
 20 27  1  0  0  0  0
 21 31  1  1  0  0  0
 21 23  1  0  0  0  0
 21 22  1  0  0  0  0
 23 24  1  0  0  0  0
 23 29  1  6  0  0  0
 24 25  1  0  0  0  0
 24 28  1  1  0  0  0
 25 27  1  0  0  0  0
 25 26  1  1  0  0  0
 29 30  1  0  0  0  0
M  CHG  5   6   1  10   1  14   1  19   1  29   1
M  END
>  <CHROM.1>
82.52509617,79.30820481,160.41629184,-50.30857734,-59.50886287,-170.38754124
-159.31564547,113.02310121,132.85765270,-64.87769342,-50.16516663,46.86885186
-158.36388101,7.22154096,5.13692359,-2.28236247,1.42823460,-0.69045888,2.40867884

>  <Name>
1byj cryst

>  <RI>
0

>  <Rbt.Current_Directory>
/home/itssahil/PROJECTS/Mol_Feturizer/New_Systems/rnas/1byj

>  <Rbt.Executable>
rbdock ($Id: //depot/dev/client3/rdock/2013.1/src/exe/rbdock.cxx#4 $)

>  <Rbt.Library>
libRbt.so (2013.1, Build901 2013/11/27)

>  <Rbt.Parameter_File>
/export/apps/rDock/src/rDock_2013.1_src/data/scripts/dock_solv.prm

>  <Rbt.Receptor>
prm/blind_docking_60.prm

>  <SCORE>
-17.9649

>  <SCORE.INTER>
-25.1109

>  <SCORE.INTER.CONST>
1

>  <SCORE.INTER.POLAR>
-5.13529

>  <SCORE.INTER.ROT>
6

>  <SCORE.INTER.SOLV>
29.4176

>  <SCORE.INTER.VDW>
-17.0288

>  <SCORE.INTER.norm>
-0.810028

>  <SCORE.INTRA>
0.350962

>  <SCORE.INTRA.DIHEDRAL>
4.74172

>  <SCORE.INTRA.DIHEDRAL.0>
18.4149

>  <SCORE.INTRA.POLAR>
-0.937488

>  <SCORE.INTRA.POLAR.0>
0

>  <SCORE.INTRA.REPUL>
-0.092687

>  <SCORE.INTRA.REPUL.0>
0.092687

>  <SCORE.INTRA.SOLV>
-4.13407

>  <SCORE.INTRA.SOLV.lig_0>
-120.37

>  <SCORE.INTRA.VDW>
3.69803

>  <SCORE.INTRA.VDW.0>
-1.75542

>  <SCORE.INTRA.norm>
0.0113214

>  <SCORE.RESTR>
6.79501

>  <SCORE.RESTR.CAVITY>
6.79501

>  <SCORE.RESTR.norm>
0.219194

>  <SCORE.SYSTEM>
0

>  <SCORE.SYSTEM.CONST>
0

>  <SCORE.SYSTEM.DIHEDRAL>
0

>  <SCORE.SYSTEM.SOLV>
0

>  <SCORE.SYSTEM.norm>
0

>  <SCORE.heavy>
31

>  <SCORE.norm>
-0.579513

>  <RMSD>
5.311

$$$$
1byj cryst
 OpenBabel11021811383D
libRbt.so/2013.1/901 2013/11/27
 31 33  0  0  0  0  0  0  0  0999 V2000
    9.0924    1.7002   -1.1230 C   0  0  1  0  0  0  0  0  0  0  0  0
    9.5805    2.8528   -1.8816 O   0  0  0  0  0  0  0  0  0  0  0  0
    9.5141    2.8106   -3.3384 C   0  0  2  0  0  0  0  0  0  0  0  0
    8.1306    2.8479   -3.8088 O   0  0  0  0  0  0  0  0  0  0  0  0
   10.2449    1.5324   -3.8507 C   0  0  2  0  0  0  0  0  0  0  0  0
   10.2297    1.4028   -5.3211 N   0  3  0  0  0  0  0  0  0  0  0  0
    9.6338    0.2695   -3.1906 C   0  0  0  0  0  0  0  0  0  0  0  0
    9.6855    0.3679   -1.6586 C   0  0  0  0  0  0  0  0  0  0  0  0
    9.4728    1.8656    0.3589 C   0  0  0  0  0  0  0  0  0  0  0  0
    8.6828    1.0289    1.2716 N   0  3  0  0  0  0  0  0  0  0  0  0
    8.4734    5.2601   -4.1753 C   0  0  1  0  0  0  0  0  0  0  0  0
    7.8198    6.6628   -4.1322 C   0  0  0  0  0  0  0  0  0  0  0  0
    7.2189    6.9396   -2.7279 C   0  0  1  0  0  0  0  0  0  0  0  0
    6.6690    8.3078   -2.6776 N   0  3  0  0  0  0  0  0  0  0  0  0
    6.1444    5.8687   -2.3810 C   0  0  1  0  0  0  0  0  0  0  0  0
    6.7089    4.4314   -2.5069 C   0  0  1  0  0  0  0  0  0  0  0  0
    5.6103    3.5479   -2.3379 O   0  0  0  0  0  0  0  0  0  0  0  0
    7.4357    4.1333   -3.8598 C   0  0  2  0  0  0  0  0  0  0  0  0
    9.1300    5.0479   -5.4773 N   0  3  0  0  0  0  0  0  0  0  0  0
    7.4488    7.9715    0.5522 C   0  0  0  0  0  0  0  0  0  0  0  0
    6.8972    7.9561    1.9990 C   0  0  2  0  0  0  0  0  0  0  0  0
    7.9506    7.4912    2.8417 O   0  0  0  0  0  0  0  0  0  0  0  0
    5.6512    6.9953    2.0748 C   0  0  1  0  0  0  0  0  0  0  0  0
    5.9165    5.5998    1.4144 C   0  0  2  0  0  0  0  0  0  0  0  0
    6.6281    5.6921    0.0407 C   0  0  1  0  0  0  0  0  0  0  0  0
    5.6840    6.0304   -1.0090 O   0  0  0  0  0  0  0  0  0  0  0  0
    7.7435    6.6260    0.0911 O   0  0  0  0  0  0  0  0  0  0  0  0
    4.7090    4.8590    1.2581 O   0  0  0  0  0  0  0  0  0  0  0  0
    5.2240    6.8324    3.4994 N   0  3  0  0  0  0  0  0  0  0  0  0
    3.9250    6.1713    3.7387 C   0  0  0  0  0  0  0  0  0  0  0  0
    6.5772    9.4109    2.4223 C   0  0  0  0  0  0  0  0  0  0  0  0
  1  8  1  0  0  0  0
  1  9  1  1  0  0  0
  1  2  1  0  0  0  0
  2  3  1  0  0  0  0
  3  5  1  0  0  0  0
  3  4  1  1  0  0  0
  5  7  1  0  0  0  0
  5  6  1  6  0  0  0
  7  8  1  0  0  0  0
  9 10  1  0  0  0  0
 11 12  1  0  0  0  0
 11 18  1  0  0  0  0
 11 19  1  6  0  0  0
 12 13  1  0  0  0  0
 13 15  1  0  0  0  0
 13 14  1  6  0  0  0
 15 16  1  0  0  0  0
 15 26  1  1  0  0  0
 16 18  1  0  0  0  0
 16 17  1  6  0  0  0
 18  4  1  1  0  0  0
 20 21  1  0  0  0  0
 20 27  1  0  0  0  0
 21 31  1  1  0  0  0
 21 23  1  0  0  0  0
 21 22  1  0  0  0  0
 23 24  1  0  0  0  0
 23 29  1  1  0  0  0
 24 25  1  0  0  0  0
 24 28  1  6  0  0  0
 25 27  1  0  0  0  0
 25 26  1  6  0  0  0
 29 30  1  0  0  0  0
M  CHG  5   6   1  10   1  14   1  19   1  29   1
M  END
>  <CHROM.1>
161.02193658,79.77228075,32.02303043,-160.50167543,44.85212929,24.17955483
-61.78945889,-70.01645555,-66.93874603,57.89225988,-69.99153587,-171.51336634
-167.08830734,7.53281367,4.78758551,-1.07778807,-0.23786366,-1.13882341,2.14589934

>  <Name>
1byj cryst

>  <RI>
0

>  <Rbt.Current_Directory>
/home/itssahil/PROJECTS/Mol_Feturizer/New_Systems/rnas/1byj

>  <Rbt.Executable>
rbdock ($Id: //depot/dev/client3/rdock/2013.1/src/exe/rbdock.cxx#4 $)

>  <Rbt.Library>
libRbt.so (2013.1, Build901 2013/11/27)

>  <Rbt.Parameter_File>
/export/apps/rDock/src/rDock_2013.1_src/data/scripts/dock_solv.prm

>  <Rbt.Receptor>
prm/pocket_docking_6.prm

>  <SCORE>
-42.2494

>  <SCORE.INTER>
-39.8138

>  <SCORE.INTER.CONST>
1

>  <SCORE.INTER.POLAR>
-6.71444

>  <SCORE.INTER.ROT>
6

>  <SCORE.INTER.SOLV>
29.2658

>  <SCORE.INTER.VDW>
-21.5163

>  <SCORE.INTER.norm>
-1.28431

>  <SCORE.INTRA>
-2.43568

>  <SCORE.INTRA.DIHEDRAL>
-5.9851

>  <SCORE.INTRA.DIHEDRAL.0>
18.4149

>  <SCORE.INTRA.POLAR>
0

>  <SCORE.INTRA.POLAR.0>
0

>  <SCORE.INTRA.REPUL>
-0.092687

>  <SCORE.INTRA.REPUL.0>
0.092687

>  <SCORE.INTRA.SOLV>
-0.30291

>  <SCORE.INTRA.SOLV.lig_0>
-120.37

>  <SCORE.INTRA.VDW>
1.17176

>  <SCORE.INTRA.VDW.0>
-1.75542

>  <SCORE.INTRA.norm>
-0.0785705

>  <SCORE.RESTR>
0

>  <SCORE.RESTR.CAVITY>
0

>  <SCORE.RESTR.norm>
0

>  <SCORE.SYSTEM>
0

>  <SCORE.SYSTEM.CONST>
0

>  <SCORE.SYSTEM.DIHEDRAL>
0

>  <SCORE.SYSTEM.SOLV>
0

>  <SCORE.SYSTEM.norm>
0

>  <SCORE.heavy>
31

>  <SCORE.norm>
-1.36289

>  <RMSD>
5.311

$$$$
1byj cryst
 OpenBabel11021811383D
libRbt.so/2013.1/901 2013/11/27
 31 33  0  0  0  0  0  0  0  0999 V2000
    6.3427    1.0486    0.3682 C   0  0  1  0  0  0  0  0  0  0  0  0
    6.4716    2.4725    0.0552 O   0  0  0  0  0  0  0  0  0  0  0  0
    7.7655    3.1176    0.2507 C   0  0  2  0  0  0  0  0  0  0  0  0
    8.7552    2.6245   -0.7054 O   0  0  0  0  0  0  0  0  0  0  0  0
    8.2405    2.8858    1.7173 C   0  0  2  0  0  0  0  0  0  0  0  0
    9.5479    3.5052    2.0108 N   0  3  0  0  0  0  0  0  0  0  0  0
    8.2794    1.3677    2.0303 C   0  0  0  0  0  0  0  0  0  0  0  0
    6.9117    0.7166    1.7753 C   0  0  0  0  0  0  0  0  0  0  0  0
    4.8586    0.6456    0.3129 C   0  0  0  0  0  0  0  0  0  0  0  0
    4.3640    0.3863   -1.0455 N   0  3  0  0  0  0  0  0  0  0  0  0
    9.8851    2.5939   -2.8946 C   0  0  1  0  0  0  0  0  0  0  0  0
    9.7693    2.9556   -4.3954 C   0  0  0  0  0  0  0  0  0  0  0  0
    9.4302    4.4607   -4.5672 C   0  0  1  0  0  0  0  0  0  0  0  0
    9.3998    4.8083   -6.0008 N   0  3  0  0  0  0  0  0  0  0  0  0
    8.0847    4.7940   -3.8601 C   0  0  1  0  0  0  0  0  0  0  0  0
    8.0979    4.3596   -2.3730 C   0  0  1  0  0  0  0  0  0  0  0  0
    6.7795    4.5524   -1.8824 O   0  0  0  0  0  0  0  0  0  0  0  0
    8.5515    2.8822   -2.1301 C   0  0  2  0  0  0  0  0  0  0  0  0
   10.3077    1.1903   -2.7439 N   0  3  0  0  0  0  0  0  0  0  0  0
    5.0580    7.2561   -3.1384 C   0  0  0  0  0  0  0  0  0  0  0  0
    5.0724    8.7659   -3.4817 C   0  0  2  0  0  0  0  0  0  0  0  0
    4.0659    8.9782   -4.4706 O   0  0  0  0  0  0  0  0  0  0  0  0
    6.4936    9.1651   -4.0315 C   0  0  1  0  0  0  0  0  0  0  0  0
    7.0121    8.1917   -5.1440 C   0  0  2  0  0  0  0  0  0  0  0  0
    6.8062    6.6947   -4.7996 C   0  0  1  0  0  0  0  0  0  0  0  0
    7.8336    6.2281   -3.8861 O   0  0  0  0  0  0  0  0  0  0  0  0
    5.4674    6.4569   -4.2802 O   0  0  0  0  0  0  0  0  0  0  0  0
    8.3910    8.4127   -5.4288 O   0  0  0  0  0  0  0  0  0  0  0  0
    6.4640   10.5738   -4.5346 N   0  3  0  0  0  0  0  0  0  0  0  0
    7.5416   10.9781   -5.4604 C   0  0  0  0  0  0  0  0  0  0  0  0
    4.6553    9.5640   -2.2218 C   0  0  0  0  0  0  0  0  0  0  0  0
  1  8  1  0  0  0  0
  1  9  1  1  0  0  0
  1  2  1  0  0  0  0
  2  3  1  0  0  0  0
  3  5  1  0  0  0  0
  3  4  1  6  0  0  0
  5  7  1  0  0  0  0
  5  6  1  6  0  0  0
  7  8  1  0  0  0  0
  9 10  1  0  0  0  0
 11 12  1  0  0  0  0
 11 18  1  0  0  0  0
 11 19  1  6  0  0  0
 12 13  1  0  0  0  0
 13 15  1  0  0  0  0
 13 14  1  6  0  0  0
 15 16  1  0  0  0  0
 15 26  1  1  0  0  0
 16 18  1  0  0  0  0
 16 17  1  6  0  0  0
 18  4  1  1  0  0  0
 20 21  1  0  0  0  0
 20 27  1  0  0  0  0
 21 31  1  1  0  0  0
 21 23  1  0  0  0  0
 21 22  1  0  0  0  0
 23 24  1  0  0  0  0
 23 29  1  6  0  0  0
 24 25  1  0  0  0  0
 24 28  1  1  0  0  0
 25 27  1  0  0  0  0
 25 26  1  1  0  0  0
 29 30  1  0  0  0  0
M  CHG  5   6   1  10   1  14   1  19   1  29   1
M  END
>  <CHROM.1>
81.29244797,64.42851694,165.67290934,-143.80403499,62.77775525,56.02266752
-35.46659935,106.43564850,-66.71424753,57.99584923,-39.92368867,49.55082321
-157.70007465,7.30670164,4.93992459,-2.44059865,1.40587030,-0.62112671,2.46093108

>  <Name>
1byj cryst

>  <RI>
0

>  <Rbt.Current_Directory>
/home/itssahil/PROJECTS/Mol_Feturizer/New_Systems/rnas/1byj

>  <Rbt.Executable>
rbdock ($Id: //depot/dev/client3/rdock/2013.1/src/exe/rbdock.cxx#4 $)

>  <Rbt.Library>
libRbt.so (2013.1, Build901 2013/11/27)

>  <Rbt.Parameter_File>
/export/apps/rDock/src/rDock_2013.1_src/data/scripts/dock_solv.prm

>  <Rbt.Receptor>
prm/blind_docking_60.prm

>  <SCORE>
-11.6286

>  <SCORE.INTER>
-17.5778

>  <SCORE.INTER.CONST>
1

>  <SCORE.INTER.POLAR>
-4.5216

>  <SCORE.INTER.ROT>
6

>  <SCORE.INTER.SOLV>
31.7767

>  <SCORE.INTER.VDW>
-14.8388

>  <SCORE.INTER.norm>
-0.567027

>  <SCORE.INTRA>
-0.556485

>  <SCORE.INTRA.DIHEDRAL>
-1.7911

>  <SCORE.INTRA.DIHEDRAL.0>
18.4149

>  <SCORE.INTRA.POLAR>
-0.0956136

>  <SCORE.INTRA.POLAR.0>
0

>  <SCORE.INTRA.REPUL>
-0.0647696

>  <SCORE.INTRA.REPUL.0>
0.092687

>  <SCORE.INTRA.SOLV>
-4.34746

>  <SCORE.INTRA.SOLV.lig_0>
-120.37

>  <SCORE.INTRA.VDW>
3.16173

>  <SCORE.INTRA.VDW.0>
-1.75542

>  <SCORE.INTRA.norm>
-0.0179511

>  <SCORE.RESTR>
6.50569

>  <SCORE.RESTR.CAVITY>
6.50569

>  <SCORE.RESTR.norm>
0.209861

>  <SCORE.SYSTEM>
0

>  <SCORE.SYSTEM.CONST>
0

>  <SCORE.SYSTEM.DIHEDRAL>
0

>  <SCORE.SYSTEM.SOLV>
0

>  <SCORE.SYSTEM.norm>
0

>  <SCORE.heavy>
31

>  <SCORE.norm>
-0.375118

>  <RMSD>
5.325

$$$$
1byj cryst
 OpenBabel11021811383D
libRbt.so/2013.1/901 2013/11/27
 31 33  0  0  0  0  0  0  0  0999 V2000
    3.8838    4.0743    0.1575 C   0  0  1  0  0  0  0  0  0  0  0  0
    5.3295    3.9668   -0.0439 O   0  0  0  0  0  0  0  0  0  0  0  0
    5.9151    2.6419   -0.2181 C   0  0  2  0  0  0  0  0  0  0  0  0
    5.5032    2.0411   -1.4854 O   0  0  0  0  0  0  0  0  0  0  0  0
    5.5122    1.7380    0.9866 C   0  0  2  0  0  0  0  0  0  0  0  0
    6.0611    0.3706    0.8978 N   0  3  0  0  0  0  0  0  0  0  0  0
    3.9685    1.6926    1.1247 C   0  0  0  0  0  0  0  0  0  0  0  0
    3.3854    3.1066    1.2661 C   0  0  0  0  0  0  0  0  0  0  0  0
    3.5285    5.5197    0.5482 C   0  0  0  0  0  0  0  0  0  0  0  0
    4.2514    6.0103    1.7289 N   0  3  0  0  0  0  0  0  0  0  0  0
    7.7012    2.4591   -2.5172 C   0  0  1  0  0  0  0  0  0  0  0  0
    8.4443    3.0230   -3.7527 C   0  0  0  0  0  0  0  0  0  0  0  0
    8.0143    4.4899   -4.0230 C   0  0  1  0  0  0  0  0  0  0  0  0
    8.7863    5.0395   -5.1538 N   0  3  0  0  0  0  0  0  0  0  0  0
    6.4806    4.5639   -4.2763 C   0  0  1  0  0  0  0  0  0  0  0  0
    5.6786    3.9192   -3.1181 C   0  0  1  0  0  0  0  0  0  0  0  0
    4.3207    3.8901   -3.5320 O   0  0  0  0  0  0  0  0  0  0  0  0
    6.1506    2.4818   -2.7201 C   0  0  2  0  0  0  0  0  0  0  0  0
    8.1910    1.1044   -2.2073 N   0  3  0  0  0  0  0  0  0  0  0  0
    7.4575    8.6506   -4.2159 C   0  0  0  0  0  0  0  0  0  0  0  0
    6.3379    9.6840   -3.9399 C   0  0  2  0  0  0  0  0  0  0  0  0
    6.6338   10.2937   -2.6842 O   0  0  0  0  0  0  0  0  0  0  0  0
    4.9456    8.9488   -3.8934 C   0  0  1  0  0  0  0  0  0  0  0  0
    4.9593    7.6747   -2.9820 C   0  0  2  0  0  0  0  0  0  0  0  0
    6.2026    6.7749   -3.1973 C   0  0  1  0  0  0  0  0  0  0  0  0
    6.0448    5.9494   -4.3811 O   0  0  0  0  0  0  0  0  0  0  0  0
    7.4212    7.5696   -3.2465 O   0  0  0  0  0  0  0  0  0  0  0  0
    3.7850    6.8887   -3.1672 O   0  0  0  0  0  0  0  0  0  0  0  0
    3.8835    9.9043   -3.4490 N   0  3  0  0  0  0  0  0  0  0  0  0
    2.4805    9.4848   -3.6423 C   0  0  0  0  0  0  0  0  0  0  0  0
    6.4109   10.7929   -5.0184 C   0  0  0  0  0  0  0  0  0  0  0  0
  1  8  1  0  0  0  0
  1  9  1  1  0  0  0
  1  2  1  0  0  0  0
  2  3  1  0  0  0  0
  3  5  1  0  0  0  0
  3  4  1  6  0  0  0
  5  7  1  0  0  0  0
  5  6  1  6  0  0  0
  7  8  1  0  0  0  0
  9 10  1  0  0  0  0
 11 12  1  0  0  0  0
 11 18  1  0  0  0  0
 11 19  1  6  0  0  0
 12 13  1  0  0  0  0
 13 15  1  0  0  0  0
 13 14  1  6  0  0  0
 15 16  1  0  0  0  0
 15 26  1  1  0  0  0
 16 18  1  0  0  0  0
 16 17  1  6  0  0  0
 18  4  1  1  0  0  0
 20 21  1  0  0  0  0
 20 27  1  0  0  0  0
 21 31  1  6  0  0  0
 21 23  1  0  0  0  0
 21 22  1  0  0  0  0
 23 24  1  0  0  0  0
 23 29  1  1  0  0  0
 24 25  1  0  0  0  0
 24 28  1  6  0  0  0
 25 27  1  0  0  0  0
 25 26  1  6  0  0  0
 29 30  1  0  0  0  0
M  CHG  5   6   1  10   1  14   1  19   1  29   1
M  END
>  <CHROM.1>
-55.77926271,77.89213887,49.00582564,-172.50269794,60.69777608,69.56433409
54.20625515,-63.65076707,-80.51409391,-61.69223061,-72.60057316,50.28649221
-138.21760904,5.73136664,5.32414808,-2.25571015,1.57526075,-0.78139496,2.66862957

>  <Name>
1byj cryst

>  <RI>
0

>  <Rbt.Current_Directory>
/home/itssahil/PROJECTS/Mol_Feturizer/New_Systems/rnas/1byj

>  <Rbt.Executable>
rbdock ($Id: //depot/dev/client3/rdock/2013.1/src/exe/rbdock.cxx#4 $)

>  <Rbt.Library>
libRbt.so (2013.1, Build901 2013/11/27)

>  <Rbt.Parameter_File>
/export/apps/rDock/src/rDock_2013.1_src/data/scripts/dock_solv.prm

>  <Rbt.Receptor>
prm/pocket_docking_4.prm

>  <SCORE>
-31.0939

>  <SCORE.INTER>
-23.2958

>  <SCORE.INTER.CONST>
1

>  <SCORE.INTER.POLAR>
-3.943

>  <SCORE.INTER.ROT>
6

>  <SCORE.INTER.SOLV>
23.7089

>  <SCORE.INTER.VDW>
-17.8902

>  <SCORE.INTER.norm>
-0.751479

>  <SCORE.INTRA>
-7.7981

>  <SCORE.INTRA.DIHEDRAL>
-7.07788

>  <SCORE.INTRA.DIHEDRAL.0>
18.4149

>  <SCORE.INTRA.POLAR>
-0.739602

>  <SCORE.INTRA.POLAR.0>
0

>  <SCORE.INTRA.REPUL>
-0.092687

>  <SCORE.INTRA.REPUL.0>
0.092687

>  <SCORE.INTRA.SOLV>
1.13361

>  <SCORE.INTRA.SOLV.lig_0>
-120.37

>  <SCORE.INTRA.VDW>
-1.84789

>  <SCORE.INTRA.VDW.0>
-1.75542

>  <SCORE.INTRA.norm>
-0.251552

>  <SCORE.RESTR>
0

>  <SCORE.RESTR.CAVITY>
0

>  <SCORE.RESTR.norm>
0

>  <SCORE.SYSTEM>
0

>  <SCORE.SYSTEM.CONST>
0

>  <SCORE.SYSTEM.DIHEDRAL>
0

>  <SCORE.SYSTEM.SOLV>
0

>  <SCORE.SYSTEM.norm>
0

>  <SCORE.heavy>
31

>  <SCORE.norm>
-1.00303

>  <RMSD>
5.349

$$$$
1byj cryst
 OpenBabel11021811383D
libRbt.so/2013.1/901 2013/11/27
 31 33  0  0  0  0  0  0  0  0999 V2000
    7.0263    3.6436    0.4190 C   0  0  1  0  0  0  0  0  0  0  0  0
    7.6792    2.3741    0.0966 O   0  0  0  0  0  0  0  0  0  0  0  0
    6.8482    1.2356   -0.2800 C   0  0  2  0  0  0  0  0  0  0  0  0
    6.2063    1.4515   -1.5754 O   0  0  0  0  0  0  0  0  0  0  0  0
    5.7879    0.9807    0.8342 C   0  0  2  0  0  0  0  0  0  0  0  0
    4.8962   -0.1582    0.5398 N   0  3  0  0  0  0  0  0  0  0  0  0
    4.9580    2.2665    1.0831 C   0  0  0  0  0  0  0  0  0  0  0  0
    5.8691    3.4512    1.4378 C   0  0  0  0  0  0  0  0  0  0  0  0
    8.0634    4.6167    1.0070 C   0  0  0  0  0  0  0  0  0  0  0  0
    8.9813    3.9952    1.9705 N   0  3  0  0  0  0  0  0  0  0  0  0
    8.4863    1.9863   -2.3407 C   0  0  1  0  0  0  0  0  0  0  0  0
    9.3358    2.7791   -3.3636 C   0  0  0  0  0  0  0  0  0  0  0  0
    8.9742    4.2881   -3.3170 C   0  0  1  0  0  0  0  0  0  0  0  0
    9.8445    5.0418   -4.2397 N   0  3  0  0  0  0  0  0  0  0  0  0
    7.4665    4.4911   -3.6444 C   0  0  1  0  0  0  0  0  0  0  0  0
    6.5613    3.6401   -2.7188 C   0  0  1  0  0  0  0  0  0  0  0  0
    5.2372    3.7708   -3.2146 O   0  0  0  0  0  0  0  0  0  0  0  0
    6.9563    2.1289   -2.6319 C   0  0  2  0  0  0  0  0  0  0  0  0
    8.9082    0.5746   -2.3191 N   0  3  0  0  0  0  0  0  0  0  0  0
    4.6911    7.7728   -3.6096 C   0  0  0  0  0  0  0  0  0  0  0  0
    5.2923    9.1794   -3.8495 C   0  0  2  0  0  0  0  0  0  0  0  0
    4.7871    9.6406   -5.1018 O   0  0  0  0  0  0  0  0  0  0  0  0
    6.8641    9.0796   -3.8800 C   0  0  1  0  0  0  0  0  0  0  0  0
    7.3840    7.9309   -4.8095 C   0  0  2  0  0  0  0  0  0  0  0  0
    6.6159    6.5967   -4.6309 C   0  0  1  0  0  0  0  0  0  0  0  0
    7.0844    5.8837   -3.4562 O   0  0  0  0  0  0  0  0  0  0  0  0
    5.1783    6.8217   -4.5935 O   0  0  0  0  0  0  0  0  0  0  0  0
    8.7750    7.6907   -4.6133 O   0  0  0  0  0  0  0  0  0  0  0  0
    7.4466   10.3952   -4.2903 N   0  3  0  0  0  0  0  0  0  0  0  0
    7.4281   11.4791   -3.2870 C   0  0  0  0  0  0  0  0  0  0  0  0
    4.7592   10.1385   -2.7568 C   0  0  0  0  0  0  0  0  0  0  0  0
  1  8  1  0  0  0  0
  1  9  1  1  0  0  0
  1  2  1  0  0  0  0
  2  3  1  0  0  0  0
  3  5  1  0  0  0  0
  3  4  1  6  0  0  0
  5  7  1  0  0  0  0
  5  6  1  6  0  0  0
  7  8  1  0  0  0  0
  9 10  1  0  0  0  0
 11 12  1  0  0  0  0
 11 18  1  0  0  0  0
 11 19  1  6  0  0  0
 12 13  1  0  0  0  0
 13 15  1  0  0  0  0
 13 14  1  6  0  0  0
 15 16  1  0  0  0  0
 15 26  1  1  0  0  0
 16 18  1  0  0  0  0
 16 17  1  6  0  0  0
 18  4  1  1  0  0  0
 20 21  1  0  0  0  0
 20 27  1  0  0  0  0
 21 31  1  1  0  0  0
 21 23  1  0  0  0  0
 21 22  1  0  0  0  0
 23 24  1  0  0  0  0
 23 29  1  6  0  0  0
 24 25  1  0  0  0  0
 24 28  1  1  0  0  0
 25 27  1  0  0  0  0
 25 26  1  1  0  0  0
 29 30  1  0  0  0  0
M  CHG  5   6   1  10   1  14   1  19   1  29   1
M  END
>  <CHROM.1>
-42.55169601,37.94018683,22.41582564,137.51327455,-55.10529713,58.61208933
143.94394556,117.70198774,60.73362462,59.86099574,-164.53844896,-51.19559002
-128.37436485,6.93064539,5.00916538,-2.30789961,1.49560458,-0.77469293,2.59908802

>  <Name>
1byj cryst

>  <RI>
0

>  <Rbt.Current_Directory>
/home/itssahil/PROJECTS/Mol_Feturizer/New_Systems/rnas/1byj

>  <Rbt.Executable>
rbdock ($Id: //depot/dev/client3/rdock/2013.1/src/exe/rbdock.cxx#4 $)

>  <Rbt.Library>
libRbt.so (2013.1, Build901 2013/11/27)

>  <Rbt.Parameter_File>
/export/apps/rDock/src/rDock_2013.1_src/data/scripts/dock_solv.prm

>  <Rbt.Receptor>
prm/blind_docking_60.prm

>  <SCORE>
-11.8239

>  <SCORE.INTER>
-25.3014

>  <SCORE.INTER.CONST>
1

>  <SCORE.INTER.POLAR>
-5.29039

>  <SCORE.INTER.ROT>
6

>  <SCORE.INTER.SOLV>
31.6594

>  <SCORE.INTER.VDW>
-17.3861

>  <SCORE.INTER.norm>
-0.816175

>  <SCORE.INTRA>
5.02258

>  <SCORE.INTRA.DIHEDRAL>
10.1399

>  <SCORE.INTRA.DIHEDRAL.0>
18.4149

>  <SCORE.INTRA.POLAR>
-1.16464

>  <SCORE.INTRA.POLAR.0>
0

>  <SCORE.INTRA.REPUL>
-0.0715243

>  <SCORE.INTRA.REPUL.0>
0.092687

>  <SCORE.INTRA.SOLV>
0.678139

>  <SCORE.INTRA.SOLV.lig_0>
-120.37

>  <SCORE.INTRA.VDW>
3.93098

>  <SCORE.INTRA.VDW.0>
-1.75542

>  <SCORE.INTRA.norm>
0.162019

>  <SCORE.RESTR>
8.45494

>  <SCORE.RESTR.CAVITY>
8.45494

>  <SCORE.RESTR.norm>
0.27274

>  <SCORE.SYSTEM>
0

>  <SCORE.SYSTEM.CONST>
0

>  <SCORE.SYSTEM.DIHEDRAL>
0

>  <SCORE.SYSTEM.SOLV>
0

>  <SCORE.SYSTEM.norm>
0

>  <SCORE.heavy>
31

>  <SCORE.norm>
-0.381416

>  <RMSD>
5.371

$$$$
1byj cryst
 OpenBabel11021811383D
libRbt.so/2013.1/901 2013/11/27
 31 33  0  0  0  0  0  0  0  0999 V2000
    8.6849    2.6735   -3.1697 C   0  0  1  0  0  0  0  0  0  0  0  0
    7.3438    2.3765   -3.6751 O   0  0  0  0  0  0  0  0  0  0  0  0
    6.2021    2.5752   -2.7887 C   0  0  2  0  0  0  0  0  0  0  0  0
    5.9877    3.9936   -2.5080 O   0  0  0  0  0  0  0  0  0  0  0  0
    6.4265    1.7719   -1.4716 C   0  0  2  0  0  0  0  0  0  0  0  0
    5.3174    1.9124   -0.5077 N   0  3  0  0  0  0  0  0  0  0  0  0
    7.7682    2.1890   -0.8160 C   0  0  0  0  0  0  0  0  0  0  0  0
    8.9402    2.0033   -1.7915 C   0  0  0  0  0  0  0  0  0  0  0  0
    9.7335    2.1737   -4.1790 C   0  0  0  0  0  0  0  0  0  0  0  0
   11.1211    2.3580   -3.7339 N   0  3  0  0  0  0  0  0  0  0  0  0
    6.9004    5.7242   -1.0105 C   0  0  1  0  0  0  0  0  0  0  0  0
    8.0467    6.7396   -0.7832 C   0  0  0  0  0  0  0  0  0  0  0  0
    8.1771    7.6937   -2.0008 C   0  0  1  0  0  0  0  0  0  0  0  0
    9.2199    8.7038   -1.7380 N   0  3  0  0  0  0  0  0  0  0  0  0
    8.4699    6.8796   -3.2943 C   0  0  1  0  0  0  0  0  0  0  0  0
    7.4107    5.7727   -3.5247 C   0  0  1  0  0  0  0  0  0  0  0  0
    7.8683    4.9952   -4.6212 O   0  0  0  0  0  0  0  0  0  0  0  0
    7.1489    4.8538   -2.2859 C   0  0  2  0  0  0  0  0  0  0  0  0
    6.7170    4.8913    0.1911 N   0  3  0  0  0  0  0  0  0  0  0  0
    6.1785    9.1375   -2.9616 C   0  0  0  0  0  0  0  0  0  0  0  0
    6.0453   10.5334   -3.6184 C   0  0  2  0  0  0  0  0  0  0  0  0
    4.7295   10.6132   -4.1647 O   0  0  0  0  0  0  0  0  0  0  0  0
    7.1328   10.6875   -4.7476 C   0  0  1  0  0  0  0  0  0  0  0  0
    7.1797    9.4604   -5.7202 C   0  0  2  0  0  0  0  0  0  0  0  0
    7.1371    8.0931   -4.9917 C   0  0  1  0  0  0  0  0  0  0  0  0
    8.4444    7.7479   -4.4630 O   0  0  0  0  0  0  0  0  0  0  0  0
    6.1122    8.0828   -3.9582 O   0  0  0  0  0  0  0  0  0  0  0  0
    8.3338    9.5009   -6.5553 O   0  0  0  0  0  0  0  0  0  0  0  0
    6.8971   11.9546   -5.5073 N   0  3  0  0  0  0  0  0  0  0  0  0
    5.5616   12.1354   -6.1121 C   0  0  0  0  0  0  0  0  0  0  0  0
    6.1509   11.6127   -2.5130 C   0  0  0  0  0  0  0  0  0  0  0  0
  1  8  1  0  0  0  0
  1  9  1  6  0  0  0
  1  2  1  0  0  0  0
  2  3  1  0  0  0  0
  3  5  1  0  0  0  0
  3  4  1  1  0  0  0
  5  7  1  0  0  0  0
  5  6  1  1  0  0  0
  7  8  1  0  0  0  0
  9 10  1  0  0  0  0
 11 12  1  0  0  0  0
 11 18  1  0  0  0  0
 11 19  1  1  0  0  0
 12 13  1  0  0  0  0
 13 15  1  0  0  0  0
 13 14  1  1  0  0  0
 15 16  1  0  0  0  0
 15 26  1  6  0  0  0
 16 18  1  0  0  0  0
 16 17  1  6  0  0  0
 18  4  1  6  0  0  0
 20 21  1  0  0  0  0
 20 27  1  0  0  0  0
 21 31  1  1  0  0  0
 21 23  1  0  0  0  0
 21 22  1  0  0  0  0
 23 24  1  0  0  0  0
 23 29  1  6  0  0  0
 24 25  1  0  0  0  0
 24 28  1  1  0  0  0
 25 27  1  0  0  0  0
 25 26  1  1  0  0  0
 29 30  1  0  0  0  0
M  CHG  5   6   1  10   1  14   1  19   1  29   1
M  END
>  <CHROM.1>
-176.88271752,-39.96327871,-132.83598627,-28.45816372,94.46751977,179.70608878
-89.57525928,-79.70895777,173.89158947,58.79499781,65.35182092,-67.04140041
152.85154166,7.33929148,6.45923105,-3.20323029,-1.36310799,0.85855626,-0.46152531

>  <Name>
1byj cryst

>  <RI>
0

>  <Rbt.Current_Directory>
/home/itssahil/PROJECTS/Mol_Feturizer/New_Systems/rnas/1byj

>  <Rbt.Executable>
rbdock ($Id: //depot/dev/client3/rdock/2013.1/src/exe/rbdock.cxx#4 $)

>  <Rbt.Library>
libRbt.so (2013.1, Build901 2013/11/27)

>  <Rbt.Parameter_File>
/export/apps/rDock/src/rDock_2013.1_src/data/scripts/dock_solv.prm

>  <Rbt.Receptor>
prm/blind_docking_100.prm

>  <SCORE>
-8.7945

>  <SCORE.INTER>
-28.5507

>  <SCORE.INTER.CONST>
1

>  <SCORE.INTER.POLAR>
-3.51408

>  <SCORE.INTER.ROT>
6

>  <SCORE.INTER.SOLV>
25.8139

>  <SCORE.INTER.VDW>
-23.5248

>  <SCORE.INTER.norm>
-0.92099

>  <SCORE.INTRA>
10.699

>  <SCORE.INTRA.DIHEDRAL>
1.35377

>  <SCORE.INTRA.DIHEDRAL.0>
18.4149

>  <SCORE.INTRA.POLAR>
-0.285232

>  <SCORE.INTRA.POLAR.0>
0

>  <SCORE.INTRA.REPUL>
-0.092687

>  <SCORE.INTRA.REPUL.0>
0.092687

>  <SCORE.INTRA.SOLV>
3.63723

>  <SCORE.INTRA.SOLV.lig_0>
-120.37

>  <SCORE.INTRA.VDW>
9.63671

>  <SCORE.INTRA.VDW.0>
-1.75542

>  <SCORE.INTRA.norm>
0.345128

>  <SCORE.RESTR>
9.05722

>  <SCORE.RESTR.CAVITY>
9.05722

>  <SCORE.RESTR.norm>
0.292168

>  <SCORE.SYSTEM>
0

>  <SCORE.SYSTEM.CONST>
0

>  <SCORE.SYSTEM.DIHEDRAL>
0

>  <SCORE.SYSTEM.SOLV>
0

>  <SCORE.SYSTEM.norm>
0

>  <SCORE.heavy>
31

>  <SCORE.norm>
-0.283694

>  <RMSD>
5.384

$$$$
1byj cryst
 OpenBabel11021811383D
libRbt.so/2013.1/901 2013/11/27
 31 33  0  0  0  0  0  0  0  0999 V2000
    5.8654    4.9712   -0.8391 C   0  0  1  0  0  0  0  0  0  0  0  0
    6.8386    3.9314   -1.1764 O   0  0  0  0  0  0  0  0  0  0  0  0
    6.3916    2.7799   -1.9528 C   0  0  2  0  0  0  0  0  0  0  0  0
    6.0440    3.1630   -3.3199 O   0  0  0  0  0  0  0  0  0  0  0  0
    5.1800    2.1126   -1.2336 C   0  0  2  0  0  0  0  0  0  0  0  0
    4.6561    0.9324   -1.9490 N   0  3  0  0  0  0  0  0  0  0  0  0
    4.0532    3.1543   -1.0121 C   0  0  0  0  0  0  0  0  0  0  0  0
    4.5710    4.3686   -0.2266 C   0  0  0  0  0  0  0  0  0  0  0  0
    6.4936    5.9522    0.1664 C   0  0  0  0  0  0  0  0  0  0  0  0
    7.7840    6.5027   -0.2682 N   0  3  0  0  0  0  0  0  0  0  0  0
    8.3977    3.8321   -3.6080 C   0  0  1  0  0  0  0  0  0  0  0  0
    9.3631    4.8591   -4.2482 C   0  0  0  0  0  0  0  0  0  0  0  0
    8.9825    6.3023   -3.8214 C   0  0  1  0  0  0  0  0  0  0  0  0
    9.9560    7.2629   -4.3749 N   0  3  0  0  0  0  0  0  0  0  0  0
    7.5272    6.6293   -4.2652 C   0  0  1  0  0  0  0  0  0  0  0  0
    6.5198    5.5755   -3.7411 C   0  0  1  0  0  0  0  0  0  0  0  0
    5.2690    5.8759   -4.3423 O   0  0  0  0  0  0  0  0  0  0  0  0
    6.9163    4.0915   -4.0374 C   0  0  2  0  0  0  0  0  0  0  0  0
    8.8283    2.4613   -3.9347 N   0  3  0  0  0  0  0  0  0  0  0  0
    4.6868    9.3300   -2.5283 C   0  0  0  0  0  0  0  0  0  0  0  0
    4.9086   10.8379   -2.8019 C   0  0  2  0  0  0  0  0  0  0  0  0
    3.8210   11.2786   -3.6137 O   0  0  0  0  0  0  0  0  0  0  0  0
    6.2826   11.0393   -3.5456 C   0  0  1  0  0  0  0  0  0  0  0  0
    6.4616   10.0748   -4.7670 C   0  0  2  0  0  0  0  0  0  0  0  0
    6.0555    8.6105   -4.4622 C   0  0  1  0  0  0  0  0  0  0  0  0
    7.1093    7.9214   -3.7395 O   0  0  0  0  0  0  0  0  0  0  0  0
    4.7850    8.5567   -3.7540 O   0  0  0  0  0  0  0  0  0  0  0  0
    7.8022   10.0893   -5.2505 O   0  0  0  0  0  0  0  0  0  0  0  0
    6.4211   12.4658   -3.9747 N   0  3  0  0  0  0  0  0  0  0  0  0
    7.7074   12.8610   -4.5840 C   0  0  0  0  0  0  0  0  0  0  0  0
    4.8198   11.6030   -1.4585 C   0  0  0  0  0  0  0  0  0  0  0  0
  1  8  1  0  0  0  0
  1  9  1  1  0  0  0
  1  2  1  0  0  0  0
  2  3  1  0  0  0  0
  3  5  1  0  0  0  0
  3  4  1  6  0  0  0
  5  7  1  0  0  0  0
  5  6  1  6  0  0  0
  7  8  1  0  0  0  0
  9 10  1  0  0  0  0
 11 12  1  0  0  0  0
 11 18  1  0  0  0  0
 11 19  1  6  0  0  0
 12 13  1  0  0  0  0
 13 15  1  0  0  0  0
 13 14  1  6  0  0  0
 15 16  1  0  0  0  0
 15 26  1  1  0  0  0
 16 18  1  0  0  0  0
 16 17  1  6  0  0  0
 18  4  1  1  0  0  0
 20 21  1  0  0  0  0
 20 27  1  0  0  0  0
 21 31  1  1  0  0  0
 21 23  1  0  0  0  0
 21 22  1  0  0  0  0
 23 24  1  0  0  0  0
 23 29  1  6  0  0  0
 24 25  1  0  0  0  0
 24 28  1  1  0  0  0
 25 27  1  0  0  0  0
 25 26  1  1  0  0  0
 29 30  1  0  0  0  0
M  CHG  5   6   1  10   1  14   1  19   1  29   1
M  END
>  <CHROM.1>
52.90739607,42.75412836,34.44231952,-49.10403033,-54.85075122,49.89781251
173.55549776,155.74712935,-73.23824657,-61.75810646,-64.20373582,45.50231930
-129.59836983,6.48198270,6.77160987,-3.00752673,1.54341455,-0.61543217,2.92380375

>  <Name>
1byj cryst

>  <RI>
0

>  <Rbt.Current_Directory>
/home/itssahil/PROJECTS/Mol_Feturizer/New_Systems/rnas/1byj

>  <Rbt.Executable>
rbdock ($Id: //depot/dev/client3/rdock/2013.1/src/exe/rbdock.cxx#4 $)

>  <Rbt.Library>
libRbt.so (2013.1, Build901 2013/11/27)

>  <Rbt.Parameter_File>
/export/apps/rDock/src/rDock_2013.1_src/data/scripts/dock_solv.prm

>  <Rbt.Receptor>
prm/pocket_docking_8.prm

>  <SCORE>
-45.9627

>  <SCORE.INTER>
-40.8734

>  <SCORE.INTER.CONST>
1

>  <SCORE.INTER.POLAR>
-7.36118

>  <SCORE.INTER.ROT>
6

>  <SCORE.INTER.SOLV>
28.4108

>  <SCORE.INTER.VDW>
-19.7819

>  <SCORE.INTER.norm>
-1.3185

>  <SCORE.INTRA>
-5.08933

>  <SCORE.INTRA.DIHEDRAL>
-1.97955

>  <SCORE.INTRA.DIHEDRAL.0>
18.4149

>  <SCORE.INTRA.POLAR>
-1

>  <SCORE.INTRA.POLAR.0>
0

>  <SCORE.INTRA.REPUL>
-0.0795652

>  <SCORE.INTRA.REPUL.0>
0.092687

>  <SCORE.INTRA.SOLV>
0.454168

>  <SCORE.INTRA.SOLV.lig_0>
-120.37

>  <SCORE.INTRA.VDW>
-0.52881

>  <SCORE.INTRA.VDW.0>
-1.75542

>  <SCORE.INTRA.norm>
-0.164172

>  <SCORE.RESTR>
0

>  <SCORE.RESTR.CAVITY>
0

>  <SCORE.RESTR.norm>
0

>  <SCORE.SYSTEM>
0

>  <SCORE.SYSTEM.CONST>
0

>  <SCORE.SYSTEM.DIHEDRAL>
0

>  <SCORE.SYSTEM.SOLV>
0

>  <SCORE.SYSTEM.norm>
0

>  <SCORE.heavy>
31

>  <SCORE.norm>
-1.48267

>  <RMSD>
5.384

$$$$
1byj cryst
 OpenBabel11021811383D
libRbt.so/2013.1/901 2013/11/27
 31 33  0  0  0  0  0  0  0  0999 V2000
    8.2827    2.8093    1.3515 C   0  0  1  0  0  0  0  0  0  0  0  0
    8.3972    1.6234    0.5013 O   0  0  0  0  0  0  0  0  0  0  0  0
    7.1758    0.9857    0.0217 C   0  0  2  0  0  0  0  0  0  0  0  0
    6.4726    1.8369   -0.9363 O   0  0  0  0  0  0  0  0  0  0  0  0
    6.2635    0.6398    1.2376 C   0  0  2  0  0  0  0  0  0  0  0  0
    4.9974   -0.0121    0.8488 N   0  3  0  0  0  0  0  0  0  0  0  0
    5.9803    1.9165    2.0706 C   0  0  0  0  0  0  0  0  0  0  0  0
    7.2889    2.5811    2.5237 C   0  0  0  0  0  0  0  0  0  0  0  0
    9.6671    3.1647    1.9218 C   0  0  0  0  0  0  0  0  0  0  0  0
    9.6984    4.4371    2.6547 N   0  3  0  0  0  0  0  0  0  0  0  0
    8.6332    2.0741   -2.0963 C   0  0  1  0  0  0  0  0  0  0  0  0
    9.3329    2.4336   -3.4297 C   0  0  0  0  0  0  0  0  0  0  0  0
    8.8956    3.8434   -3.9102 C   0  0  1  0  0  0  0  0  0  0  0  0
    9.6280    4.2048   -5.1389 N   0  3  0  0  0  0  0  0  0  0  0  0
    7.3541    3.8875   -4.1185 C   0  0  1  0  0  0  0  0  0  0  0  0
    6.5927    3.4367   -2.8468 C   0  0  1  0  0  0  0  0  0  0  0  0
    5.2209    3.3527   -3.2037 O   0  0  0  0  0  0  0  0  0  0  0  0
    7.0765    2.0755   -2.2463 C   0  0  2  0  0  0  0  0  0  0  0  0
    9.1319    0.7808   -1.5962 N   0  3  0  0  0  0  0  0  0  0  0  0
    7.6260    6.6508   -1.8085 C   0  0  0  0  0  0  0  0  0  0  0  0
    7.2943    8.1450   -2.0432 C   0  0  2  0  0  0  0  0  0  0  0  0
    6.2904    8.5030   -1.0944 O   0  0  0  0  0  0  0  0  0  0  0  0
    6.7712    8.3410   -3.5160 C   0  0  1  0  0  0  0  0  0  0  0  0
    5.6602    7.3094   -3.9105 C   0  0  2  0  0  0  0  0  0  0  0  0
    5.9899    5.8552   -3.4882 C   0  0  1  0  0  0  0  0  0  0  0  0
    6.9168    5.2428   -4.4228 O   0  0  0  0  0  0  0  0  0  0  0  0
    6.4853    5.8073   -2.1203 O   0  0  0  0  0  0  0  0  0  0  0  0
    5.4000    7.3338   -5.3115 O   0  0  0  0  0  0  0  0  0  0  0  0
    6.2782    9.7421   -3.6954 N   0  3  0  0  0  0  0  0  0  0  0  0
    6.5858   10.4019   -4.9807 C   0  0  0  0  0  0  0  0  0  0  0  0
    8.5530    8.9878   -1.7216 C   0  0  0  0  0  0  0  0  0  0  0  0
  1  8  1  0  0  0  0
  1  9  1  1  0  0  0
  1  2  1  0  0  0  0
  2  3  1  0  0  0  0
  3  5  1  0  0  0  0
  3  4  1  6  0  0  0
  5  7  1  0  0  0  0
  5  6  1  6  0  0  0
  7  8  1  0  0  0  0
  9 10  1  0  0  0  0
 11 12  1  0  0  0  0
 11 18  1  0  0  0  0
 11 19  1  6  0  0  0
 12 13  1  0  0  0  0
 13 15  1  0  0  0  0
 13 14  1  6  0  0  0
 15 16  1  0  0  0  0
 15 26  1  1  0  0  0
 16 18  1  0  0  0  0
 16 17  1  6  0  0  0
 18  4  1  1  0  0  0
 20 21  1  0  0  0  0
 20 27  1  0  0  0  0
 21 31  1  1  0  0  0
 21 23  1  0  0  0  0
 21 22  1  0  0  0  0
 23 24  1  0  0  0  0
 23 29  1  1  0  0  0
 24 25  1  0  0  0  0
 24 28  1  6  0  0  0
 25 27  1  0  0  0  0
 25 26  1  6  0  0  0
 29 30  1  0  0  0  0
M  CHG  5   6   1  10   1  14   1  19   1  29   1
M  END
>  <CHROM.1>
172.77001206,68.53578479,-32.34208637,42.11467955,-58.53022862,176.94716030
-138.83376814,-118.58247228,-177.91106504,-179.93339617,-98.48835490,-76.74159520
177.73135898,7.27639850,4.48334266,-1.76405431,-0.45529334,-1.45693288,0.52159685

>  <Name>
1byj cryst

>  <RI>
0

>  <Rbt.Current_Directory>
/home/itssahil/PROJECTS/Mol_Feturizer/New_Systems/rnas/1byj

>  <Rbt.Executable>
rbdock ($Id: //depot/dev/client3/rdock/2013.1/src/exe/rbdock.cxx#4 $)

>  <Rbt.Library>
libRbt.so (2013.1, Build901 2013/11/27)

>  <Rbt.Parameter_File>
/export/apps/rDock/src/rDock_2013.1_src/data/scripts/dock_solv.prm

>  <Rbt.Receptor>
prm/blind_docking_60.prm

>  <SCORE>
-2.68502

>  <SCORE.INTER>
-23.0741

>  <SCORE.INTER.CONST>
1

>  <SCORE.INTER.POLAR>
-4.4056

>  <SCORE.INTER.ROT>
6

>  <SCORE.INTER.SOLV>
27.3539

>  <SCORE.INTER.VDW>
-17.4154

>  <SCORE.INTER.norm>
-0.744326

>  <SCORE.INTRA>
17.5966

>  <SCORE.INTRA.DIHEDRAL>
0.320864

>  <SCORE.INTRA.DIHEDRAL.0>
18.4149

>  <SCORE.INTRA.POLAR>
-0.592919

>  <SCORE.INTRA.POLAR.0>
0

>  <SCORE.INTRA.REPUL>
-0.092687

>  <SCORE.INTRA.REPUL.0>
0.092687

>  <SCORE.INTRA.SOLV>
0.219981

>  <SCORE.INTRA.SOLV.lig_0>
-120.37

>  <SCORE.INTRA.VDW>
19.8055

>  <SCORE.INTRA.VDW.0>
-1.75542

>  <SCORE.INTRA.norm>
0.567632

>  <SCORE.RESTR>
2.79249

>  <SCORE.RESTR.CAVITY>
2.79249

>  <SCORE.RESTR.norm>
0.0900804

>  <SCORE.SYSTEM>
0

>  <SCORE.SYSTEM.CONST>
0

>  <SCORE.SYSTEM.DIHEDRAL>
0

>  <SCORE.SYSTEM.SOLV>
0

>  <SCORE.SYSTEM.norm>
0

>  <SCORE.heavy>
31

>  <SCORE.norm>
-0.0866134

>  <RMSD>
5.390

$$$$
1byj cryst
 OpenBabel11021811383D
libRbt.so/2013.1/901 2013/11/27
 31 33  0  0  0  0  0  0  0  0999 V2000
    6.6429    7.9543   -2.5434 C   0  0  1  0  0  0  0  0  0  0  0  0
    5.6788    7.0926   -1.8578 O   0  0  0  0  0  0  0  0  0  0  0  0
    5.4033    7.3357   -0.4459 C   0  0  2  0  0  0  0  0  0  0  0  0
    4.6965    8.6005   -0.2523 O   0  0  0  0  0  0  0  0  0  0  0  0
    6.7429    7.3158    0.3513 C   0  0  2  0  0  0  0  0  0  0  0  0
    6.5638    7.5541    1.7970 N   0  3  0  0  0  0  0  0  0  0  0  0
    7.7338    8.3470   -0.2476 C   0  0  0  0  0  0  0  0  0  0  0  0
    7.9680    8.0833   -1.7426 C   0  0  0  0  0  0  0  0  0  0  0  0
    6.9462    7.3746   -3.9363 C   0  0  0  0  0  0  0  0  0  0  0  0
    7.7497    8.2624   -4.7868 N   0  3  0  0  0  0  0  0  0  0  0  0
    2.5931    9.8273    0.1237 C   0  0  1  0  0  0  0  0  0  0  0  0
    1.0890    9.9198   -0.2309 C   0  0  0  0  0  0  0  0  0  0  0  0
    0.3786    8.5700    0.0575 C   0  0  1  0  0  0  0  0  0  0  0  0
   -1.0668    8.6958   -0.2108 N   0  3  0  0  0  0  0  0  0  0  0  0
    1.0277    7.4299   -0.7794 C   0  0  1  0  0  0  0  0  0  0  0  0
    2.5575    7.3511   -0.5478 C   0  0  1  0  0  0  0  0  0  0  0  0
    3.0604    6.4038   -1.4782 O   0  0  0  0  0  0  0  0  0  0  0  0
    3.3111    8.7128   -0.7061 C   0  0  2  0  0  0  0  0  0  0  0  0
    3.2366   11.1407   -0.0555 N   0  3  0  0  0  0  0  0  0  0  0  0
    0.4850    4.7117   -3.1040 C   0  0  0  0  0  0  0  0  0  0  0  0
   -0.0077    3.2731   -2.8117 C   0  0  2  0  0  0  0  0  0  0  0  0
   -1.2077    3.0834   -3.5601 O   0  0  0  0  0  0  0  0  0  0  0  0
   -0.2773    3.1148   -1.2678 C   0  0  1  0  0  0  0  0  0  0  0  0
   -1.1400    4.2813   -0.6770 C   0  0  2  0  0  0  0  0  0  0  0  0
   -0.6890    5.6854   -1.1534 C   0  0  1  0  0  0  0  0  0  0  0  0
    0.4697    6.1380   -0.4049 O   0  0  0  0  0  0  0  0  0  0  0  0
   -0.4484    5.6983   -2.5890 O   0  0  0  0  0  0  0  0  0  0  0  0
   -1.1424    4.2579    0.7480 O   0  0  0  0  0  0  0  0  0  0  0  0
   -0.9237    1.7923   -1.0002 N   0  3  0  0  0  0  0  0  0  0  0  0
   -0.9736    1.3424    0.4059 C   0  0  0  0  0  0  0  0  0  0  0  0
    1.0388    2.2709   -3.3580 C   0  0  0  0  0  0  0  0  0  0  0  0
  1  8  1  0  0  0  0
  1  9  1  6  0  0  0
  1  2  1  0  0  0  0
  2  3  1  0  0  0  0
  3  5  1  0  0  0  0
  3  4  1  6  0  0  0
  5  7  1  0  0  0  0
  5  6  1  1  0  0  0
  7  8  1  0  0  0  0
  9 10  1  0  0  0  0
 11 12  1  0  0  0  0
 11 18  1  0  0  0  0
 11 19  1  6  0  0  0
 12 13  1  0  0  0  0
 13 15  1  0  0  0  0
 13 14  1  6  0  0  0
 15 16  1  0  0  0  0
 15 26  1  1  0  0  0
 16 18  1  0  0  0  0
 16 17  1  6  0  0  0
 18  4  1  1  0  0  0
 20 21  1  0  0  0  0
 20 27  1  0  0  0  0
 21 31  1  6  0  0  0
 21 23  1  0  0  0  0
 21 22  1  0  0  0  0
 23 24  1  0  0  0  0
 23 29  1  6  0  0  0
 24 25  1  0  0  0  0
 24 28  1  1  0  0  0
 25 27  1  0  0  0  0
 25 26  1  1  0  0  0
 29 30  1  0  0  0  0
M  CHG  5   6   1  10   1  14   1  19   1  29   1
M  END
>  <CHROM.1>
171.50653843,69.57893470,155.23113843,-175.87345746,164.97417038,-56.84035064
65.81870515,90.99655634,-62.36259268,-166.18436258,-72.28298416,170.51302599
178.10803951,2.48317274,6.49635986,-1.17223923,-0.52070051,-0.29210465,-2.65750321

>  <Name>
1byj cryst

>  <RI>
0

>  <Rbt.Current_Directory>
/home/itssahil/PROJECTS/Mol_Feturizer/New_Systems/rnas/1byj

>  <Rbt.Executable>
rbdock ($Id: //depot/dev/client3/rdock/2013.1/src/exe/rbdock.cxx#4 $)

>  <Rbt.Library>
libRbt.so (2013.1, Build901 2013/11/27)

>  <Rbt.Parameter_File>
/export/apps/rDock/src/rDock_2013.1_src/data/scripts/dock_solv.prm

>  <Rbt.Receptor>
prm/pocket_docking_8.prm

>  <SCORE>
-38.7939

>  <SCORE.INTER>
-33.4091

>  <SCORE.INTER.CONST>
1

>  <SCORE.INTER.POLAR>
-5.89706

>  <SCORE.INTER.ROT>
6

>  <SCORE.INTER.SOLV>
15.8108

>  <SCORE.INTER.VDW>
-15.4861

>  <SCORE.INTER.norm>
-1.07771

>  <SCORE.INTRA>
-5.38481

>  <SCORE.INTRA.DIHEDRAL>
-8.29591

>  <SCORE.INTRA.DIHEDRAL.0>
18.4149

>  <SCORE.INTRA.POLAR>
-0.00334402

>  <SCORE.INTRA.POLAR.0>
0

>  <SCORE.INTRA.REPUL>
-0.0287107

>  <SCORE.INTRA.REPUL.0>
0.092687

>  <SCORE.INTRA.SOLV>
-2.96905

>  <SCORE.INTRA.SOLV.lig_0>
-120.37

>  <SCORE.INTRA.VDW>
0.40259

>  <SCORE.INTRA.VDW.0>
-1.75542

>  <SCORE.INTRA.norm>
-0.173704

>  <SCORE.RESTR>
0

>  <SCORE.RESTR.CAVITY>
0

>  <SCORE.RESTR.norm>
0

>  <SCORE.SYSTEM>
0

>  <SCORE.SYSTEM.CONST>
0

>  <SCORE.SYSTEM.DIHEDRAL>
0

>  <SCORE.SYSTEM.SOLV>
0

>  <SCORE.SYSTEM.norm>
0

>  <SCORE.heavy>
31

>  <SCORE.norm>
-1.25142

>  <RMSD>
5.404

$$$$
1byj cryst
 OpenBabel11021811383D
libRbt.so/2013.1/901 2013/11/27
 31 33  0  0  0  0  0  0  0  0999 V2000
    5.6872    4.0131    0.5985 C   0  0  1  0  0  0  0  0  0  0  0  0
    7.1198    4.0633    0.3035 O   0  0  0  0  0  0  0  0  0  0  0  0
    7.9033    2.8389    0.4284 C   0  0  2  0  0  0  0  0  0  0  0  0
    7.5340    1.8645   -0.5967 O   0  0  0  0  0  0  0  0  0  0  0  0
    7.7104    2.2474    1.8579 C   0  0  2  0  0  0  0  0  0  0  0  0
    8.4688    1.0005    2.0794 N   0  3  0  0  0  0  0  0  0  0  0  0
    6.2029    2.0204    2.1408 C   0  0  0  0  0  0  0  0  0  0  0  0
    5.4058    3.3211    1.9608 C   0  0  0  0  0  0  0  0  0  0  0  0
    5.1215    5.4439    0.6297 C   0  0  0  0  0  0  0  0  0  0  0  0
    5.8607    6.3554    1.5128 N   0  3  0  0  0  0  0  0  0  0  0  0
    9.2353    2.4944   -2.2638 C   0  0  1  0  0  0  0  0  0  0  0  0
    9.4836    2.9810   -3.7123 C   0  0  0  0  0  0  0  0  0  0  0  0
    8.6972    4.2907   -3.9881 C   0  0  1  0  0  0  0  0  0  0  0  0
    9.0039    4.7846   -5.3442 N   0  3  0  0  0  0  0  0  0  0  0  0
    7.1721    4.0561   -3.7865 C   0  0  1  0  0  0  0  0  0  0  0  0
    6.8647    3.4687   -2.3862 C   0  0  1  0  0  0  0  0  0  0  0  0
    5.4836    3.1396   -2.3786 O   0  0  0  0  0  0  0  0  0  0  0  0
    7.7186    2.2148   -2.0042 C   0  0  2  0  0  0  0  0  0  0  0  0
   10.0649    1.3104   -1.9789 N   0  3  0  0  0  0  0  0  0  0  0  0
    8.0933    7.8619   -4.1896 C   0  0  0  0  0  0  0  0  0  0  0  0
    7.0758    9.0246   -4.0877 C   0  0  2  0  0  0  0  0  0  0  0  0
    7.4477    9.8057   -2.9529 O   0  0  0  0  0  0  0  0  0  0  0  0
    5.6244    8.4375   -3.9146 C   0  0  1  0  0  0  0  0  0  0  0  0
    5.5405    7.3375   -2.8024 C   0  0  2  0  0  0  0  0  0  0  0  0
    6.6942    6.3047   -2.8671 C   0  0  1  0  0  0  0  0  0  0  0  0
    6.4418    5.3112   -3.8952 O   0  0  0  0  0  0  0  0  0  0  0  0
    7.9779    6.9655   -3.0524 O   0  0  0  0  0  0  0  0  0  0  0  0
    4.2974    6.6420   -2.8497 O   0  0  0  0  0  0  0  0  0  0  0  0
    4.6603    9.5466   -3.6338 N   0  3  0  0  0  0  0  0  0  0  0  0
    3.2230    9.2395   -3.7818 C   0  0  0  0  0  0  0  0  0  0  0  0
    7.2282    9.9266   -5.3372 C   0  0  0  0  0  0  0  0  0  0  0  0
  1  8  1  0  0  0  0
  1  9  1  1  0  0  0
  1  2  1  0  0  0  0
  2  3  1  0  0  0  0
  3  5  1  0  0  0  0
  3  4  1  6  0  0  0
  5  7  1  0  0  0  0
  5  6  1  6  0  0  0
  7  8  1  0  0  0  0
  9 10  1  0  0  0  0
 11 12  1  0  0  0  0
 11 18  1  0  0  0  0
 11 19  1  6  0  0  0
 12 13  1  0  0  0  0
 13 15  1  0  0  0  0
 13 14  1  6  0  0  0
 15 16  1  0  0  0  0
 15 26  1  1  0  0  0
 16 18  1  0  0  0  0
 16 17  1  6  0  0  0
 18  4  1  1  0  0  0
 20 21  1  0  0  0  0
 20 27  1  0  0  0  0
 21 31  1  6  0  0  0
 21 23  1  0  0  0  0
 21 22  1  0  0  0  0
 23 24  1  0  0  0  0
 23 29  1  1  0  0  0
 24 25  1  0  0  0  0
 24 28  1  6  0  0  0
 25 27  1  0  0  0  0
 25 26  1  6  0  0  0
 29 30  1  0  0  0  0
M  CHG  5   6   1  10   1  14   1  19   1  29   1
M  END
>  <CHROM.1>
-52.35525831,61.30268427,60.71210050,-155.79998945,-61.10993288,64.64465988
84.91919641,-66.00126061,63.35336521,-179.43125922,-74.03741316,65.37818971
-160.03138414,6.93555218,5.11960759,-1.94359691,1.27890983,-0.83977143,2.32883818

>  <Name>
1byj cryst

>  <RI>
0

>  <Rbt.Current_Directory>
/home/itssahil/PROJECTS/Mol_Feturizer/New_Systems/rnas/1byj

>  <Rbt.Executable>
rbdock ($Id: //depot/dev/client3/rdock/2013.1/src/exe/rbdock.cxx#4 $)

>  <Rbt.Library>
libRbt.so (2013.1, Build901 2013/11/27)

>  <Rbt.Parameter_File>
/export/apps/rDock/src/rDock_2013.1_src/data/scripts/dock_solv.prm

>  <Rbt.Receptor>
prm/pocket_docking_4.prm

>  <SCORE>
-35.7205

>  <SCORE.INTER>
-28.646

>  <SCORE.INTER.CONST>
1

>  <SCORE.INTER.POLAR>
-4.21816

>  <SCORE.INTER.ROT>
6

>  <SCORE.INTER.SOLV>
25.9773

>  <SCORE.INTER.VDW>
-21.2959

>  <SCORE.INTER.norm>
-0.924064

>  <SCORE.INTRA>
-7.07457

>  <SCORE.INTRA.DIHEDRAL>
-12.4807

>  <SCORE.INTRA.DIHEDRAL.0>
18.4149

>  <SCORE.INTRA.POLAR>
-0.0175147

>  <SCORE.INTRA.POLAR.0>
0

>  <SCORE.INTRA.REPUL>
-0.092687

>  <SCORE.INTRA.REPUL.0>
0.092687

>  <SCORE.INTRA.SOLV>
0.715924

>  <SCORE.INTRA.SOLV.lig_0>
-120.37

>  <SCORE.INTRA.VDW>
-0.669183

>  <SCORE.INTRA.VDW.0>
-1.75542

>  <SCORE.INTRA.norm>
-0.228212

>  <SCORE.RESTR>
0

>  <SCORE.RESTR.CAVITY>
0

>  <SCORE.RESTR.norm>
0

>  <SCORE.SYSTEM>
0

>  <SCORE.SYSTEM.CONST>
0

>  <SCORE.SYSTEM.DIHEDRAL>
0

>  <SCORE.SYSTEM.SOLV>
0

>  <SCORE.SYSTEM.norm>
0

>  <SCORE.heavy>
31

>  <SCORE.norm>
-1.15228

>  <RMSD>
5.446

$$$$
1byj cryst
 OpenBabel11021811383D
libRbt.so/2013.1/901 2013/11/27
 31 33  0  0  0  0  0  0  0  0999 V2000
    9.7056    2.5840   -2.8404 C   0  0  1  0  0  0  0  0  0  0  0  0
    8.8325    2.3655   -3.9946 O   0  0  0  0  0  0  0  0  0  0  0  0
    7.3988    2.2161   -3.7691 C   0  0  2  0  0  0  0  0  0  0  0  0
    6.7990    3.4689   -3.3138 O   0  0  0  0  0  0  0  0  0  0  0  0
    7.1559    1.0723   -2.7379 C   0  0  2  0  0  0  0  0  0  0  0  0
    5.7269    0.8466   -2.4447 N   0  3  0  0  0  0  0  0  0  0  0  0
    7.9369    1.3604   -1.4299 C   0  0  0  0  0  0  0  0  0  0  0  0
    9.4348    1.5508   -1.7122 C   0  0  0  0  0  0  0  0  0  0  0  0
   11.1753    2.4774   -3.2841 C   0  0  0  0  0  0  0  0  0  0  0  0
   11.3760    1.6470   -4.4789 N   0  3  0  0  0  0  0  0  0  0  0  0
    7.0035    5.1526   -1.5266 C   0  0  1  0  0  0  0  0  0  0  0  0
    7.8232    6.3517   -0.9910 C   0  0  0  0  0  0  0  0  0  0  0  0
    7.9419    7.4565   -2.0750 C   0  0  1  0  0  0  0  0  0  0  0  0
    8.6575    8.6241   -1.5259 N   0  3  0  0  0  0  0  0  0  0  0  0
    8.6407    6.8917   -3.3456 C   0  0  1  0  0  0  0  0  0  0  0  0
    7.9263    5.6228   -3.8742 C   0  0  1  0  0  0  0  0  0  0  0  0
    8.7392    5.1039   -4.9163 O   0  0  0  0  0  0  0  0  0  0  0  0
    7.6699    4.5216   -2.7930 C   0  0  2  0  0  0  0  0  0  0  0  0
    6.8087    4.1559   -0.4588 N   0  3  0  0  0  0  0  0  0  0  0  0
    6.0130    8.8653   -3.1825 C   0  0  0  0  0  0  0  0  0  0  0  0
    5.7701   10.2641   -3.8005 C   0  0  2  0  0  0  0  0  0  0  0  0
    4.5354   10.1964   -4.5126 O   0  0  0  0  0  0  0  0  0  0  0  0
    6.9589   10.6228   -4.7697 C   0  0  1  0  0  0  0  0  0  0  0  0
    7.2988    9.4671   -5.7711 C   0  0  2  0  0  0  0  0  0  0  0  0
    7.3562    8.0693   -5.1043 C   0  0  1  0  0  0  0  0  0  0  0  0
    8.6218    7.8742   -4.4203 O   0  0  0  0  0  0  0  0  0  0  0  0
    6.2207    7.8663   -4.2164 O   0  0  0  0  0  0  0  0  0  0  0  0
    8.5319    9.7066   -6.4444 O   0  0  0  0  0  0  0  0  0  0  0  0
    6.6461   11.8860   -5.5079 N   0  3  0  0  0  0  0  0  0  0  0  0
    5.2900   12.0103   -6.0801 C   0  0  0  0  0  0  0  0  0  0  0  0
    5.5838   11.2868   -2.6527 C   0  0  0  0  0  0  0  0  0  0  0  0
  1  8  1  0  0  0  0
  1  9  1  6  0  0  0
  1  2  1  0  0  0  0
  2  3  1  0  0  0  0
  3  5  1  0  0  0  0
  3  4  1  1  0  0  0
  5  7  1  0  0  0  0
  5  6  1  1  0  0  0
  7  8  1  0  0  0  0
  9 10  1  0  0  0  0
 11 12  1  0  0  0  0
 11 18  1  0  0  0  0
 11 19  1  1  0  0  0
 12 13  1  0  0  0  0
 13 15  1  0  0  0  0
 13 14  1  1  0  0  0
 15 16  1  0  0  0  0
 15 26  1  6  0  0  0
 16 18  1  0  0  0  0
 16 17  1  6  0  0  0
 18  4  1  6  0  0  0
 20 21  1  0  0  0  0
 20 27  1  0  0  0  0
 21 31  1  1  0  0  0
 21 23  1  0  0  0  0
 21 22  1  0  0  0  0
 23 24  1  0  0  0  0
 23 29  1  6  0  0  0
 24 25  1  0  0  0  0
 24 28  1  1  0  0  0
 25 27  1  0  0  0  0
 25 26  1  1  0  0  0
 29 30  1  0  0  0  0
M  CHG  5   6   1  10   1  14   1  19   1  29   1
M  END
>  <CHROM.1>
-25.52309967,-16.98323283,-138.05407812,59.63361268,6.44450258,-51.77510741
47.95481395,-75.18441876,61.29308081,-44.34478810,75.69033344,-64.24339189
156.66644715,7.60094713,6.18714355,-3.50564960,-1.25634369,0.70097129,-0.43205467

>  <Name>
1byj cryst

>  <RI>
0

>  <Rbt.Current_Directory>
/home/itssahil/PROJECTS/Mol_Feturizer/New_Systems/rnas/1byj

>  <Rbt.Executable>
rbdock ($Id: //depot/dev/client3/rdock/2013.1/src/exe/rbdock.cxx#4 $)

>  <Rbt.Library>
libRbt.so (2013.1, Build901 2013/11/27)

>  <Rbt.Parameter_File>
/export/apps/rDock/src/rDock_2013.1_src/data/scripts/dock_solv.prm

>  <Rbt.Receptor>
prm/blind_docking_100.prm

>  <SCORE>
4.40008

>  <SCORE.INTER>
-15.3495

>  <SCORE.INTER.CONST>
1

>  <SCORE.INTER.POLAR>
-4.88336

>  <SCORE.INTER.ROT>
6

>  <SCORE.INTER.SOLV>
32.1486

>  <SCORE.INTER.VDW>
-12.2713

>  <SCORE.INTER.norm>
-0.495144

>  <SCORE.INTRA>
13.4073

>  <SCORE.INTRA.DIHEDRAL>
6.0462

>  <SCORE.INTRA.DIHEDRAL.0>
18.4149

>  <SCORE.INTRA.POLAR>
-0.350663

>  <SCORE.INTRA.POLAR.0>
0

>  <SCORE.INTRA.REPUL>
0.0707366

>  <SCORE.INTRA.REPUL.0>
0.092687

>  <SCORE.INTRA.SOLV>
2.53114

>  <SCORE.INTRA.SOLV.lig_0>
-120.37

>  <SCORE.INTRA.VDW>
9.95716

>  <SCORE.INTRA.VDW.0>
-1.75542

>  <SCORE.INTRA.norm>
0.432492

>  <SCORE.RESTR>
6.34227

>  <SCORE.RESTR.CAVITY>
6.34227

>  <SCORE.RESTR.norm>
0.204589

>  <SCORE.SYSTEM>
0

>  <SCORE.SYSTEM.CONST>
0

>  <SCORE.SYSTEM.DIHEDRAL>
0

>  <SCORE.SYSTEM.SOLV>
0

>  <SCORE.SYSTEM.norm>
0

>  <SCORE.heavy>
31

>  <SCORE.norm>
0.141938

>  <RMSD>
5.454

$$$$
1byj cryst
 OpenBabel11021811383D
libRbt.so/2013.1/901 2013/11/27
 31 33  0  0  0  0  0  0  0  0999 V2000
    6.2573    1.4223    1.0722 C   0  0  1  0  0  0  0  0  0  0  0  0
    6.2275    2.7226    0.4010 O   0  0  0  0  0  0  0  0  0  0  0  0
    7.4723    3.4728    0.2732 C   0  0  2  0  0  0  0  0  0  0  0  0
    8.4009    2.8102   -0.6409 O   0  0  0  0  0  0  0  0  0  0  0  0
    8.1107    3.6557    1.6837 C   0  0  2  0  0  0  0  0  0  0  0  0
    9.3810    4.4072    1.6549 N   0  3  0  0  0  0  0  0  0  0  0  0
    8.3150    2.2747    2.3584 C   0  0  0  0  0  0  0  0  0  0  0  0
    6.9917    1.4989    2.4392 C   0  0  0  0  0  0  0  0  0  0  0  0
    4.8167    0.9303    1.2971 C   0  0  0  0  0  0  0  0  0  0  0  0
    4.2333    0.2499    0.1335 N   0  3  0  0  0  0  0  0  0  0  0  0
    9.5982    2.6182   -2.7856 C   0  0  1  0  0  0  0  0  0  0  0  0
    9.5715    2.9546   -4.2965 C   0  0  0  0  0  0  0  0  0  0  0  0
    9.3891    4.4814   -4.5102 C   0  0  1  0  0  0  0  0  0  0  0  0
    9.4436    4.7969   -5.9505 N   0  3  0  0  0  0  0  0  0  0  0  0
    8.0592    4.9613   -3.8603 C   0  0  1  0  0  0  0  0  0  0  0  0
    7.9772    4.5623   -2.3655 C   0  0  1  0  0  0  0  0  0  0  0  0
    6.6680    4.8949   -1.9280 O   0  0  0  0  0  0  0  0  0  0  0  0
    8.2737    3.0536   -2.0770 C   0  0  2  0  0  0  0  0  0  0  0  0
    9.8745    1.1838   -2.5918 N   0  3  0  0  0  0  0  0  0  0  0  0
    5.2382    7.6400   -3.2555 C   0  0  0  0  0  0  0  0  0  0  0  0
    5.3741    9.1455   -3.5910 C   0  0  2  0  0  0  0  0  0  0  0  0
    4.4166    9.4338   -4.6089 O   0  0  0  0  0  0  0  0  0  0  0  0
    6.8369    9.4403   -4.0957 C   0  0  1  0  0  0  0  0  0  0  0  0
    7.3162    8.4341   -5.1965 C   0  0  2  0  0  0  0  0  0  0  0  0
    6.9903    6.9555   -4.8657 C   0  0  1  0  0  0  0  0  0  0  0  0
    7.9522    6.4122   -3.9237 O   0  0  0  0  0  0  0  0  0  0  0  0
    5.6224    6.8156   -4.3881 O   0  0  0  0  0  0  0  0  0  0  0  0
    8.7156    8.5537   -5.4384 O   0  0  0  0  0  0  0  0  0  0  0  0
    6.9264   10.8486   -4.5927 N   0  3  0  0  0  0  0  0  0  0  0  0
    7.5908   11.8300   -3.7112 C   0  0  0  0  0  0  0  0  0  0  0  0
    4.9786    9.9689   -2.3406 C   0  0  0  0  0  0  0  0  0  0  0  0
  1  8  1  0  0  0  0
  1  9  1  1  0  0  0
  1  2  1  0  0  0  0
  2  3  1  0  0  0  0
  3  5  1  0  0  0  0
  3  4  1  6  0  0  0
  5  7  1  0  0  0  0
  5  6  1  6  0  0  0
  7  8  1  0  0  0  0
  9 10  1  0  0  0  0
 11 12  1  0  0  0  0
 11 18  1  0  0  0  0
 11 19  1  6  0  0  0
 12 13  1  0  0  0  0
 13 15  1  0  0  0  0
 13 14  1  6  0  0  0
 15 16  1  0  0  0  0
 15 26  1  1  0  0  0
 16 18  1  0  0  0  0
 16 17  1  6  0  0  0
 18  4  1  1  0  0  0
 20 21  1  0  0  0  0
 20 27  1  0  0  0  0
 21 31  1  1  0  0  0
 21 23  1  0  0  0  0
 21 22  1  0  0  0  0
 23 24  1  0  0  0  0
 23 29  1  6  0  0  0
 24 25  1  0  0  0  0
 24 28  1  1  0  0  0
 25 27  1  0  0  0  0
 25 26  1  1  0  0  0
 29 30  1  0  0  0  0
M  CHG  5   6   1  10   1  14   1  19   1  29   1
M  END
>  <CHROM.1>
83.74109205,84.48231088,162.69124818,-152.70456471,-69.63626411,-172.41962184
-162.41057782,107.57450407,64.86714514,-53.66214921,-135.31606698,-59.30213890
-159.99867514,7.31778694,5.24997920,-2.27866077,1.48426086,-0.79614666,2.47878496

>  <Name>
1byj cryst

>  <RI>
0

>  <Rbt.Current_Directory>
/home/itssahil/PROJECTS/Mol_Feturizer/New_Systems/rnas/1byj

>  <Rbt.Executable>
rbdock ($Id: //depot/dev/client3/rdock/2013.1/src/exe/rbdock.cxx#4 $)

>  <Rbt.Library>
libRbt.so (2013.1, Build901 2013/11/27)

>  <Rbt.Parameter_File>
/export/apps/rDock/src/rDock_2013.1_src/data/scripts/dock_solv.prm

>  <Rbt.Receptor>
prm/blind_docking_60.prm

>  <SCORE>
-15.1756

>  <SCORE.INTER>
-20.8038

>  <SCORE.INTER.CONST>
1

>  <SCORE.INTER.POLAR>
-4.70383

>  <SCORE.INTER.ROT>
6

>  <SCORE.INTER.SOLV>
30.332

>  <SCORE.INTER.VDW>
-15.9005

>  <SCORE.INTER.norm>
-0.671092

>  <SCORE.INTRA>
-1.96612

>  <SCORE.INTRA.DIHEDRAL>
1.81189

>  <SCORE.INTRA.DIHEDRAL.0>
18.4149

>  <SCORE.INTRA.POLAR>
-0.0337974

>  <SCORE.INTRA.POLAR.0>
0

>  <SCORE.INTRA.REPUL>
-0.092687

>  <SCORE.INTRA.REPUL.0>
0.092687

>  <SCORE.INTRA.SOLV>
-3.49128

>  <SCORE.INTRA.SOLV.lig_0>
-120.37

>  <SCORE.INTRA.VDW>
-0.548084

>  <SCORE.INTRA.VDW.0>
-1.75542

>  <SCORE.INTRA.norm>
-0.0634233

>  <SCORE.RESTR>
7.59433

>  <SCORE.RESTR.CAVITY>
7.59433

>  <SCORE.RESTR.norm>
0.244978

>  <SCORE.SYSTEM>
0

>  <SCORE.SYSTEM.CONST>
0

>  <SCORE.SYSTEM.DIHEDRAL>
0

>  <SCORE.SYSTEM.SOLV>
0

>  <SCORE.SYSTEM.norm>
0

>  <SCORE.heavy>
31

>  <SCORE.norm>
-0.489537

>  <RMSD>
5.454

$$$$
1byj cryst
 OpenBabel11021811383D
libRbt.so/2013.1/901 2013/11/27
 31 33  0  0  0  0  0  0  0  0999 V2000
    7.0504    4.5591    0.7679 C   0  0  1  0  0  0  0  0  0  0  0  0
    8.3424    4.0281    0.3313 O   0  0  0  0  0  0  0  0  0  0  0  0
    8.5639    2.5873    0.3933 C   0  0  2  0  0  0  0  0  0  0  0  0
    7.7316    1.8793   -0.5776 O   0  0  0  0  0  0  0  0  0  0  0  0
    8.2837    2.0849    1.8422 C   0  0  2  0  0  0  0  0  0  0  0  0
    8.4824    0.6310    2.0031 N   0  3  0  0  0  0  0  0  0  0  0  0
    6.8502    2.4856    2.2764 C   0  0  0  0  0  0  0  0  0  0  0  0
    6.6423    4.0031    2.1600 C   0  0  0  0  0  0  0  0  0  0  0  0
    7.1260    6.0945    0.8369 C   0  0  0  0  0  0  0  0  0  0  0  0
    7.6504    6.7187   -0.3848 N   0  3  0  0  0  0  0  0  0  0  0  0
    9.1546    2.2097   -2.5616 C   0  0  1  0  0  0  0  0  0  0  0  0
    9.2303    2.7884   -3.9955 C   0  0  0  0  0  0  0  0  0  0  0  0
    8.8431    4.2917   -3.9961 C   0  0  1  0  0  0  0  0  0  0  0  0
    8.9946    4.8489   -5.3538 N   0  3  0  0  0  0  0  0  0  0  0  0
    7.3973    4.4759   -3.4506 C   0  0  1  0  0  0  0  0  0  0  0  0
    7.2258    3.8244   -2.0555 C   0  0  1  0  0  0  0  0  0  0  0  0
    5.8440    3.9030   -1.7382 O   0  0  0  0  0  0  0  0  0  0  0  0
    7.7150    2.3413   -1.9647 C   0  0  2  0  0  0  0  0  0  0  0  0
    9.6223    0.8124   -2.5549 N   0  3  0  0  0  0  0  0  0  0  0  0
    4.6754    7.7362   -3.6613 C   0  0  0  0  0  0  0  0  0  0  0  0
    5.2691    9.1549   -3.8407 C   0  0  2  0  0  0  0  0  0  0  0  0
    4.8678    9.6147   -5.1305 O   0  0  0  0  0  0  0  0  0  0  0  0
    6.8390    9.0839   -3.7327 C   0  0  1  0  0  0  0  0  0  0  0  0
    7.4601    7.9506   -4.6181 C   0  0  2  0  0  0  0  0  0  0  0  0
    6.7043    6.6016   -4.5141 C   0  0  1  0  0  0  0  0  0  0  0  0
    7.0805    5.8899   -3.3060 O   0  0  0  0  0  0  0  0  0  0  0  0
    5.2650    6.8003   -4.6028 O   0  0  0  0  0  0  0  0  0  0  0  0
    8.8327    7.7345   -4.3010 O   0  0  0  0  0  0  0  0  0  0  0  0
    7.4308   10.4124   -4.0840 N   0  3  0  0  0  0  0  0  0  0  0  0
    7.4473   11.4407   -3.0238 C   0  0  0  0  0  0  0  0  0  0  0  0
    4.6239   10.0974   -2.7949 C   0  0  0  0  0  0  0  0  0  0  0  0
  1  8  1  0  0  0  0
  1  9  1  1  0  0  0
  1  2  1  0  0  0  0
  2  3  1  0  0  0  0
  3  5  1  0  0  0  0
  3  4  1  6  0  0  0
  5  7  1  0  0  0  0
  5  6  1  6  0  0  0
  7  8  1  0  0  0  0
  9 10  1  0  0  0  0
 11 12  1  0  0  0  0
 11 18  1  0  0  0  0
 11 19  1  6  0  0  0
 12 13  1  0  0  0  0
 13 15  1  0  0  0  0
 13 14  1  6  0  0  0
 15 16  1  0  0  0  0
 15 26  1  1  0  0  0
 16 18  1  0  0  0  0
 16 17  1  6  0  0  0
 18  4  1  1  0  0  0
 20 21  1  0  0  0  0
 20 27  1  0  0  0  0
 21 31  1  1  0  0  0
 21 23  1  0  0  0  0
 21 22  1  0  0  0  0
 23 24  1  0  0  0  0
 23 29  1  6  0  0  0
 24 25  1  0  0  0  0
 24 28  1  1  0  0  0
 25 27  1  0  0  0  0
 25 26  1  1  0  0  0
 29 30  1  0  0  0  0
M  CHG  5   6   1  10   1  14   1  19   1  29   1
M  END
>  <CHROM.1>
50.96571672,49.46595570,62.12387698,112.79612952,48.48982184,-174.82049140
-47.33354396,79.58466387,-64.11546627,49.47418722,-157.47484689,-62.05271614
-133.28657169,7.34147650,5.40508807,-2.14263884,1.05267859,-1.11585887,2.11436102

>  <Name>
1byj cryst

>  <RI>
0

>  <Rbt.Current_Directory>
/home/itssahil/PROJECTS/Mol_Feturizer/New_Systems/rnas/1byj

>  <Rbt.Executable>
rbdock ($Id: //depot/dev/client3/rdock/2013.1/src/exe/rbdock.cxx#4 $)

>  <Rbt.Library>
libRbt.so (2013.1, Build901 2013/11/27)

>  <Rbt.Parameter_File>
/export/apps/rDock/src/rDock_2013.1_src/data/scripts/dock_solv.prm

>  <Rbt.Receptor>
prm/pocket_docking_6.prm

>  <SCORE>
-43.9233

>  <SCORE.INTER>
-36.0042

>  <SCORE.INTER.CONST>
1

>  <SCORE.INTER.POLAR>
-5.80098

>  <SCORE.INTER.ROT>
6

>  <SCORE.INTER.SOLV>
36.1638

>  <SCORE.INTER.VDW>
-24.3208

>  <SCORE.INTER.norm>
-1.16143

>  <SCORE.INTRA>
-7.91906

>  <SCORE.INTRA.DIHEDRAL>
-3.42969

>  <SCORE.INTRA.DIHEDRAL.0>
18.4149

>  <SCORE.INTRA.POLAR>
-2.36445

>  <SCORE.INTRA.POLAR.0>
0

>  <SCORE.INTRA.REPUL>
-0.092687

>  <SCORE.INTRA.REPUL.0>
0.092687

>  <SCORE.INTRA.SOLV>
4.33657

>  <SCORE.INTRA.SOLV.lig_0>
-120.37

>  <SCORE.INTRA.VDW>
0.130087

>  <SCORE.INTRA.VDW.0>
-1.75542

>  <SCORE.INTRA.norm>
-0.255453

>  <SCORE.RESTR>
0

>  <SCORE.RESTR.CAVITY>
0

>  <SCORE.RESTR.norm>
0

>  <SCORE.SYSTEM>
0

>  <SCORE.SYSTEM.CONST>
0

>  <SCORE.SYSTEM.DIHEDRAL>
0

>  <SCORE.SYSTEM.SOLV>
0

>  <SCORE.SYSTEM.norm>
0

>  <SCORE.heavy>
31

>  <SCORE.norm>
-1.41688

>  <RMSD>
5.456

$$$$
1byj cryst
 OpenBabel11021811383D
libRbt.so/2013.1/901 2013/11/27
 31 33  0  0  0  0  0  0  0  0999 V2000
    5.9075    1.5901    1.0607 C   0  0  1  0  0  0  0  0  0  0  0  0
    6.3358    2.7481    0.2747 O   0  0  0  0  0  0  0  0  0  0  0  0
    7.7619    2.9433    0.0365 C   0  0  2  0  0  0  0  0  0  0  0  0
    8.3004    1.9084   -0.8442 O   0  0  0  0  0  0  0  0  0  0  0  0
    8.5143    2.9632    1.4018 C   0  0  2  0  0  0  0  0  0  0  0  0
    9.9709    3.1567    1.2612 N   0  3  0  0  0  0  0  0  0  0  0  0
    8.2158    1.6634    2.1927 C   0  0  0  0  0  0  0  0  0  0  0  0
    6.7044    1.4718    2.3891 C   0  0  0  0  0  0  0  0  0  0  0  0
    4.4070    1.7151    1.3786 C   0  0  0  0  0  0  0  0  0  0  0  0
    3.7409    0.4275    1.6148 N   0  3  0  0  0  0  0  0  0  0  0  0
    9.9319    2.6170   -2.5490 C   0  0  1  0  0  0  0  0  0  0  0  0
   10.1320    3.0488   -4.0221 C   0  0  0  0  0  0  0  0  0  0  0  0
    9.2182    4.2564   -4.3635 C   0  0  1  0  0  0  0  0  0  0  0  0
    9.4754    4.7062   -5.7449 N   0  3  0  0  0  0  0  0  0  0  0  0
    7.7242    3.8806   -4.1437 C   0  0  1  0  0  0  0  0  0  0  0  0
    7.4755    3.3402   -2.7132 C   0  0  1  0  0  0  0  0  0  0  0  0
    6.1344    2.8748   -2.6828 O   0  0  0  0  0  0  0  0  0  0  0  0
    8.4507    2.2005   -2.2689 C   0  0  2  0  0  0  0  0  0  0  0  0
   10.8760    1.5391   -2.2052 N   0  3  0  0  0  0  0  0  0  0  0  0
    8.0125    6.5028   -1.8861 C   0  0  0  0  0  0  0  0  0  0  0  0
    7.4222    7.9330   -1.9483 C   0  0  2  0  0  0  0  0  0  0  0  0
    6.6516    8.1178   -0.7617 O   0  0  0  0  0  0  0  0  0  0  0  0
    6.5198    8.0724   -3.2319 C   0  0  1  0  0  0  0  0  0  0  0  0
    5.5042    6.8908   -3.3942 C   0  0  2  0  0  0  0  0  0  0  0  0
    6.1345    5.4965   -3.1478 C   0  0  1  0  0  0  0  0  0  0  0  0
    6.8714    5.0485   -4.3156 O   0  0  0  0  0  0  0  0  0  0  0  0
    6.9626    5.5011   -1.9506 O   0  0  0  0  0  0  0  0  0  0  0  0
    4.8961    6.8993   -4.6831 O   0  0  0  0  0  0  0  0  0  0  0  0
    5.8025    9.3851   -3.2058 N   0  3  0  0  0  0  0  0  0  0  0  0
    6.3356   10.4580   -4.0699 C   0  0  0  0  0  0  0  0  0  0  0  0
    8.5875    8.9518   -1.9036 C   0  0  0  0  0  0  0  0  0  0  0  0
  1  8  1  0  0  0  0
  1  9  1  1  0  0  0
  1  2  1  0  0  0  0
  2  3  1  0  0  0  0
  3  5  1  0  0  0  0
  3  4  1  6  0  0  0
  5  7  1  0  0  0  0
  5  6  1  6  0  0  0
  7  8  1  0  0  0  0
  9 10  1  0  0  0  0
 11 12  1  0  0  0  0
 11 18  1  0  0  0  0
 11 19  1  6  0  0  0
 12 13  1  0  0  0  0
 13 15  1  0  0  0  0
 13 14  1  6  0  0  0
 15 16  1  0  0  0  0
 15 26  1  1  0  0  0
 16 18  1  0  0  0  0
 16 17  1  6  0  0  0
 18  4  1  1  0  0  0
 20 21  1  0  0  0  0
 20 27  1  0  0  0  0
 21 31  1  6  0  0  0
 21 23  1  0  0  0  0
 21 22  1  0  0  0  0
 23 24  1  0  0  0  0
 23 29  1  1  0  0  0
 24 25  1  0  0  0  0
 24 28  1  6  0  0  0
 25 27  1  0  0  0  0
 25 26  1  6  0  0  0
 29 30  1  0  0  0  0
M  CHG  5   6   1  10   1  14   1  19   1  29   1
M  END
>  <CHROM.1>
154.45520946,97.78517457,97.70618637,82.40968861,-176.25182384,-172.07873598
-125.33342903,-116.12794847,-169.63420345,56.55183305,-136.48204520,-140.21698027
168.63314167,7.37078196,4.46332961,-1.75887110,1.50857285,-0.71616498,2.49334198

>  <Name>
1byj cryst

>  <RI>
0

>  <Rbt.Current_Directory>
/home/itssahil/PROJECTS/Mol_Feturizer/New_Systems/rnas/1byj

>  <Rbt.Executable>
rbdock ($Id: //depot/dev/client3/rdock/2013.1/src/exe/rbdock.cxx#4 $)

>  <Rbt.Library>
libRbt.so (2013.1, Build901 2013/11/27)

>  <Rbt.Parameter_File>
/export/apps/rDock/src/rDock_2013.1_src/data/scripts/dock_solv.prm

>  <Rbt.Receptor>
prm/blind_docking_60.prm

>  <SCORE>
-0.541882

>  <SCORE.INTER>
-18.9528

>  <SCORE.INTER.CONST>
1

>  <SCORE.INTER.POLAR>
-3.95244

>  <SCORE.INTER.ROT>
6

>  <SCORE.INTER.SOLV>
33.4158

>  <SCORE.INTER.VDW>
-18.199

>  <SCORE.INTER.norm>
-0.61138

>  <SCORE.INTRA>
13.4161

>  <SCORE.INTRA.DIHEDRAL>
15.1093

>  <SCORE.INTRA.DIHEDRAL.0>
18.4149

>  <SCORE.INTRA.POLAR>
-1.04645

>  <SCORE.INTRA.POLAR.0>
0

>  <SCORE.INTRA.REPUL>
0.13616

>  <SCORE.INTRA.REPUL.0>
0.092687

>  <SCORE.INTRA.SOLV>
-2.25807

>  <SCORE.INTRA.SOLV.lig_0>
-120.37

>  <SCORE.INTRA.VDW>
9.86765

>  <SCORE.INTRA.VDW.0>
-1.75542

>  <SCORE.INTRA.norm>
0.432779

>  <SCORE.RESTR>
4.99476

>  <SCORE.RESTR.CAVITY>
4.99476

>  <SCORE.RESTR.norm>
0.161121

>  <SCORE.SYSTEM>
0

>  <SCORE.SYSTEM.CONST>
0

>  <SCORE.SYSTEM.DIHEDRAL>
0

>  <SCORE.SYSTEM.SOLV>
0

>  <SCORE.SYSTEM.norm>
0

>  <SCORE.heavy>
31

>  <SCORE.norm>
-0.0174801

>  <RMSD>
5.488

$$$$
1byj cryst
 OpenBabel11021811383D
libRbt.so/2013.1/901 2013/11/27
 31 33  0  0  0  0  0  0  0  0999 V2000
    5.9641    1.7506    1.1392 C   0  0  1  0  0  0  0  0  0  0  0  0
    6.4117    2.9436    0.4190 O   0  0  0  0  0  0  0  0  0  0  0  0
    7.8428    3.1434    0.2174 C   0  0  2  0  0  0  0  0  0  0  0  0
    8.3937    2.1502   -0.7028 O   0  0  0  0  0  0  0  0  0  0  0  0
    8.5693    3.0928    1.5958 C   0  0  2  0  0  0  0  0  0  0  0  0
   10.0291    3.2860    1.4921 N   0  3  0  0  0  0  0  0  0  0  0  0
    8.2509    1.7573    2.3164 C   0  0  0  0  0  0  0  0  0  0  0  0
    6.7353    1.5636    2.4749 C   0  0  0  0  0  0  0  0  0  0  0  0
    4.4584    1.8671    1.4347 C   0  0  0  0  0  0  0  0  0  0  0  0
    3.8074    0.5809    1.7163 N   0  3  0  0  0  0  0  0  0  0  0  0
    9.8116    2.2875   -2.7130 C   0  0  1  0  0  0  0  0  0  0  0  0
    9.8677    2.6746   -4.2109 C   0  0  0  0  0  0  0  0  0  0  0  0
    9.4050    4.1428   -4.4106 C   0  0  1  0  0  0  0  0  0  0  0  0
    9.5373    4.5225   -5.8302 N   0  3  0  0  0  0  0  0  0  0  0  0
    7.9481    4.3236   -3.8944 C   0  0  1  0  0  0  0  0  0  0  0  0
    7.8003    3.8545   -2.4253 C   0  0  1  0  0  0  0  0  0  0  0  0
    6.4142    3.9038   -2.1212 O   0  0  0  0  0  0  0  0  0  0  0  0
    8.3632    2.4233   -2.1388 C   0  0  2  0  0  0  0  0  0  0  0  0
   10.3493    0.9290   -2.5213 N   0  3  0  0  0  0  0  0  0  0  0  0
    7.7587    7.6486   -1.5751 C   0  0  0  0  0  0  0  0  0  0  0  0
    6.9570    8.9042   -1.9977 C   0  0  2  0  0  0  0  0  0  0  0  0
    5.8877    9.0496   -1.0641 O   0  0  0  0  0  0  0  0  0  0  0  0
    6.4040    8.7059   -3.4593 C   0  0  1  0  0  0  0  0  0  0  0  0
    5.6935    7.3243   -3.6598 C   0  0  2  0  0  0  0  0  0  0  0  0
    6.4794    6.1324   -3.0569 C   0  0  1  0  0  0  0  0  0  0  0  0
    7.5592    5.7262   -3.9383 O   0  0  0  0  0  0  0  0  0  0  0  0
    6.9581    6.4451   -1.7183 O   0  0  0  0  0  0  0  0  0  0  0  0
    5.4448    7.0612   -5.0383 O   0  0  0  0  0  0  0  0  0  0  0  0
    5.4803    9.8301   -3.8074 N   0  3  0  0  0  0  0  0  0  0  0  0
    5.9823   10.8398   -4.7615 C   0  0  0  0  0  0  0  0  0  0  0  0
    7.8692   10.1468   -1.8498 C   0  0  0  0  0  0  0  0  0  0  0  0
  1  8  1  0  0  0  0
  1  9  1  1  0  0  0
  1  2  1  0  0  0  0
  2  3  1  0  0  0  0
  3  5  1  0  0  0  0
  3  4  1  6  0  0  0
  5  7  1  0  0  0  0
  5  6  1  6  0  0  0
  7  8  1  0  0  0  0
  9 10  1  0  0  0  0
 11 12  1  0  0  0  0
 11 18  1  0  0  0  0
 11 19  1  6  0  0  0
 12 13  1  0  0  0  0
 13 15  1  0  0  0  0
 13 14  1  6  0  0  0
 15 16  1  0  0  0  0
 15 26  1  1  0  0  0
 16 18  1  0  0  0  0
 16 17  1  6  0  0  0
 18  4  1  1  0  0  0
 20 21  1  0  0  0  0
 20 27  1  0  0  0  0
 21 31  1  1  0  0  0
 21 23  1  0  0  0  0
 21 22  1  0  0  0  0
 23 24  1  0  0  0  0
 23 29  1  1  0  0  0
 24 25  1  0  0  0  0
 24 28  1  6  0  0  0
 25 27  1  0  0  0  0
 25 26  1  6  0  0  0
 29 30  1  0  0  0  0
M  CHG  5   6   1  10   1  14   1  19   1  29   1
M  END
>  <CHROM.1>
159.74321184,87.53957232,125.61055370,-35.74660192,175.02615870,60.55145311
97.04663178,-157.41882143,179.91158998,-60.94811645,-132.26208757,-64.09082460
-150.69142024,7.34900396,4.80733027,-1.75402136,1.40838091,-0.86489407,2.46373025

>  <Name>
1byj cryst

>  <RI>
0

>  <Rbt.Current_Directory>
/home/itssahil/PROJECTS/Mol_Feturizer/New_Systems/rnas/1byj

>  <Rbt.Executable>
rbdock ($Id: //depot/dev/client3/rdock/2013.1/src/exe/rbdock.cxx#4 $)

>  <Rbt.Library>
libRbt.so (2013.1, Build901 2013/11/27)

>  <Rbt.Parameter_File>
/export/apps/rDock/src/rDock_2013.1_src/data/scripts/dock_solv.prm

>  <Rbt.Receptor>
prm/blind_docking_60.prm

>  <SCORE>
-13.0516

>  <SCORE.INTER>
-26.166

>  <SCORE.INTER.CONST>
1

>  <SCORE.INTER.POLAR>
-4.77057

>  <SCORE.INTER.ROT>
6

>  <SCORE.INTER.SOLV>
32.4451

>  <SCORE.INTER.VDW>
-19.9571

>  <SCORE.INTER.norm>
-0.844063

>  <SCORE.INTRA>
6.45905

>  <SCORE.INTRA.DIHEDRAL>
6.09307

>  <SCORE.INTRA.DIHEDRAL.0>
18.4149

>  <SCORE.INTRA.POLAR>
-1.01453

>  <SCORE.INTRA.POLAR.0>
0

>  <SCORE.INTRA.REPUL>
0.0201754

>  <SCORE.INTRA.REPUL.0>
0.092687

>  <SCORE.INTRA.SOLV>
-3.64819

>  <SCORE.INTRA.SOLV.lig_0>
-120.37

>  <SCORE.INTRA.VDW>
8.58514

>  <SCORE.INTRA.VDW.0>
-1.75542

>  <SCORE.INTRA.norm>
0.208356

>  <SCORE.RESTR>
6.65532

>  <SCORE.RESTR.CAVITY>
6.65532

>  <SCORE.RESTR.norm>
0.214688

>  <SCORE.SYSTEM>
0

>  <SCORE.SYSTEM.CONST>
0

>  <SCORE.SYSTEM.DIHEDRAL>
0

>  <SCORE.SYSTEM.SOLV>
0

>  <SCORE.SYSTEM.norm>
0

>  <SCORE.heavy>
31

>  <SCORE.norm>
-0.421019

>  <RMSD>
5.524

$$$$
1byj cryst
 OpenBabel11021811383D
libRbt.so/2013.1/901 2013/11/27
 31 33  0  0  0  0  0  0  0  0999 V2000
    5.8857    1.4214    1.2464 C   0  0  1  0  0  0  0  0  0  0  0  0
    6.1084    2.5542    0.3468 O   0  0  0  0  0  0  0  0  0  0  0  0
    7.4731    2.8603   -0.0684 C   0  0  2  0  0  0  0  0  0  0  0  0
    8.0095    1.8180   -0.9417 O   0  0  0  0  0  0  0  0  0  0  0  0
    8.3668    3.0457    1.1955 C   0  0  2  0  0  0  0  0  0  0  0  0
    9.7727    3.3598    0.8736 N   0  3  0  0  0  0  0  0  0  0  0  0
    8.2869    1.7842    2.0934 C   0  0  0  0  0  0  0  0  0  0  0  0
    6.8328    1.4711    2.4769 C   0  0  0  0  0  0  0  0  0  0  0  0
    4.4247    1.4324    1.7298 C   0  0  0  0  0  0  0  0  0  0  0  0
    3.4692    0.9104    0.7440 N   0  3  0  0  0  0  0  0  0  0  0  0
    9.7608    2.6422   -2.4662 C   0  0  1  0  0  0  0  0  0  0  0  0
   10.0824    3.1077   -3.9072 C   0  0  0  0  0  0  0  0  0  0  0  0
    9.1409    4.2686   -4.3263 C   0  0  1  0  0  0  0  0  0  0  0  0
    9.5092    4.7539   -5.6701 N   0  3  0  0  0  0  0  0  0  0  0  0
    7.6559    3.8080   -4.2618 C   0  0  1  0  0  0  0  0  0  0  0  0
    7.2964    3.2320   -2.8693 C   0  0  1  0  0  0  0  0  0  0  0  0
    5.9872    2.6932   -2.9788 O   0  0  0  0  0  0  0  0  0  0  0  0
    8.2847    2.1405   -2.3410 C   0  0  2  0  0  0  0  0  0  0  0  0
   10.7249    1.6124   -2.0404 N   0  3  0  0  0  0  0  0  0  0  0  0
    7.9976    6.2171   -2.0303 C   0  0  0  0  0  0  0  0  0  0  0  0
    7.5926    7.7102   -2.0972 C   0  0  2  0  0  0  0  0  0  0  0  0
    6.8144    7.9835   -0.9328 O   0  0  0  0  0  0  0  0  0  0  0  0
    6.7552    7.9682   -3.4062 C   0  0  1  0  0  0  0  0  0  0  0  0
    5.6056    6.9237   -3.6101 C   0  0  2  0  0  0  0  0  0  0  0  0
    6.0490    5.4603   -3.3575 C   0  0  1  0  0  0  0  0  0  0  0  0
    6.7603    4.9299   -4.5066 O   0  0  0  0  0  0  0  0  0  0  0  0
    6.8334    5.3549   -2.1358 O   0  0  0  0  0  0  0  0  0  0  0  0
    5.0439    7.0151   -4.9167 O   0  0  0  0  0  0  0  0  0  0  0  0
    6.2069    9.3601   -3.3898 N   0  3  0  0  0  0  0  0  0  0  0  0
    6.3392   10.1478   -4.6324 C   0  0  0  0  0  0  0  0  0  0  0  0
    8.8741    8.5751   -2.0078 C   0  0  0  0  0  0  0  0  0  0  0  0
  1  8  1  0  0  0  0
  1  9  1  1  0  0  0
  1  2  1  0  0  0  0
  2  3  1  0  0  0  0
  3  5  1  0  0  0  0
  3  4  1  6  0  0  0
  5  7  1  0  0  0  0
  5  6  1  6  0  0  0
  7  8  1  0  0  0  0
  9 10  1  0  0  0  0
 11 12  1  0  0  0  0
 11 18  1  0  0  0  0
 11 19  1  6  0  0  0
 12 13  1  0  0  0  0
 13 15  1  0  0  0  0
 13 14  1  6  0  0  0
 15 16  1  0  0  0  0
 15 26  1  1  0  0  0
 16 18  1  0  0  0  0
 16 17  1  6  0  0  0
 18  4  1  1  0  0  0
 20 21  1  0  0  0  0
 20 27  1  0  0  0  0
 21 31  1  6  0  0  0
 21 23  1  0  0  0  0
 21 22  1  0  0  0  0
 23 24  1  0  0  0  0
 23 29  1  1  0  0  0
 24 25  1  0  0  0  0
 24 28  1  6  0  0  0
 25 27  1  0  0  0  0
 25 26  1  6  0  0  0
 29 30  1  0  0  0  0
M  CHG  5   6   1  10   1  14   1  19   1  29   1
M  END
>  <CHROM.1>
78.45304158,113.01949968,90.57070238,146.03461489,68.93872201,-58.57742452
123.97797807,-106.24772225,-103.09218682,60.32586160,-104.66177043,51.68061795
157.41804158,7.33975873,4.41573478,-1.89161007,1.56402079,-0.65750744,2.49085654

>  <Name>
1byj cryst

>  <RI>
0

>  <Rbt.Current_Directory>
/home/itssahil/PROJECTS/Mol_Feturizer/New_Systems/rnas/1byj

>  <Rbt.Executable>
rbdock ($Id: //depot/dev/client3/rdock/2013.1/src/exe/rbdock.cxx#4 $)

>  <Rbt.Library>
libRbt.so (2013.1, Build901 2013/11/27)

>  <Rbt.Parameter_File>
/export/apps/rDock/src/rDock_2013.1_src/data/scripts/dock_solv.prm

>  <Rbt.Receptor>
prm/blind_docking_60.prm

>  <SCORE>
7.21434

>  <SCORE.INTER>
-15.6349

>  <SCORE.INTER.CONST>
1

>  <SCORE.INTER.POLAR>
-3.52302

>  <SCORE.INTER.ROT>
6

>  <SCORE.INTER.SOLV>
30.1751

>  <SCORE.INTER.VDW>
-16.3383

>  <SCORE.INTER.norm>
-0.504353

>  <SCORE.INTRA>
19.5051

>  <SCORE.INTRA.DIHEDRAL>
17.2637

>  <SCORE.INTRA.DIHEDRAL.0>
18.4149

>  <SCORE.INTRA.POLAR>
0

>  <SCORE.INTRA.POLAR.0>
0

>  <SCORE.INTRA.REPUL>
-0.092687

>  <SCORE.INTRA.REPUL.0>
0.092687

>  <SCORE.INTRA.SOLV>
-0.0398762

>  <SCORE.INTRA.SOLV.lig_0>
-120.37

>  <SCORE.INTRA.VDW>
11.3566

>  <SCORE.INTRA.VDW.0>
-1.75542

>  <SCORE.INTRA.norm>
0.629195

>  <SCORE.RESTR>
3.34422

>  <SCORE.RESTR.CAVITY>
3.34422

>  <SCORE.RESTR.norm>
0.107878

>  <SCORE.SYSTEM>
0

>  <SCORE.SYSTEM.CONST>
0

>  <SCORE.SYSTEM.DIHEDRAL>
0

>  <SCORE.SYSTEM.SOLV>
0

>  <SCORE.SYSTEM.norm>
0

>  <SCORE.heavy>
31

>  <SCORE.norm>
0.232721

>  <RMSD>
5.530

$$$$
1byj cryst
 OpenBabel11021811383D
libRbt.so/2013.1/901 2013/11/27
 31 33  0  0  0  0  0  0  0  0999 V2000
    6.3080    7.7510   -1.8622 C   0  0  1  0  0  0  0  0  0  0  0  0
    6.0734    6.6908   -2.8435 O   0  0  0  0  0  0  0  0  0  0  0  0
    7.2019    5.8708   -3.2710 C   0  0  2  0  0  0  0  0  0  0  0  0
    7.6818    5.0189   -2.1844 O   0  0  0  0  0  0  0  0  0  0  0  0
    8.3395    6.7959   -3.8007 C   0  0  2  0  0  0  0  0  0  0  0  0
    9.5295    6.0519   -4.2582 N   0  3  0  0  0  0  0  0  0  0  0  0
    8.7333    7.8301   -2.7147 C   0  0  0  0  0  0  0  0  0  0  0  0
    7.5133    8.6462   -2.2618 C   0  0  0  0  0  0  0  0  0  0  0  0
    5.0461    8.6235   -1.7411 C   0  0  0  0  0  0  0  0  0  0  0  0
    3.8835    7.9129   -1.1928 N   0  3  0  0  0  0  0  0  0  0  0  0
    7.5543    2.5672   -1.9766 C   0  0  1  0  0  0  0  0  0  0  0  0
    6.6561    1.3634   -1.6016 C   0  0  0  0  0  0  0  0  0  0  0  0
    5.3461    1.3825   -2.4342 C   0  0  1  0  0  0  0  0  0  0  0  0
    4.5359    0.1892   -2.1235 N   0  3  0  0  0  0  0  0  0  0  0  0
    4.5615    2.7010   -2.1741 C   0  0  1  0  0  0  0  0  0  0  0  0
    5.4414    3.9498   -2.4323 C   0  0  1  0  0  0  0  0  0  0  0  0
    4.6868    5.0735   -2.0034 O   0  0  0  0  0  0  0  0  0  0  0  0
    6.8302    3.9280   -1.7126 C   0  0  2  0  0  0  0  0  0  0  0  0
    8.8379    2.4837   -1.2576 N   0  3  0  0  0  0  0  0  0  0  0  0
    0.7483    3.2605   -4.4811 C   0  0  0  0  0  0  0  0  0  0  0  0
   -0.3405    2.8726   -3.4507 C   0  0  2  0  0  0  0  0  0  0  0  0
   -1.1197    4.0429   -3.2072 O   0  0  0  0  0  0  0  0  0  0  0  0
    0.3470    2.3695   -2.1257 C   0  0  1  0  0  0  0  0  0  0  0  0
    1.4744    3.3326   -1.6204 C   0  0  2  0  0  0  0  0  0  0  0  0
    2.4252    3.8144   -2.7455 C   0  0  1  0  0  0  0  0  0  0  0  0
    3.4106    2.7960   -3.0611 O   0  0  0  0  0  0  0  0  0  0  0  0
    1.6752    4.2291   -3.9221 O   0  0  0  0  0  0  0  0  0  0  0  0
    2.2511    2.7300   -0.5885 O   0  0  0  0  0  0  0  0  0  0  0  0
   -0.6879    2.1657   -1.0647 N   0  3  0  0  0  0  0  0  0  0  0  0
   -0.5895    0.9308   -0.2601 C   0  0  0  0  0  0  0  0  0  0  0  0
   -1.2780    1.8209   -4.0934 C   0  0  0  0  0  0  0  0  0  0  0  0
  1  8  1  0  0  0  0
  1  9  1  6  0  0  0
  1  2  1  0  0  0  0
  2  3  1  0  0  0  0
  3  5  1  0  0  0  0
  3  4  1  1  0  0  0
  5  7  1  0  0  0  0
  5  6  1  1  0  0  0
  7  8  1  0  0  0  0
  9 10  1  0  0  0  0
 11 12  1  0  0  0  0
 11 18  1  0  0  0  0
 11 19  1  1  0  0  0
 12 13  1  0  0  0  0
 13 15  1  0  0  0  0
 13 14  1  1  0  0  0
 15 16  1  0  0  0  0
 15 26  1  6  0  0  0
 16 18  1  0  0  0  0
 16 17  1  1  0  0  0
 18  4  1  6  0  0  0
 20 21  1  0  0  0  0
 20 27  1  0  0  0  0
 21 31  1  6  0  0  0
 21 23  1  0  0  0  0
 21 22  1  0  0  0  0
 23 24  1  0  0  0  0
 23 29  1  1  0  0  0
 24 25  1  0  0  0  0
 24 28  1  1  0  0  0
 25 27  1  0  0  0  0
 25 26  1  6  0  0  0
 29 30  1  0  0  0  0
M  CHG  5   6   1  10   1  14   1  19   1  29   1
M  END
>  <CHROM.1>
65.24387285,68.29228993,117.05050860,125.87354293,77.06159419,-62.71627217
-125.30343406,166.99953723,57.82263936,178.22371879,-103.16431767,-54.51820596
-80.49389567,4.26920830,4.15586794,-2.38016366,0.46113019,-0.03548202,-0.11942344

>  <Name>
1byj cryst

>  <RI>
0

>  <Rbt.Current_Directory>
/home/itssahil/PROJECTS/Mol_Feturizer/New_Systems/rnas/1byj

>  <Rbt.Executable>
rbdock ($Id: //depot/dev/client3/rdock/2013.1/src/exe/rbdock.cxx#4 $)

>  <Rbt.Library>
libRbt.so (2013.1, Build901 2013/11/27)

>  <Rbt.Parameter_File>
/export/apps/rDock/src/rDock_2013.1_src/data/scripts/dock_solv.prm

>  <Rbt.Receptor>
prm/pocket_docking_6.prm

>  <SCORE>
-40.896

>  <SCORE.INTER>
-42.8877

>  <SCORE.INTER.CONST>
1

>  <SCORE.INTER.POLAR>
-7.05307

>  <SCORE.INTER.ROT>
6

>  <SCORE.INTER.SOLV>
19.331

>  <SCORE.INTER.VDW>
-19.1252

>  <SCORE.INTER.norm>
-1.38347

>  <SCORE.INTRA>
1.99169

>  <SCORE.INTRA.DIHEDRAL>
3.01507

>  <SCORE.INTRA.DIHEDRAL.0>
18.4149

>  <SCORE.INTRA.POLAR>
-1.16231

>  <SCORE.INTRA.POLAR.0>
0

>  <SCORE.INTRA.REPUL>
-0.0900745

>  <SCORE.INTRA.REPUL.0>
0.092687

>  <SCORE.INTRA.SOLV>
0.47152

>  <SCORE.INTRA.SOLV.lig_0>
-120.37

>  <SCORE.INTRA.VDW>
4.65061

>  <SCORE.INTRA.VDW.0>
-1.75542

>  <SCORE.INTRA.norm>
0.0642481

>  <SCORE.RESTR>
0

>  <SCORE.RESTR.CAVITY>
0

>  <SCORE.RESTR.norm>
0

>  <SCORE.SYSTEM>
0

>  <SCORE.SYSTEM.CONST>
0

>  <SCORE.SYSTEM.DIHEDRAL>
0

>  <SCORE.SYSTEM.SOLV>
0

>  <SCORE.SYSTEM.norm>
0

>  <SCORE.heavy>
31

>  <SCORE.norm>
-1.31922

>  <RMSD>
5.582

$$$$
1byj cryst
 OpenBabel11021811383D
libRbt.so/2013.1/901 2013/11/27
 31 33  0  0  0  0  0  0  0  0999 V2000
    5.7081    1.6938    1.3415 C   0  0  1  0  0  0  0  0  0  0  0  0
    6.0356    2.7980    0.4384 O   0  0  0  0  0  0  0  0  0  0  0  0
    7.4013    2.9108   -0.0625 C   0  0  2  0  0  0  0  0  0  0  0  0
    7.7240    1.8173   -0.9773 O   0  0  0  0  0  0  0  0  0  0  0  0
    8.3907    2.9431    1.1418 C   0  0  2  0  0  0  0  0  0  0  0  0
    9.8041    3.0562    0.7314 N   0  3  0  0  0  0  0  0  0  0  0  0
    8.1854    1.6909    2.0328 C   0  0  0  0  0  0  0  0  0  0  0  0
    6.7285    1.5846    2.5079 C   0  0  0  0  0  0  0  0  0  0  0  0
    4.2979    1.9074    1.9193 C   0  0  0  0  0  0  0  0  0  0  0  0
    3.5652    0.6601    2.1735 N   0  3  0  0  0  0  0  0  0  0  0  0
    9.5541    2.5909   -2.4341 C   0  0  1  0  0  0  0  0  0  0  0  0
    9.9427    3.0475   -3.8614 C   0  0  0  0  0  0  0  0  0  0  0  0
    9.0516    4.2355   -4.3135 C   0  0  1  0  0  0  0  0  0  0  0  0
    9.4838    4.7104   -5.6419 N   0  3  0  0  0  0  0  0  0  0  0  0
    7.5525    3.8182   -4.3052 C   0  0  1  0  0  0  0  0  0  0  0  0
    7.1246    3.2523   -2.9280 C   0  0  1  0  0  0  0  0  0  0  0  0
    5.8054    2.7519   -3.0871 O   0  0  0  0  0  0  0  0  0  0  0  0
    8.0605    2.1323   -2.3648 C   0  0  2  0  0  0  0  0  0  0  0  0
   10.4714    1.5333   -1.9742 N   0  3  0  0  0  0  0  0  0  0  0  0
    7.9520    6.2096   -2.0907 C   0  0  0  0  0  0  0  0  0  0  0  0
    7.6257    7.7208   -2.1773 C   0  0  2  0  0  0  0  0  0  0  0  0
    6.8397    8.0438   -1.0311 O   0  0  0  0  0  0  0  0  0  0  0  0
    6.8288    8.0099   -3.5050 C   0  0  1  0  0  0  0  0  0  0  0  0
    5.6314    7.0239   -3.7240 C   0  0  2  0  0  0  0  0  0  0  0  0
    5.9939    5.5420   -3.4512 C   0  0  1  0  0  0  0  0  0  0  0  0
    6.6997    4.9658   -4.5815 O   0  0  0  0  0  0  0  0  0  0  0  0
    6.7474    5.4072   -2.2131 O   0  0  0  0  0  0  0  0  0  0  0  0
    5.1011    7.1326   -5.0424 O   0  0  0  0  0  0  0  0  0  0  0  0
    6.3525    9.4282   -3.5104 N   0  3  0  0  0  0  0  0  0  0  0  0
    6.8699   10.3053   -4.5804 C   0  0  0  0  0  0  0  0  0  0  0  0
    8.9479    8.5197   -2.0687 C   0  0  0  0  0  0  0  0  0  0  0  0
  1  8  1  0  0  0  0
  1  9  1  1  0  0  0
  1  2  1  0  0  0  0
  2  3  1  0  0  0  0
  3  5  1  0  0  0  0
  3  4  1  6  0  0  0
  5  7  1  0  0  0  0
  5  6  1  6  0  0  0
  7  8  1  0  0  0  0
  9 10  1  0  0  0  0
 11 12  1  0  0  0  0
 11 18  1  0  0  0  0
 11 19  1  6  0  0  0
 12 13  1  0  0  0  0
 13 15  1  0  0  0  0
 13 14  1  6  0  0  0
 15 16  1  0  0  0  0
 15 26  1  1  0  0  0
 16 18  1  0  0  0  0
 16 17  1  6  0  0  0
 18  4  1  1  0  0  0
 20 21  1  0  0  0  0
 20 27  1  0  0  0  0
 21 31  1  1  0  0  0
 21 23  1  0  0  0  0
 21 22  1  0  0  0  0
 23 24  1  0  0  0  0
 23 29  1  1  0  0  0
 24 25  1  0  0  0  0
 24 28  1  6  0  0  0
 25 27  1  0  0  0  0
 25 26  1  6  0  0  0
 29 30  1  0  0  0  0
M  CHG  5   6   1  10   1  14   1  19   1  29   1
M  END
>  <CHROM.1>
147.16343111,117.93929070,80.40690595,-80.21595850,176.33387284,-159.69334580
123.07264963,-104.39152415,-178.44276168,56.64665699,-121.30496913,51.50771586
156.21843029,7.29511372,4.43715712,-1.86505147,1.62697802,-0.73217113,2.49260117

>  <Name>
1byj cryst

>  <RI>
0

>  <Rbt.Current_Directory>
/home/itssahil/PROJECTS/Mol_Feturizer/New_Systems/rnas/1byj

>  <Rbt.Executable>
rbdock ($Id: //depot/dev/client3/rdock/2013.1/src/exe/rbdock.cxx#4 $)

>  <Rbt.Library>
libRbt.so (2013.1, Build901 2013/11/27)

>  <Rbt.Parameter_File>
/export/apps/rDock/src/rDock_2013.1_src/data/scripts/dock_solv.prm

>  <Rbt.Receptor>
prm/blind_docking_60.prm

>  <SCORE>
0.712887

>  <SCORE.INTER>
-19.4444

>  <SCORE.INTER.CONST>
1

>  <SCORE.INTER.POLAR>
-4.3614

>  <SCORE.INTER.ROT>
6

>  <SCORE.INTER.SOLV>
31.0177

>  <SCORE.INTER.VDW>
-16.3642

>  <SCORE.INTER.norm>
-0.62724

>  <SCORE.INTRA>
16.3409

>  <SCORE.INTRA.DIHEDRAL>
11.7865

>  <SCORE.INTRA.DIHEDRAL.0>
18.4149

>  <SCORE.INTRA.POLAR>
-0.039129

>  <SCORE.INTRA.POLAR.0>
0

>  <SCORE.INTRA.REPUL>
-0.0668634

>  <SCORE.INTRA.REPUL.0>
0.092687

>  <SCORE.INTRA.SOLV>
1.75869

>  <SCORE.INTRA.SOLV.lig_0>
-120.37

>  <SCORE.INTRA.VDW>
10.0356

>  <SCORE.INTRA.VDW.0>
-1.75542

>  <SCORE.INTRA.norm>
0.527124

>  <SCORE.RESTR>
3.81648

>  <SCORE.RESTR.CAVITY>
3.81648

>  <SCORE.RESTR.norm>
0.123112

>  <SCORE.SYSTEM>
0

>  <SCORE.SYSTEM.CONST>
0

>  <SCORE.SYSTEM.DIHEDRAL>
0

>  <SCORE.SYSTEM.SOLV>
0

>  <SCORE.SYSTEM.norm>
0

>  <SCORE.heavy>
31

>  <SCORE.norm>
0.0229964

>  <RMSD>
5.603

$$$$
1byj cryst
 OpenBabel11021811383D
libRbt.so/2013.1/901 2013/11/27
 31 33  0  0  0  0  0  0  0  0999 V2000
    6.1352    1.5977    0.9851 C   0  0  1  0  0  0  0  0  0  0  0  0
    6.6664    2.7863    0.3164 O   0  0  0  0  0  0  0  0  0  0  0  0
    8.1133    2.9557    0.2355 C   0  0  2  0  0  0  0  0  0  0  0  0
    8.7169    1.9581   -0.6460 O   0  0  0  0  0  0  0  0  0  0  0  0
    8.7221    2.8774    1.6686 C   0  0  2  0  0  0  0  0  0  0  0  0
   10.1893    3.0388    1.6876 N   0  3  0  0  0  0  0  0  0  0  0  0
    8.3164    1.5435    2.3469 C   0  0  0  0  0  0  0  0  0  0  0  0
    6.7891    1.3824    2.3779 C   0  0  0  0  0  0  0  0  0  0  0  0
    4.6130    1.7454    1.1565 C   0  0  0  0  0  0  0  0  0  0  0  0
    4.1996    3.0488    1.6926 N   0  3  0  0  0  0  0  0  0  0  0  0
   10.1694    2.6853   -2.4986 C   0  0  1  0  0  0  0  0  0  0  0  0
   10.2293    3.0753   -3.9955 C   0  0  0  0  0  0  0  0  0  0  0  0
    9.2314    4.2252   -4.2980 C   0  0  1  0  0  0  0  0  0  0  0  0
    9.3546    4.6392   -5.7088 N   0  3  0  0  0  0  0  0  0  0  0  0
    7.7805    3.7860   -3.9461 C   0  0  1  0  0  0  0  0  0  0  0  0
    7.6744    3.2837   -2.4844 C   0  0  1  0  0  0  0  0  0  0  0  0
    6.3652    2.7558   -2.3309 O   0  0  0  0  0  0  0  0  0  0  0  0
    8.7382    2.2080   -2.0865 C   0  0  2  0  0  0  0  0  0  0  0  0
   11.1912    1.6663   -2.2002 N   0  3  0  0  0  0  0  0  0  0  0  0
    8.4271    7.5120   -4.3367 C   0  0  0  0  0  0  0  0  0  0  0  0
    7.3580    8.6299   -4.4058 C   0  0  2  0  0  0  0  0  0  0  0  0
    7.5724    9.4818   -3.2813 O   0  0  0  0  0  0  0  0  0  0  0  0
    5.9214    7.9854   -4.3567 C   0  0  1  0  0  0  0  0  0  0  0  0
    5.7624    6.9383   -3.2025 C   0  0  2  0  0  0  0  0  0  0  0  0
    6.9575    5.9581   -3.0890 C   0  0  1  0  0  0  0  0  0  0  0  0
    6.8588    4.9050   -4.0835 O   0  0  0  0  0  0  0  0  0  0  0  0
    8.2257    6.6678   -3.1720 O   0  0  0  0  0  0  0  0  0  0  0  0
    4.5612    6.1845   -3.3444 O   0  0  0  0  0  0  0  0  0  0  0  0
    4.8881    9.0611   -4.2397 N   0  3  0  0  0  0  0  0  0  0  0  0
    3.8098    8.8507   -3.2523 C   0  0  0  0  0  0  0  0  0  0  0  0
    7.6080    9.4760   -5.6785 C   0  0  0  0  0  0  0  0  0  0  0  0
  1  8  1  0  0  0  0
  1  9  1  1  0  0  0
  1  2  1  0  0  0  0
  2  3  1  0  0  0  0
  3  5  1  0  0  0  0
  3  4  1  6  0  0  0
  5  7  1  0  0  0  0
  5  6  1  6  0  0  0
  7  8  1  0  0  0  0
  9 10  1  0  0  0  0
 11 12  1  0  0  0  0
 11 18  1  0  0  0  0
 11 19  1  6  0  0  0
 12 13  1  0  0  0  0
 13 15  1  0  0  0  0
 13 14  1  6  0  0  0
 15 16  1  0  0  0  0
 15 26  1  1  0  0  0
 16 18  1  0  0  0  0
 16 17  1  6  0  0  0
 18  4  1  1  0  0  0
 20 21  1  0  0  0  0
 20 27  1  0  0  0  0
 21 31  1  6  0  0  0
 21 23  1  0  0  0  0
 21 22  1  0  0  0  0
 23 24  1  0  0  0  0
 23 29  1  1  0  0  0
 24 25  1  0  0  0  0
 24 28  1  6  0  0  0
 25 27  1  0  0  0  0
 25 26  1  6  0  0  0
 29 30  1  0  0  0  0
M  CHG  5   6   1  10   1  14   1  19   1  29   1
M  END
>  <CHROM.1>
-47.22041933,83.87848703,101.94495522,-173.91107814,169.58953766,-178.66564983
-126.44281390,-71.05468211,-61.08358811,55.70425867,-13.77221333,72.42285262
-169.56949496,7.44605244,4.63091726,-2.07363518,1.39945681,-0.53589014,2.35146153

>  <Name>
1byj cryst

>  <RI>
0

>  <Rbt.Current_Directory>
/home/itssahil/PROJECTS/Mol_Feturizer/New_Systems/rnas/1byj

>  <Rbt.Executable>
rbdock ($Id: //depot/dev/client3/rdock/2013.1/src/exe/rbdock.cxx#4 $)

>  <Rbt.Library>
libRbt.so (2013.1, Build901 2013/11/27)

>  <Rbt.Parameter_File>
/export/apps/rDock/src/rDock_2013.1_src/data/scripts/dock_solv.prm

>  <Rbt.Receptor>
prm/blind_docking_60.prm

>  <SCORE>
-15.4609

>  <SCORE.INTER>
-27.0157

>  <SCORE.INTER.CONST>
1

>  <SCORE.INTER.POLAR>
-4.87293

>  <SCORE.INTER.ROT>
6

>  <SCORE.INTER.SOLV>
36.0458

>  <SCORE.INTER.VDW>
-21.3827

>  <SCORE.INTER.norm>
-0.871475

>  <SCORE.INTRA>
5.02671

>  <SCORE.INTRA.DIHEDRAL>
-0.56041

>  <SCORE.INTRA.DIHEDRAL.0>
18.4149

>  <SCORE.INTRA.POLAR>
-0.170112

>  <SCORE.INTRA.POLAR.0>
0

>  <SCORE.INTRA.REPUL>
0.0948101

>  <SCORE.INTRA.REPUL.0>
0.092687

>  <SCORE.INTRA.SOLV>
-0.873591

>  <SCORE.INTRA.SOLV.lig_0>
-120.37

>  <SCORE.INTRA.VDW>
5.84804

>  <SCORE.INTRA.VDW.0>
-1.75542

>  <SCORE.INTRA.norm>
0.162152

>  <SCORE.RESTR>
6.52816

>  <SCORE.RESTR.CAVITY>
6.52816

>  <SCORE.RESTR.norm>
0.210586

>  <SCORE.SYSTEM>
0

>  <SCORE.SYSTEM.CONST>
0

>  <SCORE.SYSTEM.DIHEDRAL>
0

>  <SCORE.SYSTEM.SOLV>
0

>  <SCORE.SYSTEM.norm>
0

>  <SCORE.heavy>
31

>  <SCORE.norm>
-0.498737

>  <RMSD>
5.614

$$$$
1byj cryst
 OpenBabel11021811383D
libRbt.so/2013.1/901 2013/11/27
 31 33  0  0  0  0  0  0  0  0999 V2000
    5.6907    1.1326   -0.4689 C   0  0  1  0  0  0  0  0  0  0  0  0
    5.9188    2.5732   -0.3475 O   0  0  0  0  0  0  0  0  0  0  0  0
    7.1612    3.0361    0.2614 C   0  0  2  0  0  0  0  0  0  0  0  0
    8.3134    2.7338   -0.5859 O   0  0  0  0  0  0  0  0  0  0  0  0
    7.3174    2.3874    1.6704 C   0  0  2  0  0  0  0  0  0  0  0  0
    8.5521    2.7986    2.3671 N   0  3  0  0  0  0  0  0  0  0  0  0
    7.2509    0.8426    1.5552 C   0  0  0  0  0  0  0  0  0  0  0  0
    5.9485    0.3957    0.8744 C   0  0  0  0  0  0  0  0  0  0  0  0
    4.2398    0.8808   -0.9154 C   0  0  0  0  0  0  0  0  0  0  0  0
    4.0742   -0.3180   -1.7477 N   0  3  0  0  0  0  0  0  0  0  0  0
    9.5408    2.5077   -2.7102 C   0  0  1  0  0  0  0  0  0  0  0  0
    9.5502    2.8463   -4.2208 C   0  0  0  0  0  0  0  0  0  0  0  0
    9.4179    4.3781   -4.4353 C   0  0  1  0  0  0  0  0  0  0  0  0
    9.5065    4.6933   -5.8739 N   0  3  0  0  0  0  0  0  0  0  0  0
    8.0922    4.8976   -3.8073 C   0  0  1  0  0  0  0  0  0  0  0  0
    7.9726    4.4997   -2.3148 C   0  0  1  0  0  0  0  0  0  0  0  0
    6.6668    4.8714   -1.8993 O   0  0  0  0  0  0  0  0  0  0  0  0
    8.2183    2.9824   -2.0236 C   0  0  2  0  0  0  0  0  0  0  0  0
    9.7701    1.0654   -2.5139 N   0  3  0  0  0  0  0  0  0  0  0  0
    7.2893    8.4402   -1.7713 C   0  0  0  0  0  0  0  0  0  0  0  0
    7.0047    9.7384   -2.5657 C   0  0  2  0  0  0  0  0  0  0  0  0
    5.6451   10.0913   -2.3144 O   0  0  0  0  0  0  0  0  0  0  0  0
    7.2428    9.4767   -4.1007 C   0  0  1  0  0  0  0  0  0  0  0  0
    6.5369    8.1757   -4.6138 C   0  0  2  0  0  0  0  0  0  0  0  0
    6.7265    6.9584   -3.6736 C   0  0  1  0  0  0  0  0  0  0  0  0
    8.0304    6.3511   -3.8704 O   0  0  0  0  0  0  0  0  0  0  0  0
    6.5040    7.3311   -2.2841 O   0  0  0  0  0  0  0  0  0  0  0  0
    6.9825    7.8215   -5.9204 O   0  0  0  0  0  0  0  0  0  0  0  0
    6.7974   10.6659   -4.8917 N   0  3  0  0  0  0  0  0  0  0  0  0
    5.3446   10.9261   -4.9511 C   0  0  0  0  0  0  0  0  0  0  0  0
    7.8883   10.8735   -1.9923 C   0  0  0  0  0  0  0  0  0  0  0  0
  1  8  1  0  0  0  0
  1  9  1  1  0  0  0
  1  2  1  0  0  0  0
  2  3  1  0  0  0  0
  3  5  1  0  0  0  0
  3  4  1  6  0  0  0
  5  7  1  0  0  0  0
  5  6  1  6  0  0  0
  7  8  1  0  0  0  0
  9 10  1  0  0  0  0
 11 12  1  0  0  0  0
 11 18  1  0  0  0  0
 11 19  1  6  0  0  0
 12 13  1  0  0  0  0
 13 15  1  0  0  0  0
 13 14  1  6  0  0  0
 15 16  1  0  0  0  0
 15 26  1  1  0  0  0
 16 18  1  0  0  0  0
 16 17  1  6  0  0  0
 18  4  1  1  0  0  0
 20 21  1  0  0  0  0
 20 27  1  0  0  0  0
 21 31  1  1  0  0  0
 21 23  1  0  0  0  0
 21 22  1  0  0  0  0
 23 24  1  0  0  0  0
 23 29  1  6  0  0  0
 24 25  1  0  0  0  0
 24 28  1  6  0  0  0
 25 27  1  0  0  0  0
 25 26  1  1  0  0  0
 29 30  1  0  0  0  0
M  CHG  5   6   1  10   1  14   1  19   1  29   1
M  END
>  <CHROM.1>
148.26193992,43.88961527,-176.93293321,-102.63564973,-83.44161722,-55.42608320
-161.41124256,163.40779487,68.43371373,-57.72904750,51.47270895,-50.19524829
-141.73610701,7.25378486,5.03909422,-2.28460700,1.56009056,-1.01085079,2.69878458

>  <Name>
1byj cryst

>  <RI>
0

>  <Rbt.Current_Directory>
/home/itssahil/PROJECTS/Mol_Feturizer/New_Systems/rnas/1byj

>  <Rbt.Executable>
rbdock ($Id: //depot/dev/client3/rdock/2013.1/src/exe/rbdock.cxx#4 $)

>  <Rbt.Library>
libRbt.so (2013.1, Build901 2013/11/27)

>  <Rbt.Parameter_File>
/export/apps/rDock/src/rDock_2013.1_src/data/scripts/dock_solv.prm

>  <Rbt.Receptor>
prm/blind_docking_60.prm

>  <SCORE>
-15.0694

>  <SCORE.INTER>
-21.0785

>  <SCORE.INTER.CONST>
1

>  <SCORE.INTER.POLAR>
-4.51457

>  <SCORE.INTER.ROT>
6

>  <SCORE.INTER.SOLV>
30.4125

>  <SCORE.INTER.VDW>
-16.7413

>  <SCORE.INTER.norm>
-0.679953

>  <SCORE.INTRA>
-2.0666

>  <SCORE.INTRA.DIHEDRAL>
-1.61212

>  <SCORE.INTRA.DIHEDRAL.0>
18.4149

>  <SCORE.INTRA.POLAR>
0

>  <SCORE.INTRA.POLAR.0>
0

>  <SCORE.INTRA.REPUL>
-0.0835815

>  <SCORE.INTRA.REPUL.0>
0.092687

>  <SCORE.INTRA.SOLV>
-5.57373

>  <SCORE.INTRA.SOLV.lig_0>
-120.37

>  <SCORE.INTRA.VDW>
1.94424

>  <SCORE.INTRA.VDW.0>
-1.75542

>  <SCORE.INTRA.norm>
-0.0666645

>  <SCORE.RESTR>
8.07572

>  <SCORE.RESTR.CAVITY>
8.07572

>  <SCORE.RESTR.norm>
0.260507

>  <SCORE.SYSTEM>
0

>  <SCORE.SYSTEM.CONST>
0

>  <SCORE.SYSTEM.DIHEDRAL>
0

>  <SCORE.SYSTEM.SOLV>
0

>  <SCORE.SYSTEM.norm>
0

>  <SCORE.heavy>
31

>  <SCORE.norm>
-0.48611

>  <RMSD>
5.623

$$$$
1byj cryst
 OpenBabel11021811383D
libRbt.so/2013.1/901 2013/11/27
 31 33  0  0  0  0  0  0  0  0999 V2000
    6.1034    1.6957    1.1041 C   0  0  1  0  0  0  0  0  0  0  0  0
    6.6506    2.8638    0.4126 O   0  0  0  0  0  0  0  0  0  0  0  0
    8.0994    3.0234    0.3477 C   0  0  2  0  0  0  0  0  0  0  0  0
    8.7094    2.0002   -0.4995 O   0  0  0  0  0  0  0  0  0  0  0  0
    8.6878    2.9787    1.7907 C   0  0  2  0  0  0  0  0  0  0  0  0
   10.1555    3.1327    1.8260 N   0  3  0  0  0  0  0  0  0  0  0  0
    8.2652    1.6649    2.4972 C   0  0  0  0  0  0  0  0  0  0  0  0
    6.7367    1.5128    2.5110 C   0  0  0  0  0  0  0  0  0  0  0  0
    4.5799    1.8559    1.2504 C   0  0  0  0  0  0  0  0  0  0  0  0
    3.8392    0.5902    1.1682 N   0  3  0  0  0  0  0  0  0  0  0  0
   10.1726    2.6553   -2.3703 C   0  0  1  0  0  0  0  0  0  0  0  0
   10.2394    2.9977   -3.8786 C   0  0  0  0  0  0  0  0  0  0  0  0
    9.2529    4.1468   -4.2194 C   0  0  1  0  0  0  0  0  0  0  0  0
    9.3830    4.5152   -5.6421 N   0  3  0  0  0  0  0  0  0  0  0  0
    7.7973    3.7324   -3.8574 C   0  0  1  0  0  0  0  0  0  0  0  0
    7.6833    3.2772   -2.3809 C   0  0  1  0  0  0  0  0  0  0  0  0
    6.3689    2.7666   -2.2142 O   0  0  0  0  0  0  0  0  0  0  0  0
    8.7361    2.2046   -1.9470 C   0  0  2  0  0  0  0  0  0  0  0  0
   11.1842    1.6367   -2.0377 N   0  3  0  0  0  0  0  0  0  0  0  0
    8.4544    7.4589   -4.3180 C   0  0  0  0  0  0  0  0  0  0  0  0
    7.3849    8.5742   -4.4166 C   0  0  2  0  0  0  0  0  0  0  0  0
    7.5886    9.4463   -3.3057 O   0  0  0  0  0  0  0  0  0  0  0  0
    5.9486    7.9291   -4.3686 C   0  0  1  0  0  0  0  0  0  0  0  0
    5.7803    6.9026   -3.1973 C   0  0  2  0  0  0  0  0  0  0  0  0
    6.9753    5.9260   -3.0557 C   0  0  1  0  0  0  0  0  0  0  0  0
    6.8865    4.8551   -4.0320 O   0  0  0  0  0  0  0  0  0  0  0  0
    8.2435    6.6355   -3.1401 O   0  0  0  0  0  0  0  0  0  0  0  0
    4.5811    6.1451   -3.3363 O   0  0  0  0  0  0  0  0  0  0  0  0
    4.9133    9.0056   -4.2800 N   0  3  0  0  0  0  0  0  0  0  0  0
    3.8352    8.8191   -3.2877 C   0  0  0  0  0  0  0  0  0  0  0  0
    7.6454    9.3977   -5.7019 C   0  0  0  0  0  0  0  0  0  0  0  0
  1  8  1  0  0  0  0
  1  9  1  1  0  0  0
  1  2  1  0  0  0  0
  2  3  1  0  0  0  0
  3  5  1  0  0  0  0
  3  4  1  6  0  0  0
  5  7  1  0  0  0  0
  5  6  1  6  0  0  0
  7  8  1  0  0  0  0
  9 10  1  0  0  0  0
 11 12  1  0  0  0  0
 11 18  1  0  0  0  0
 11 19  1  6  0  0  0
 12 13  1  0  0  0  0
 13 15  1  0  0  0  0
 13 14  1  6  0  0  0
 15 16  1  0  0  0  0
 15 26  1  1  0  0  0
 16 18  1  0  0  0  0
 16 17  1  6  0  0  0
 18  4  1  1  0  0  0
 20 21  1  0  0  0  0
 20 27  1  0  0  0  0
 21 31  1  6  0  0  0
 21 23  1  0  0  0  0
 21 22  1  0  0  0  0
 23 24  1  0  0  0  0
 23 29  1  1  0  0  0
 24 25  1  0  0  0  0
 24 28  1  6  0  0  0
 25 27  1  0  0  0  0
 25 26  1  6  0  0  0
 29 30  1  0  0  0  0
M  CHG  5   6   1  10   1  14   1  19   1  29   1
M  END
>  <CHROM.1>
146.04616332,83.07250241,102.65106875,-166.64226230,177.35908140,-65.73366967
-125.94625531,-72.20589668,-166.08502115,57.88766564,-13.08210436,76.40130960
-168.87338095,7.43640932,4.52889612,-2.02420744,1.45400039,-0.44146645,2.39009963

>  <Name>
1byj cryst

>  <RI>
0

>  <Rbt.Current_Directory>
/home/itssahil/PROJECTS/Mol_Feturizer/New_Systems/rnas/1byj

>  <Rbt.Executable>
rbdock ($Id: //depot/dev/client3/rdock/2013.1/src/exe/rbdock.cxx#4 $)

>  <Rbt.Library>
libRbt.so (2013.1, Build901 2013/11/27)

>  <Rbt.Parameter_File>
/export/apps/rDock/src/rDock_2013.1_src/data/scripts/dock_solv.prm

>  <Rbt.Receptor>
prm/blind_docking_60.prm

>  <SCORE>
-23.6256

>  <SCORE.INTER>
-32.9482

>  <SCORE.INTER.CONST>
1

>  <SCORE.INTER.POLAR>
-5.87175

>  <SCORE.INTER.ROT>
6

>  <SCORE.INTER.SOLV>
37.2976

>  <SCORE.INTER.VDW>
-22.4255

>  <SCORE.INTER.norm>
-1.06284

>  <SCORE.INTRA>
3.70772

>  <SCORE.INTRA.DIHEDRAL>
3.77197

>  <SCORE.INTRA.DIHEDRAL.0>
18.4149

>  <SCORE.INTRA.POLAR>
-1.16586

>  <SCORE.INTRA.POLAR.0>
0

>  <SCORE.INTRA.REPUL>
0.168745

>  <SCORE.INTRA.REPUL.0>
0.092687

>  <SCORE.INTRA.SOLV>
-2.62958

>  <SCORE.INTRA.SOLV.lig_0>
-120.37

>  <SCORE.INTRA.VDW>
6.25673

>  <SCORE.INTRA.VDW.0>
-1.75542

>  <SCORE.INTRA.norm>
0.119604

>  <SCORE.RESTR>
5.61485

>  <SCORE.RESTR.CAVITY>
5.61485

>  <SCORE.RESTR.norm>
0.181124

>  <SCORE.SYSTEM>
0

>  <SCORE.SYSTEM.CONST>
0

>  <SCORE.SYSTEM.DIHEDRAL>
0

>  <SCORE.SYSTEM.SOLV>
0

>  <SCORE.SYSTEM.norm>
0

>  <SCORE.heavy>
31

>  <SCORE.norm>
-0.762116

>  <RMSD>
5.627

$$$$
1byj cryst
 OpenBabel11021811383D
libRbt.so/2013.1/901 2013/11/27
 31 33  0  0  0  0  0  0  0  0999 V2000
    5.8736    0.9565   -0.2773 C   0  0  1  0  0  0  0  0  0  0  0  0
    6.0418    2.4102   -0.2996 O   0  0  0  0  0  0  0  0  0  0  0  0
    7.3034    2.9759    0.1663 C   0  0  2  0  0  0  0  0  0  0  0  0
    8.4011    2.6455   -0.7407 O   0  0  0  0  0  0  0  0  0  0  0  0
    7.5963    2.4633    1.6091 C   0  0  2  0  0  0  0  0  0  0  0  0
    8.8593    2.9851    2.1673 N   0  3  0  0  0  0  0  0  0  0  0  0
    7.5944    0.9130    1.6337 C   0  0  0  0  0  0  0  0  0  0  0  0
    6.2668    0.3544    1.0999 C   0  0  0  0  0  0  0  0  0  0  0  0
    4.4065    0.6072   -0.5836 C   0  0  0  0  0  0  0  0  0  0  0  0
    3.4657    1.0244    0.4642 N   0  3  0  0  0  0  0  0  0  0  0  0
    9.5562    2.5008   -2.9121 C   0  0  1  0  0  0  0  0  0  0  0  0
    9.5174    2.9005   -4.4072 C   0  0  0  0  0  0  0  0  0  0  0  0
    9.3867    4.4403   -4.5549 C   0  0  1  0  0  0  0  0  0  0  0  0
    9.4293    4.8134   -5.9817 N   0  3  0  0  0  0  0  0  0  0  0  0
    8.0854    4.9394   -3.8626 C   0  0  1  0  0  0  0  0  0  0  0  0
    8.0132    4.4817   -2.3843 C   0  0  1  0  0  0  0  0  0  0  0  0
    6.7239    4.8417   -1.9107 O   0  0  0  0  0  0  0  0  0  0  0  0
    8.2598    2.9528   -2.1631 C   0  0  2  0  0  0  0  0  0  0  0  0
    9.7838    1.0507   -2.7822 N   0  3  0  0  0  0  0  0  0  0  0  0
    7.4303    8.4473   -1.6859 C   0  0  0  0  0  0  0  0  0  0  0  0
    7.0969    9.7593   -2.4376 C   0  0  2  0  0  0  0  0  0  0  0  0
    5.7572   10.1086   -2.0923 O   0  0  0  0  0  0  0  0  0  0  0  0
    7.2343    9.5241   -3.9891 C   0  0  1  0  0  0  0  0  0  0  0  0
    6.4942    8.2328   -4.4777 C   0  0  2  0  0  0  0  0  0  0  0  0
    6.7424    6.9992   -3.5729 C   0  0  1  0  0  0  0  0  0  0  0  0
    8.0297    6.3946   -3.8647 O   0  0  0  0  0  0  0  0  0  0  0  0
    6.6113    7.3478   -2.1658 O   0  0  0  0  0  0  0  0  0  0  0  0
    6.8533    7.9011   -5.8164 O   0  0  0  0  0  0  0  0  0  0  0  0
    6.7405   10.7273   -4.7288 N   0  3  0  0  0  0  0  0  0  0  0  0
    5.2782   10.8644   -4.8863 C   0  0  0  0  0  0  0  0  0  0  0  0
    8.0179   10.8837   -1.9032 C   0  0  0  0  0  0  0  0  0  0  0  0
  1  8  1  0  0  0  0
  1  9  1  1  0  0  0
  1  2  1  0  0  0  0
  2  3  1  0  0  0  0
  3  5  1  0  0  0  0
  3  4  1  6  0  0  0
  5  7  1  0  0  0  0
  5  6  1  6  0  0  0
  7  8  1  0  0  0  0
  9 10  1  0  0  0  0
 11 12  1  0  0  0  0
 11 18  1  0  0  0  0
 11 19  1  6  0  0  0
 12 13  1  0  0  0  0
 13 15  1  0  0  0  0
 13 14  1  6  0  0  0
 15 16  1  0  0  0  0
 15 26  1  1  0  0  0
 16 18  1  0  0  0  0
 16 17  1  6  0  0  0
 18  4  1  1  0  0  0
 20 21  1  0  0  0  0
 20 27  1  0  0  0  0
 21 31  1  1  0  0  0
 21 23  1  0  0  0  0
 21 22  1  0  0  0  0
 23 24  1  0  0  0  0
 23 29  1  6  0  0  0
 24 25  1  0  0  0  0
 24 28  1  6  0  0  0
 25 27  1  0  0  0  0
 25 26  1  1  0  0  0
 29 30  1  0  0  0  0
M  CHG  5   6   1  10   1  14   1  19   1  29   1
M  END
>  <CHROM.1>
-67.37579847,53.19246571,-179.77755735,91.01486275,-67.35183460,-178.69213100
75.03144719,164.63112638,-81.07356330,169.69453060,41.28633960,-177.08588813
-140.29971358,7.30221676,5.09887277,-2.18115405,1.55671413,-0.92333457,2.66855033

>  <Name>
1byj cryst

>  <RI>
0

>  <Rbt.Current_Directory>
/home/itssahil/PROJECTS/Mol_Feturizer/New_Systems/rnas/1byj

>  <Rbt.Executable>
rbdock ($Id: //depot/dev/client3/rdock/2013.1/src/exe/rbdock.cxx#4 $)

>  <Rbt.Library>
libRbt.so (2013.1, Build901 2013/11/27)

>  <Rbt.Parameter_File>
/export/apps/rDock/src/rDock_2013.1_src/data/scripts/dock_solv.prm

>  <Rbt.Receptor>
prm/blind_docking_60.prm

>  <SCORE>
-8.84503

>  <SCORE.INTER>
-12.3136

>  <SCORE.INTER.CONST>
1

>  <SCORE.INTER.POLAR>
-2.99018

>  <SCORE.INTER.ROT>
6

>  <SCORE.INTER.SOLV>
25.2799

>  <SCORE.INTER.VDW>
-14.2684

>  <SCORE.INTER.norm>
-0.397212

>  <SCORE.INTRA>
-4.3893

>  <SCORE.INTRA.DIHEDRAL>
-5.40902

>  <SCORE.INTRA.DIHEDRAL.0>
18.4149

>  <SCORE.INTRA.POLAR>
-0.962775

>  <SCORE.INTRA.POLAR.0>
0

>  <SCORE.INTRA.REPUL>
-0.092687

>  <SCORE.INTRA.REPUL.0>
0.092687

>  <SCORE.INTRA.SOLV>
-4.04517

>  <SCORE.INTRA.SOLV.lig_0>
-120.37

>  <SCORE.INTRA.VDW>
4.07466

>  <SCORE.INTRA.VDW.0>
-1.75542

>  <SCORE.INTRA.norm>
-0.14159

>  <SCORE.RESTR>
7.85785

>  <SCORE.RESTR.CAVITY>
7.85785

>  <SCORE.RESTR.norm>
0.253479

>  <SCORE.SYSTEM>
0

>  <SCORE.SYSTEM.CONST>
0

>  <SCORE.SYSTEM.DIHEDRAL>
0

>  <SCORE.SYSTEM.SOLV>
0

>  <SCORE.SYSTEM.norm>
0

>  <SCORE.heavy>
31

>  <SCORE.norm>
-0.285324

>  <RMSD>
5.656

$$$$
1byj cryst
 OpenBabel11021811383D
libRbt.so/2013.1/901 2013/11/27
 31 33  0  0  0  0  0  0  0  0999 V2000
    7.0592    4.3118   -0.1901 C   0  0  1  0  0  0  0  0  0  0  0  0
    8.4388    3.8241   -0.1571 O   0  0  0  0  0  0  0  0  0  0  0  0
    8.6748    2.4100    0.1137 C   0  0  2  0  0  0  0  0  0  0  0  0
    8.2052    1.5721   -0.9882 O   0  0  0  0  0  0  0  0  0  0  0  0
    7.9766    2.0181    1.4514 C   0  0  2  0  0  0  0  0  0  0  0  0
    8.1608    0.5981    1.8101 N   0  3  0  0  0  0  0  0  0  0  0  0
    6.4674    2.3674    1.3860 C   0  0  0  0  0  0  0  0  0  0  0  0
    6.2587    3.8540    1.0602 C   0  0  0  0  0  0  0  0  0  0  0  0
    7.0623    5.8492   -0.2558 C   0  0  0  0  0  0  0  0  0  0  0  0
    5.7217    6.4421   -0.3488 N   0  3  0  0  0  0  0  0  0  0  0  0
    9.9198    2.5428   -2.4675 C   0  0  1  0  0  0  0  0  0  0  0  0
   10.2126    3.1230   -3.8726 C   0  0  0  0  0  0  0  0  0  0  0  0
    9.2451    4.2950   -4.1892 C   0  0  1  0  0  0  0  0  0  0  0  0
    9.5855    4.8882   -5.4965 N   0  3  0  0  0  0  0  0  0  0  0  0
    7.7694    3.8033   -4.1411 C   0  0  1  0  0  0  0  0  0  0  0  0
    7.4399    3.1160   -2.7923 C   0  0  1  0  0  0  0  0  0  0  0  0
    6.1390    2.5630   -2.9258 O   0  0  0  0  0  0  0  0  0  0  0  0
    8.4547    2.0058   -2.3621 C   0  0  2  0  0  0  0  0  0  0  0  0
   10.9078    1.5015   -2.1345 N   0  3  0  0  0  0  0  0  0  0  0  0
    8.5016    7.4891   -4.4090 C   0  0  0  0  0  0  0  0  0  0  0  0
    7.4691    8.6373   -4.5245 C   0  0  2  0  0  0  0  0  0  0  0  0
    7.6394    9.4679   -3.3768 O   0  0  0  0  0  0  0  0  0  0  0  0
    6.0153    8.0326   -4.5698 C   0  0  1  0  0  0  0  0  0  0  0  0
    5.7596    6.9751   -3.4427 C   0  0  2  0  0  0  0  0  0  0  0  0
    6.9188    5.9605   -3.2734 C   0  0  1  0  0  0  0  0  0  0  0  0
    6.8509    4.9239   -4.2875 O   0  0  0  0  0  0  0  0  0  0  0  0
    8.2085    6.6356   -3.2708 O   0  0  0  0  0  0  0  0  0  0  0  0
    4.5489    6.2572   -3.6664 O   0  0  0  0  0  0  0  0  0  0  0  0
    5.0064    9.1351   -4.4980 N   0  3  0  0  0  0  0  0  0  0  0  0
    4.5638    9.5525   -3.1521 C   0  0  0  0  0  0  0  0  0  0  0  0
    7.8172    9.4928   -5.7675 C   0  0  0  0  0  0  0  0  0  0  0  0
  1  8  1  0  0  0  0
  1  9  1  1  0  0  0
  1  2  1  0  0  0  0
  2  3  1  0  0  0  0
  3  5  1  0  0  0  0
  3  4  1  6  0  0  0
  5  7  1  0  0  0  0
  5  6  1  6  0  0  0
  7  8  1  0  0  0  0
  9 10  1  0  0  0  0
 11 12  1  0  0  0  0
 11 18  1  0  0  0  0
 11 19  1  6  0  0  0
 12 13  1  0  0  0  0
 13 15  1  0  0  0  0
 13 14  1  6  0  0  0
 15 16  1  0  0  0  0
 15 26  1  1  0  0  0
 16 18  1  0  0  0  0
 16 17  1  6  0  0  0
 18  4  1  1  0  0  0
 20 21  1  0  0  0  0
 20 27  1  0  0  0  0
 21 31  1  6  0  0  0
 21 23  1  0  0  0  0
 21 22  1  0  0  0  0
 23 24  1  0  0  0  0
 23 29  1  1  0  0  0
 24 25  1  0  0  0  0
 24 28  1  6  0  0  0
 25 27  1  0  0  0  0
 25 26  1  6  0  0  0
 29 30  1  0  0  0  0
M  CHG  5   6   1  10   1  14   1  19   1  29   1
M  END
>  <CHROM.1>
177.62166393,41.56199853,43.13739203,92.54667595,-43.93688748,53.28157970
22.90751909,-60.89972597,-71.33990955,-58.36237693,31.87091046,92.50920761
-171.92325246,7.49968795,4.96414626,-2.41469713,1.23002987,-0.79041098,2.32867420

>  <Name>
1byj cryst

>  <RI>
0

>  <Rbt.Current_Directory>
/home/itssahil/PROJECTS/Mol_Feturizer/New_Systems/rnas/1byj

>  <Rbt.Executable>
rbdock ($Id: //depot/dev/client3/rdock/2013.1/src/exe/rbdock.cxx#4 $)

>  <Rbt.Library>
libRbt.so (2013.1, Build901 2013/11/27)

>  <Rbt.Parameter_File>
/export/apps/rDock/src/rDock_2013.1_src/data/scripts/dock_solv.prm

>  <Rbt.Receptor>
prm/blind_docking_80.prm

>  <SCORE>
-16.2398

>  <SCORE.INTER>
-22.5439

>  <SCORE.INTER.CONST>
1

>  <SCORE.INTER.POLAR>
-3.23462

>  <SCORE.INTER.ROT>
6

>  <SCORE.INTER.SOLV>
36.2209

>  <SCORE.INTER.VDW>
-23.9208

>  <SCORE.INTER.norm>
-0.727221

>  <SCORE.INTRA>
-0.064995

>  <SCORE.INTRA.DIHEDRAL>
-3.36482

>  <SCORE.INTRA.DIHEDRAL.0>
18.4149

>  <SCORE.INTRA.POLAR>
-0.285893

>  <SCORE.INTRA.POLAR.0>
0

>  <SCORE.INTRA.REPUL>
-0.0906341

>  <SCORE.INTRA.REPUL.0>
0.092687

>  <SCORE.INTRA.SOLV>
2.26058

>  <SCORE.INTRA.SOLV.lig_0>
-120.37

>  <SCORE.INTRA.VDW>
1.91233

>  <SCORE.INTRA.VDW.0>
-1.75542

>  <SCORE.INTRA.norm>
-0.00209661

>  <SCORE.RESTR>
6.36905

>  <SCORE.RESTR.CAVITY>
6.36905

>  <SCORE.RESTR.norm>
0.205453

>  <SCORE.SYSTEM>
0

>  <SCORE.SYSTEM.CONST>
0

>  <SCORE.SYSTEM.DIHEDRAL>
0

>  <SCORE.SYSTEM.SOLV>
0

>  <SCORE.SYSTEM.norm>
0

>  <SCORE.heavy>
31

>  <SCORE.norm>
-0.523865

>  <RMSD>
5.660

$$$$
1byj cryst
 OpenBabel11021811383D
libRbt.so/2013.1/901 2013/11/27
 31 33  0  0  0  0  0  0  0  0999 V2000
    9.5524    4.0684   -3.4940 C   0  0  1  0  0  0  0  0  0  0  0  0
    8.6019    3.0167   -3.8583 O   0  0  0  0  0  0  0  0  0  0  0  0
    8.5714    1.7947   -3.0619 C   0  0  2  0  0  0  0  0  0  0  0  0
    8.0625    2.0501   -1.7156 O   0  0  0  0  0  0  0  0  0  0  0  0
   10.0017    1.1767   -3.0114 C   0  0  2  0  0  0  0  0  0  0  0  0
   10.0701   -0.0696   -2.2233 N   0  3  0  0  0  0  0  0  0  0  0  0
   11.0122    2.2179   -2.4647 C   0  0  0  0  0  0  0  0  0  0  0  0
   10.9874    3.5042   -3.3039 C   0  0  0  0  0  0  0  0  0  0  0  0
    9.5715    5.1435   -4.5949 C   0  0  0  0  0  0  0  0  0  0  0  0
    9.2990    4.6207   -5.9401 N   0  3  0  0  0  0  0  0  0  0  0  0
    5.6541    2.0296   -2.2350 C   0  0  1  0  0  0  0  0  0  0  0  0
    4.3352    2.8396   -2.2043 C   0  0  0  0  0  0  0  0  0  0  0  0
    4.5076    4.1875   -2.9548 C   0  0  1  0  0  0  0  0  0  0  0  0
    3.2234    4.9133   -2.9850 N   0  3  0  0  0  0  0  0  0  0  0  0
    5.6363    5.0312   -2.2946 C   0  0  1  0  0  0  0  0  0  0  0  0
    6.9627    4.2364   -2.2000 C   0  0  1  0  0  0  0  0  0  0  0  0
    7.8584    5.0311   -1.4369 O   0  0  0  0  0  0  0  0  0  0  0  0
    6.8262    2.8152   -1.5605 C   0  0  2  0  0  0  0  0  0  0  0  0
    5.4518    0.7100   -1.6113 N   0  3  0  0  0  0  0  0  0  0  0  0
    7.9373    8.3083   -4.0125 C   0  0  0  0  0  0  0  0  0  0  0  0
    7.1218    9.6047   -4.2404 C   0  0  2  0  0  0  0  0  0  0  0  0
    7.6439   10.5878   -3.3477 O   0  0  0  0  0  0  0  0  0  0  0  0
    5.6003    9.3263   -3.9424 C   0  0  1  0  0  0  0  0  0  0  0  0
    5.3713    8.5885   -2.5796 C   0  0  2  0  0  0  0  0  0  0  0  0
    6.3429    7.4035   -2.3480 C   0  0  1  0  0  0  0  0  0  0  0  0
    5.9076    6.2274   -3.0795 O   0  0  0  0  0  0  0  0  0  0  0  0
    7.7103    7.7758   -2.6802 O   0  0  0  0  0  0  0  0  0  0  0  0
    4.0322    8.1152   -2.4617 O   0  0  0  0  0  0  0  0  0  0  0  0
    4.8338   10.6105   -3.9827 N   0  3  0  0  0  0  0  0  0  0  0  0
    4.4498   11.1209   -5.3146 C   0  0  0  0  0  0  0  0  0  0  0  0
    7.3831   10.1068   -5.6818 C   0  0  0  0  0  0  0  0  0  0  0  0
  1  8  1  0  0  0  0
  1  9  1  6  0  0  0
  1  2  1  0  0  0  0
  2  3  1  0  0  0  0
  3  5  1  0  0  0  0
  3  4  1  1  0  0  0
  5  7  1  0  0  0  0
  5  6  1  1  0  0  0
  7  8  1  0  0  0  0
  9 10  1  0  0  0  0
 11 12  1  0  0  0  0
 11 18  1  0  0  0  0
 11 19  1  1  0  0  0
 12 13  1  0  0  0  0
 13 15  1  0  0  0  0
 13 14  1  1  0  0  0
 15 16  1  0  0  0  0
 15 26  1  6  0  0  0
 16 18  1  0  0  0  0
 16 17  1  1  0  0  0
 18  4  1  6  0  0  0
 20 21  1  0  0  0  0
 20 27  1  0  0  0  0
 21 31  1  6  0  0  0
 21 23  1  0  0  0  0
 21 22  1  0  0  0  0
 23 24  1  0  0  0  0
 23 29  1  1  0  0  0
 24 25  1  0  0  0  0
 24 28  1  6  0  0  0
 25 27  1  0  0  0  0
 25 26  1  6  0  0  0
 29 30  1  0  0  0  0
M  CHG  5   6   1  10   1  14   1  19   1  29   1
M  END
>  <CHROM.1>
-31.13392905,48.67060749,62.57176699,109.55225905,165.30377752,69.42282725
-170.16595563,148.41041830,-67.33452566,51.03872984,-158.12988266,-61.78709145
-121.14009790,7.09682243,5.40138801,-3.12497056,-1.22487678,0.26150986,-0.26784074

>  <Name>
1byj cryst

>  <RI>
0

>  <Rbt.Current_Directory>
/home/itssahil/PROJECTS/Mol_Feturizer/New_Systems/rnas/1byj

>  <Rbt.Executable>
rbdock ($Id: //depot/dev/client3/rdock/2013.1/src/exe/rbdock.cxx#4 $)

>  <Rbt.Library>
libRbt.so (2013.1, Build901 2013/11/27)

>  <Rbt.Parameter_File>
/export/apps/rDock/src/rDock_2013.1_src/data/scripts/dock_solv.prm

>  <Rbt.Receptor>
prm/blind_docking_100.prm

>  <SCORE>
0.0765453

>  <SCORE.INTER>
-9.2991

>  <SCORE.INTER.CONST>
1

>  <SCORE.INTER.POLAR>
-4.4738

>  <SCORE.INTER.ROT>
6

>  <SCORE.INTER.SOLV>
36.8605

>  <SCORE.INTER.VDW>
-11.1736

>  <SCORE.INTER.norm>
-0.299971

>  <SCORE.INTRA>
-2.20871

>  <SCORE.INTRA.DIHEDRAL>
1.83342

>  <SCORE.INTRA.DIHEDRAL.0>
18.4149

>  <SCORE.INTRA.POLAR>
-1.11241

>  <SCORE.INTRA.POLAR.0>
0

>  <SCORE.INTRA.REPUL>
-0.092687

>  <SCORE.INTRA.REPUL.0>
0.092687

>  <SCORE.INTRA.SOLV>
-0.45778

>  <SCORE.INTRA.SOLV.lig_0>
-120.37

>  <SCORE.INTRA.VDW>
1.3491

>  <SCORE.INTRA.VDW.0>
-1.75542

>  <SCORE.INTRA.norm>
-0.0712486

>  <SCORE.RESTR>
11.5843

>  <SCORE.RESTR.CAVITY>
11.5843

>  <SCORE.RESTR.norm>
0.373689

>  <SCORE.SYSTEM>
0

>  <SCORE.SYSTEM.CONST>
0

>  <SCORE.SYSTEM.DIHEDRAL>
0

>  <SCORE.SYSTEM.SOLV>
0

>  <SCORE.SYSTEM.norm>
0

>  <SCORE.heavy>
31

>  <SCORE.norm>
0.0024692

>  <RMSD>
5.666

$$$$
1byj cryst
 OpenBabel11021811383D
libRbt.so/2013.1/901 2013/11/27
 31 33  0  0  0  0  0  0  0  0999 V2000
    9.5753    1.5246   -1.4432 C   0  0  1  0  0  0  0  0  0  0  0  0
    9.9324    2.7645   -2.1340 O   0  0  0  0  0  0  0  0  0  0  0  0
    9.6292    2.8855   -3.5560 C   0  0  2  0  0  0  0  0  0  0  0  0
    8.1875    2.9489   -3.7886 O   0  0  0  0  0  0  0  0  0  0  0  0
   10.2675    1.6875   -4.3226 C   0  0  2  0  0  0  0  0  0  0  0  0
   10.0126    1.7241   -5.7762 N   0  3  0  0  0  0  0  0  0  0  0  0
    9.7730    0.3467   -3.7210 C   0  0  0  0  0  0  0  0  0  0  0  0
   10.0740    0.2728   -2.2165 C   0  0  0  0  0  0  0  0  0  0  0  0
   10.1923    1.5293   -0.0334 C   0  0  0  0  0  0  0  0  0  0  0  0
    9.8292    2.7042    0.7697 N   0  3  0  0  0  0  0  0  0  0  0  0
    5.8958    2.9258   -2.8842 C   0  0  1  0  0  0  0  0  0  0  0  0
    4.9083    3.5890   -1.8935 C   0  0  0  0  0  0  0  0  0  0  0  0
    4.8093    5.1144   -2.1639 C   0  0  1  0  0  0  0  0  0  0  0  0
    3.8079    5.7199   -1.2652 N   0  3  0  0  0  0  0  0  0  0  0  0
    6.2070    5.7808   -2.0091 C   0  0  1  0  0  0  0  0  0  0  0  0
    7.2700    5.0926   -2.9016 C   0  0  1  0  0  0  0  0  0  0  0  0
    8.5227    5.6635   -2.5540 O   0  0  0  0  0  0  0  0  0  0  0  0
    7.3305    3.5358   -2.7596 C   0  0  2  0  0  0  0  0  0  0  0  0
    5.9050    1.4654   -2.6876 N   0  3  0  0  0  0  0  0  0  0  0  0
    4.2775    9.3598   -3.4315 C   0  0  0  0  0  0  0  0  0  0  0  0
    5.1860   10.3669   -4.1784 C   0  0  2  0  0  0  0  0  0  0  0  0
    4.7491   10.3947   -5.5365 O   0  0  0  0  0  0  0  0  0  0  0  0
    6.6853    9.8936   -4.0800 C   0  0  1  0  0  0  0  0  0  0  0  0
    6.8723    8.3817   -4.4448 C   0  0  2  0  0  0  0  0  0  0  0  0
    5.8165    7.4538   -3.7920 C   0  0  1  0  0  0  0  0  0  0  0  0
    6.1540    7.1807   -2.4066 O   0  0  0  0  0  0  0  0  0  0  0  0
    4.4776    8.0089   -3.9266 O   0  0  0  0  0  0  0  0  0  0  0  0
    8.1730    7.9176   -4.0929 O   0  0  0  0  0  0  0  0  0  0  0  0
    7.5461   10.7564   -4.9478 N   0  3  0  0  0  0  0  0  0  0  0  0
    7.8111   10.2758   -6.3191 C   0  0  0  0  0  0  0  0  0  0  0  0
    4.9482   11.7792   -3.5895 C   0  0  0  0  0  0  0  0  0  0  0  0
  1  8  1  0  0  0  0
  1  9  1  1  0  0  0
  1  2  1  0  0  0  0
  2  3  1  0  0  0  0
  3  5  1  0  0  0  0
  3  4  1  1  0  0  0
  5  7  1  0  0  0  0
  5  6  1  6  0  0  0
  7  8  1  0  0  0  0
  9 10  1  0  0  0  0
 11 12  1  0  0  0  0
 11 18  1  0  0  0  0
 11 19  1  1  0  0  0
 12 13  1  0  0  0  0
 13 15  1  0  0  0  0
 13 14  1  1  0  0  0
 15 16  1  0  0  0  0
 15 26  1  6  0  0  0
 16 18  1  0  0  0  0
 16 17  1  1  0  0  0
 18  4  1  6  0  0  0
 20 21  1  0  0  0  0
 20 27  1  0  0  0  0
 21 31  1  1  0  0  0
 21 23  1  0  0  0  0
 21 22  1  0  0  0  0
 23 24  1  0  0  0  0
 23 29  1  6  0  0  0
 24 25  1  0  0  0  0
 24 28  1  1  0  0  0
 25 27  1  0  0  0  0
 25 26  1  1  0  0  0
 29 30  1  0  0  0  0
M  CHG  5   6   1  10   1  14   1  19   1  29   1
M  END
>  <CHROM.1>
55.11442966,29.92578184,-153.89882572,-171.68452749,67.67361182,-175.70583093
49.41814605,-62.85696305,54.66346504,172.48683337,27.17404886,-45.53594306
-127.28557920,7.25950933,5.47606696,-3.16585945,1.10835890,-0.51006453,2.67585174

>  <Name>
1byj cryst

>  <RI>
0

>  <Rbt.Current_Directory>
/home/itssahil/PROJECTS/Mol_Feturizer/New_Systems/rnas/1byj

>  <Rbt.Executable>
rbdock ($Id: //depot/dev/client3/rdock/2013.1/src/exe/rbdock.cxx#4 $)

>  <Rbt.Library>
libRbt.so (2013.1, Build901 2013/11/27)

>  <Rbt.Parameter_File>
/export/apps/rDock/src/rDock_2013.1_src/data/scripts/dock_solv.prm

>  <Rbt.Receptor>
prm/blind_docking_100.prm

>  <SCORE>
-12.1727

>  <SCORE.INTER>
-20.5437

>  <SCORE.INTER.CONST>
1

>  <SCORE.INTER.POLAR>
-4.73957

>  <SCORE.INTER.ROT>
6

>  <SCORE.INTER.SOLV>
35.547

>  <SCORE.INTER.VDW>
-17.3462

>  <SCORE.INTER.norm>
-0.662698

>  <SCORE.INTRA>
-0.558297

>  <SCORE.INTRA.DIHEDRAL>
-0.542335

>  <SCORE.INTRA.DIHEDRAL.0>
18.4149

>  <SCORE.INTRA.POLAR>
0

>  <SCORE.INTRA.POLAR.0>
0

>  <SCORE.INTRA.REPUL>
-0.0565653

>  <SCORE.INTRA.REPUL.0>
0.092687

>  <SCORE.INTRA.SOLV>
-2.21348

>  <SCORE.INTRA.SOLV.lig_0>
-120.37

>  <SCORE.INTRA.VDW>
1.10244

>  <SCORE.INTRA.VDW.0>
-1.75542

>  <SCORE.INTRA.norm>
-0.0180096

>  <SCORE.RESTR>
8.9293

>  <SCORE.RESTR.CAVITY>
8.9293

>  <SCORE.RESTR.norm>
0.288042

>  <SCORE.SYSTEM>
0

>  <SCORE.SYSTEM.CONST>
0

>  <SCORE.SYSTEM.DIHEDRAL>
0

>  <SCORE.SYSTEM.SOLV>
0

>  <SCORE.SYSTEM.norm>
0

>  <SCORE.heavy>
31

>  <SCORE.norm>
-0.392666

>  <RMSD>
5.672

$$$$
1byj cryst
 OpenBabel11021811383D
libRbt.so/2013.1/901 2013/11/27
 31 33  0  0  0  0  0  0  0  0999 V2000
    6.0174    1.6401    1.0079 C   0  0  1  0  0  0  0  0  0  0  0  0
    6.5431    2.8275    0.3329 O   0  0  0  0  0  0  0  0  0  0  0  0
    7.9890    2.9816    0.2127 C   0  0  2  0  0  0  0  0  0  0  0  0
    8.5565    1.9838   -0.6923 O   0  0  0  0  0  0  0  0  0  0  0  0
    8.6367    2.8862    1.6276 C   0  0  2  0  0  0  0  0  0  0  0  0
   10.1055    3.0312    1.6066 N   0  3  0  0  0  0  0  0  0  0  0  0
    8.2351    1.5519    2.3077 C   0  0  0  0  0  0  0  0  0  0  0  0
    6.7076    1.4075    2.3803 C   0  0  0  0  0  0  0  0  0  0  0  0
    4.5024    1.8033    1.2230 C   0  0  0  0  0  0  0  0  0  0  0  0
    3.7726    0.5308    1.2953 N   0  3  0  0  0  0  0  0  0  0  0  0
   10.0284    2.6221   -2.5622 C   0  0  1  0  0  0  0  0  0  0  0  0
   10.0915    3.0343   -4.0531 C   0  0  0  0  0  0  0  0  0  0  0  0
    9.1882    4.2695   -4.3142 C   0  0  1  0  0  0  0  0  0  0  0  0
    9.3181    4.6986   -5.7198 N   0  3  0  0  0  0  0  0  0  0  0  0
    7.7127    3.9468   -3.9394 C   0  0  1  0  0  0  0  0  0  0  0  0
    7.5934    3.4272   -2.4847 C   0  0  1  0  0  0  0  0  0  0  0  0
    6.2477    3.0081   -2.3128 O   0  0  0  0  0  0  0  0  0  0  0  0
    8.5704    2.2586   -2.1283 C   0  0  2  0  0  0  0  0  0  0  0  0
   10.9664    1.5155   -2.3034 N   0  3  0  0  0  0  0  0  0  0  0  0
    8.4695    7.7373   -4.3106 C   0  0  0  0  0  0  0  0  0  0  0  0
    7.4152    8.8700   -4.2541 C   0  0  2  0  0  0  0  0  0  0  0  0
    7.7279    9.6742   -3.1176 O   0  0  0  0  0  0  0  0  0  0  0  0
    5.9771    8.2415   -4.1193 C   0  0  1  0  0  0  0  0  0  0  0  0
    5.8910    7.1516   -2.9974 C   0  0  2  0  0  0  0  0  0  0  0  0
    7.0764    6.1533   -3.0140 C   0  0  1  0  0  0  0  0  0  0  0  0
    6.8860    5.1416   -4.0377 O   0  0  0  0  0  0  0  0  0  0  0  0
    8.3450    6.8503   -3.1671 O   0  0  0  0  0  0  0  0  0  0  0  0
    4.6712    6.4186   -3.0752 O   0  0  0  0  0  0  0  0  0  0  0  0
    4.9721    9.3241   -3.8817 N   0  3  0  0  0  0  0  0  0  0  0  0
    4.7839   10.3133   -4.9624 C   0  0  0  0  0  0  0  0  0  0  0  0
    7.5799    9.7626   -5.5088 C   0  0  0  0  0  0  0  0  0  0  0  0
  1  8  1  0  0  0  0
  1  9  1  1  0  0  0
  1  2  1  0  0  0  0
  2  3  1  0  0  0  0
  3  5  1  0  0  0  0
  3  4  1  6  0  0  0
  5  7  1  0  0  0  0
  5  6  1  6  0  0  0
  7  8  1  0  0  0  0
  9 10  1  0  0  0  0
 11 12  1  0  0  0  0
 11 18  1  0  0  0  0
 11 19  1  6  0  0  0
 12 13  1  0  0  0  0
 13 15  1  0  0  0  0
 13 14  1  6  0  0  0
 15 16  1  0  0  0  0
 15 26  1  1  0  0  0
 16 18  1  0  0  0  0
 16 17  1  6  0  0  0
 18  4  1  1  0  0  0
 20 21  1  0  0  0  0
 20 27  1  0  0  0  0
 21 31  1  6  0  0  0
 21 23  1  0  0  0  0
 21 22  1  0  0  0  0
 23 24  1  0  0  0  0
 23 29  1  1  0  0  0
 24 25  1  0  0  0  0
 24 28  1  6  0  0  0
 25 27  1  0  0  0  0
 25 26  1  6  0  0  0
 29 30  1  0  0  0  0
M  CHG  5   6   1  10   1  14   1  19   1  29   1
M  END
>  <CHROM.1>
153.17664823,85.38334036,105.26219254,77.61187915,-179.26392587,-48.68057082
-132.14716851,-72.08083214,-58.28994916,-60.09328633,-174.88110312,71.61349644
-163.88047177,7.42301433,4.68043174,-2.09775170,1.48142258,-0.50462536,2.45010004

>  <Name>
1byj cryst

>  <RI>
0

>  <Rbt.Current_Directory>
/home/itssahil/PROJECTS/Mol_Feturizer/New_Systems/rnas/1byj

>  <Rbt.Executable>
rbdock ($Id: //depot/dev/client3/rdock/2013.1/src/exe/rbdock.cxx#4 $)

>  <Rbt.Library>
libRbt.so (2013.1, Build901 2013/11/27)

>  <Rbt.Parameter_File>
/export/apps/rDock/src/rDock_2013.1_src/data/scripts/dock_solv.prm

>  <Rbt.Receptor>
prm/blind_docking_60.prm

>  <SCORE>
-13.2762

>  <SCORE.INTER>
-21.719

>  <SCORE.INTER.CONST>
1

>  <SCORE.INTER.POLAR>
-3.83562

>  <SCORE.INTER.ROT>
6

>  <SCORE.INTER.SOLV>
33.4113

>  <SCORE.INTER.VDW>
-20.4311

>  <SCORE.INTER.norm>
-0.700614

>  <SCORE.INTRA>
2.46793

>  <SCORE.INTRA.DIHEDRAL>
-0.0785184

>  <SCORE.INTRA.DIHEDRAL.0>
18.4149

>  <SCORE.INTRA.POLAR>
-0.0663905

>  <SCORE.INTRA.POLAR.0>
0

>  <SCORE.INTRA.REPUL>
-0.070008

>  <SCORE.INTRA.REPUL.0>
0.092687

>  <SCORE.INTRA.SOLV>
-2.43837

>  <SCORE.INTRA.SOLV.lig_0>
-120.37

>  <SCORE.INTRA.VDW>
4.30214

>  <SCORE.INTRA.VDW.0>
-1.75542

>  <SCORE.INTRA.norm>
0.0796106

>  <SCORE.RESTR>
5.97491

>  <SCORE.RESTR.CAVITY>
5.97491

>  <SCORE.RESTR.norm>
0.192739

>  <SCORE.SYSTEM>
0

>  <SCORE.SYSTEM.CONST>
0

>  <SCORE.SYSTEM.DIHEDRAL>
0

>  <SCORE.SYSTEM.SOLV>
0

>  <SCORE.SYSTEM.norm>
0

>  <SCORE.heavy>
31

>  <SCORE.norm>
-0.428265

>  <RMSD>
5.674

$$$$
1byj cryst
 OpenBabel11021811383D
libRbt.so/2013.1/901 2013/11/27
 31 33  0  0  0  0  0  0  0  0999 V2000
    7.2961    4.1027    0.5082 C   0  0  1  0  0  0  0  0  0  0  0  0
    8.6593    3.5858    0.6368 O   0  0  0  0  0  0  0  0  0  0  0  0
    8.8530    2.2566    1.2062 C   0  0  2  0  0  0  0  0  0  0  0  0
    8.3407    1.2169    0.3155 O   0  0  0  0  0  0  0  0  0  0  0  0
    8.1614    2.1882    2.6018 C   0  0  2  0  0  0  0  0  0  0  0  0
    8.3044    0.8740    3.2587 N   0  3  0  0  0  0  0  0  0  0  0  0
    6.6636    2.5675    2.4725 C   0  0  0  0  0  0  0  0  0  0  0  0
    6.4989    3.9547    1.8335 C   0  0  0  0  0  0  0  0  0  0  0  0
    7.3483    5.5884    0.1107 C   0  0  0  0  0  0  0  0  0  0  0  0
    7.9833    6.4501    1.1164 N   0  3  0  0  0  0  0  0  0  0  0  0
    9.9903    1.9001   -1.3824 C   0  0  1  0  0  0  0  0  0  0  0  0
   10.2340    2.1769   -2.8859 C   0  0  0  0  0  0  0  0  0  0  0  0
    9.2210    3.2267   -3.4165 C   0  0  1  0  0  0  0  0  0  0  0  0
    9.5138    3.5383   -4.8285 N   0  3  0  0  0  0  0  0  0  0  0  0
    7.7641    2.7144   -3.2248 C   0  0  1  0  0  0  0  0  0  0  0  0
    7.4862    2.3200   -1.7526 C   0  0  1  0  0  0  0  0  0  0  0  0
    6.2023    1.7142   -1.7303 O   0  0  0  0  0  0  0  0  0  0  0  0
    8.5467    1.3560   -1.1254 C   0  0  2  0  0  0  0  0  0  0  0  0
   11.0196    0.9819   -0.8639 N   0  3  0  0  0  0  0  0  0  0  0  0
    8.1942    6.4673   -3.7047 C   0  0  0  0  0  0  0  0  0  0  0  0
    7.0722    7.4891   -4.0125 C   0  0  2  0  0  0  0  0  0  0  0  0
    7.0257    8.4002   -2.9153 O   0  0  0  0  0  0  0  0  0  0  0  0
    5.7010    6.7302   -4.1714 C   0  0  1  0  0  0  0  0  0  0  0  0
    5.4247    5.7205   -3.0060 C   0  0  2  0  0  0  0  0  0  0  0  0
    6.6524    4.8481   -2.6406 C   0  0  1  0  0  0  0  0  0  0  0  0
    6.8054    3.7515   -3.5796 O   0  0  0  0  0  0  0  0  0  0  0  0
    7.8592    5.6567   -2.5469 O   0  0  0  0  0  0  0  0  0  0  0  0
    4.3256    4.8647   -3.3073 O   0  0  0  0  0  0  0  0  0  0  0  0
    4.5854    7.7203   -4.2877 N   0  3  0  0  0  0  0  0  0  0  0  0
    3.2203    7.2281   -4.0114 C   0  0  0  0  0  0  0  0  0  0  0  0
    7.4734    8.3014   -5.2685 C   0  0  0  0  0  0  0  0  0  0  0  0
  1  8  1  0  0  0  0
  1  9  1  1  0  0  0
  1  2  1  0  0  0  0
  2  3  1  0  0  0  0
  3  5  1  0  0  0  0
  3  4  1  6  0  0  0
  5  7  1  0  0  0  0
  5  6  1  6  0  0  0
  7  8  1  0  0  0  0
  9 10  1  0  0  0  0
 11 12  1  0  0  0  0
 11 18  1  0  0  0  0
 11 19  1  6  0  0  0
 12 13  1  0  0  0  0
 13 15  1  0  0  0  0
 13 14  1  6  0  0  0
 15 16  1  0  0  0  0
 15 26  1  1  0  0  0
 16 18  1  0  0  0  0
 16 17  1  6  0  0  0
 18  4  1  1  0  0  0
 20 21  1  0  0  0  0
 20 27  1  0  0  0  0
 21 31  1  6  0  0  0
 21 23  1  0  0  0  0
 21 22  1  0  0  0  0
 23 24  1  0  0  0  0
 23 29  1  1  0  0  0
 24 25  1  0  0  0  0
 24 28  1  6  0  0  0
 25 27  1  0  0  0  0
 25 26  1  6  0  0  0
 29 30  1  0  0  0  0
M  CHG  5   6   1  10   1  14   1  19   1  29   1
M  END
>  <CHROM.1>
-63.13223806,39.58938232,40.66421225,-170.38319427,83.50610957,40.22740810
-29.06352836,-74.13232494,-71.89828060,171.30748472,-39.87406097,-168.79231930
-169.15253616,7.49163206,4.20125813,-1.62841355,1.02673757,-0.84399131,1.95154217

>  <Name>
1byj cryst

>  <RI>
0

>  <Rbt.Current_Directory>
/home/itssahil/PROJECTS/Mol_Feturizer/New_Systems/rnas/1byj

>  <Rbt.Executable>
rbdock ($Id: //depot/dev/client3/rdock/2013.1/src/exe/rbdock.cxx#4 $)

>  <Rbt.Library>
libRbt.so (2013.1, Build901 2013/11/27)

>  <Rbt.Parameter_File>
/export/apps/rDock/src/rDock_2013.1_src/data/scripts/dock_solv.prm

>  <Rbt.Receptor>
prm/blind_docking_60.prm

>  <SCORE>
-29.9561

>  <SCORE.INTER>
-39.5215

>  <SCORE.INTER.CONST>
1

>  <SCORE.INTER.POLAR>
-6.56994

>  <SCORE.INTER.ROT>
6

>  <SCORE.INTER.SOLV>
39.4253

>  <SCORE.INTER.VDW>
-25.1896

>  <SCORE.INTER.norm>
-1.27489

>  <SCORE.INTRA>
1.56725

>  <SCORE.INTRA.DIHEDRAL>
-6.39169

>  <SCORE.INTRA.DIHEDRAL.0>
18.4149

>  <SCORE.INTRA.POLAR>
0

>  <SCORE.INTRA.POLAR.0>
0

>  <SCORE.INTRA.REPUL>
-0.092687

>  <SCORE.INTRA.REPUL.0>
0.092687

>  <SCORE.INTRA.SOLV>
-0.125901

>  <SCORE.INTRA.SOLV.lig_0>
-120.37

>  <SCORE.INTRA.VDW>
5.28948

>  <SCORE.INTRA.VDW.0>
-1.75542

>  <SCORE.INTRA.norm>
0.0505564

>  <SCORE.RESTR>
7.99814

>  <SCORE.RESTR.CAVITY>
7.99814

>  <SCORE.RESTR.norm>
0.258005

>  <SCORE.SYSTEM>
0

>  <SCORE.SYSTEM.CONST>
0

>  <SCORE.SYSTEM.DIHEDRAL>
0

>  <SCORE.SYSTEM.SOLV>
0

>  <SCORE.SYSTEM.norm>
0

>  <SCORE.heavy>
31

>  <SCORE.norm>
-0.966325

>  <RMSD>
5.676

$$$$
1byj cryst
 OpenBabel11021811383D
libRbt.so/2013.1/901 2013/11/27
 31 33  0  0  0  0  0  0  0  0999 V2000
    6.0675    1.7951    1.1944 C   0  0  1  0  0  0  0  0  0  0  0  0
    6.6448    2.9589    0.5203 O   0  0  0  0  0  0  0  0  0  0  0  0
    8.0972    3.0788    0.4518 C   0  0  2  0  0  0  0  0  0  0  0  0
    8.6750    2.0534   -0.4150 O   0  0  0  0  0  0  0  0  0  0  0  0
    8.6897    2.9933    1.8913 C   0  0  2  0  0  0  0  0  0  0  0  0
   10.1612    3.1053    1.9229 N   0  3  0  0  0  0  0  0  0  0  0  0
    8.2329    1.6800    2.5775 C   0  0  0  0  0  0  0  0  0  0  0  0
    6.7008    1.5708    2.5952 C   0  0  0  0  0  0  0  0  0  0  0  0
    4.5497    1.9955    1.3499 C   0  0  0  0  0  0  0  0  0  0  0  0
    3.8004    0.7444    1.5246 N   0  3  0  0  0  0  0  0  0  0  0  0
   10.0935    2.6012   -2.3536 C   0  0  1  0  0  0  0  0  0  0  0  0
   10.1149    2.9376   -3.8646 C   0  0  0  0  0  0  0  0  0  0  0  0
    9.1989    4.1548   -4.1634 C   0  0  1  0  0  0  0  0  0  0  0  0
    9.2893    4.5126   -5.5920 N   0  3  0  0  0  0  0  0  0  0  0  0
    7.7355    3.8463   -3.7334 C   0  0  1  0  0  0  0  0  0  0  0  0
    7.6575    3.4007   -2.2516 C   0  0  1  0  0  0  0  0  0  0  0  0
    6.3189    2.9861   -2.0227 O   0  0  0  0  0  0  0  0  0  0  0  0
    8.6493    2.2551   -1.8629 C   0  0  2  0  0  0  0  0  0  0  0  0
   11.0434    1.5124   -2.0645 N   0  3  0  0  0  0  0  0  0  0  0  0
    8.4638    7.6345   -4.1887 C   0  0  0  0  0  0  0  0  0  0  0  0
    7.3990    8.7586   -4.1700 C   0  0  2  0  0  0  0  0  0  0  0  0
    7.6928    9.5924   -3.0500 O   0  0  0  0  0  0  0  0  0  0  0  0
    5.9652    8.1204   -4.0347 C   0  0  1  0  0  0  0  0  0  0  0  0
    5.8772    7.0568   -2.8879 C   0  0  2  0  0  0  0  0  0  0  0  0
    7.0715    6.0692   -2.8687 C   0  0  1  0  0  0  0  0  0  0  0  0
    6.9007    5.0317   -3.8697 O   0  0  0  0  0  0  0  0  0  0  0  0
    8.3355    6.7740   -3.0256 O   0  0  0  0  0  0  0  0  0  0  0  0
    4.6649    6.3111   -2.9604 O   0  0  0  0  0  0  0  0  0  0  0  0
    4.9483    9.1991   -3.8333 N   0  3  0  0  0  0  0  0  0  0  0  0
    4.8260   10.2132   -4.9003 C   0  0  0  0  0  0  0  0  0  0  0  0
    7.5687    9.6224   -5.4440 C   0  0  0  0  0  0  0  0  0  0  0  0
  1  8  1  0  0  0  0
  1  9  1  1  0  0  0
  1  2  1  0  0  0  0
  2  3  1  0  0  0  0
  3  5  1  0  0  0  0
  3  4  1  6  0  0  0
  5  7  1  0  0  0  0
  5  6  1  6  0  0  0
  7  8  1  0  0  0  0
  9 10  1  0  0  0  0
 11 12  1  0  0  0  0
 11 18  1  0  0  0  0
 11 19  1  6  0  0  0
 12 13  1  0  0  0  0
 13 15  1  0  0  0  0
 13 14  1  6  0  0  0
 15 16  1  0  0  0  0
 15 26  1  1  0  0  0
 16 18  1  0  0  0  0
 16 17  1  6  0  0  0
 18  4  1  1  0  0  0
 20 21  1  0  0  0  0
 20 27  1  0  0  0  0
 21 31  1  6  0  0  0
 21 23  1  0  0  0  0
 21 22  1  0  0  0  0
 23 24  1  0  0  0  0
 23 29  1  1  0  0  0
 24 25  1  0  0  0  0
 24 28  1  6  0  0  0
 25 27  1  0  0  0  0
 25 26  1  6  0  0  0
 29 30  1  0  0  0  0
M  CHG  5   6   1  10   1  14   1  19   1  29   1
M  END
>  <CHROM.1>
157.85878984,80.43652354,106.75307881,-38.02270333,176.30282302,69.00536593
-13.97138885,-74.74547874,-167.71778063,57.58301538,-178.85595444,-172.85593861
-163.79217604,7.45322389,4.66426737,-1.91799158,1.46538785,-0.51102291,2.41185341

>  <Name>
1byj cryst

>  <RI>
0

>  <Rbt.Current_Directory>
/home/itssahil/PROJECTS/Mol_Feturizer/New_Systems/rnas/1byj

>  <Rbt.Executable>
rbdock ($Id: //depot/dev/client3/rdock/2013.1/src/exe/rbdock.cxx#4 $)

>  <Rbt.Library>
libRbt.so (2013.1, Build901 2013/11/27)

>  <Rbt.Parameter_File>
/export/apps/rDock/src/rDock_2013.1_src/data/scripts/dock_solv.prm

>  <Rbt.Receptor>
prm/blind_docking_60.prm

>  <SCORE>
-19.2061

>  <SCORE.INTER>
-26.1533

>  <SCORE.INTER.CONST>
1

>  <SCORE.INTER.POLAR>
-4.88253

>  <SCORE.INTER.ROT>
6

>  <SCORE.INTER.SOLV>
33.5855

>  <SCORE.INTER.VDW>
-19.9556

>  <SCORE.INTER.norm>
-0.843655

>  <SCORE.INTRA>
0.943484

>  <SCORE.INTRA.DIHEDRAL>
-0.597196

>  <SCORE.INTRA.DIHEDRAL.0>
18.4149

>  <SCORE.INTRA.POLAR>
-1.00167

>  <SCORE.INTRA.POLAR.0>
0

>  <SCORE.INTRA.REPUL>
-0.0819745

>  <SCORE.INTRA.REPUL.0>
0.092687

>  <SCORE.INTRA.SOLV>
-3.11418

>  <SCORE.INTRA.SOLV.lig_0>
-120.37

>  <SCORE.INTRA.VDW>
6.61473

>  <SCORE.INTRA.VDW.0>
-1.75542

>  <SCORE.INTRA.norm>
0.030435

>  <SCORE.RESTR>
6.00367

>  <SCORE.RESTR.CAVITY>
6.00367

>  <SCORE.RESTR.norm>
0.193667

>  <SCORE.SYSTEM>
0

>  <SCORE.SYSTEM.CONST>
0

>  <SCORE.SYSTEM.DIHEDRAL>
0

>  <SCORE.SYSTEM.SOLV>
0

>  <SCORE.SYSTEM.norm>
0

>  <SCORE.heavy>
31

>  <SCORE.norm>
-0.619553

>  <RMSD>
5.684

$$$$
1byj cryst
 OpenBabel11021811383D
libRbt.so/2013.1/901 2013/11/27
 31 33  0  0  0  0  0  0  0  0999 V2000
    5.9271    1.4172    0.8148 C   0  0  1  0  0  0  0  0  0  0  0  0
    6.3778    2.5977    0.0763 O   0  0  0  0  0  0  0  0  0  0  0  0
    7.8109    2.8100   -0.0966 C   0  0  2  0  0  0  0  0  0  0  0  0
    8.3950    1.8016   -0.9791 O   0  0  0  0  0  0  0  0  0  0  0  0
    8.5051    2.8016    1.2992 C   0  0  2  0  0  0  0  0  0  0  0  0
    9.9646    3.0100    1.2250 N   0  3  0  0  0  0  0  0  0  0  0  0
    8.1852    1.4802    2.0446 C   0  0  0  0  0  0  0  0  0  0  0  0
    6.6686    1.2720    2.1723 C   0  0  0  0  0  0  0  0  0  0  0  0
    4.4136    1.5225    1.0720 C   0  0  0  0  0  0  0  0  0  0  0  0
    3.7546    0.2260    1.2769 N   0  3  0  0  0  0  0  0  0  0  0  0
   10.0164    2.6839   -2.6109 C   0  0  1  0  0  0  0  0  0  0  0  0
   10.2329    3.1461   -4.0724 C   0  0  0  0  0  0  0  0  0  0  0  0
    9.2179    4.2596   -4.4464 C   0  0  1  0  0  0  0  0  0  0  0  0
    9.4857    4.7446   -5.8138 N   0  3  0  0  0  0  0  0  0  0  0  0
    7.7611    3.7349   -4.2910 C   0  0  1  0  0  0  0  0  0  0  0  0
    7.5090    3.1602   -2.8746 C   0  0  1  0  0  0  0  0  0  0  0  0
    6.2210    2.5632   -2.9024 O   0  0  0  0  0  0  0  0  0  0  0  0
    8.5739    2.1195   -2.3950 C   0  0  2  0  0  0  0  0  0  0  0  0
   11.0485    1.7025   -2.2327 N   0  3  0  0  0  0  0  0  0  0  0  0
    8.3820    6.5039   -2.5004 C   0  0  0  0  0  0  0  0  0  0  0  0
    7.8480    7.9472   -2.6719 C   0  0  2  0  0  0  0  0  0  0  0  0
    7.2882    8.3362   -1.4184 O   0  0  0  0  0  0  0  0  0  0  0  0
    6.7557    7.9708   -3.8067 C   0  0  1  0  0  0  0  0  0  0  0  0
    5.6801    6.8440   -3.6409 C   0  0  2  0  0  0  0  0  0  0  0  0
    6.2849    5.4583   -3.3006 C   0  0  1  0  0  0  0  0  0  0  0  0
    6.8038    4.8135   -4.4933 O   0  0  0  0  0  0  0  0  0  0  0  0
    7.2957    5.5703   -2.2591 O   0  0  0  0  0  0  0  0  0  0  0  0
    4.8718    6.7190   -4.8080 O   0  0  0  0  0  0  0  0  0  0  0  0
    6.1061    9.3176   -3.8556 N   0  3  0  0  0  0  0  0  0  0  0  0
    6.6453   10.2873   -4.8307 C   0  0  0  0  0  0  0  0  0  0  0  0
    9.0456    8.8879   -2.9530 C   0  0  0  0  0  0  0  0  0  0  0  0
  1  8  1  0  0  0  0
  1  9  1  1  0  0  0
  1  2  1  0  0  0  0
  2  3  1  0  0  0  0
  3  5  1  0  0  0  0
  3  4  1  6  0  0  0
  5  7  1  0  0  0  0
  5  6  1  6  0  0  0
  7  8  1  0  0  0  0
  9 10  1  0  0  0  0
 11 12  1  0  0  0  0
 11 18  1  0  0  0  0
 11 19  1  6  0  0  0
 12 13  1  0  0  0  0
 13 15  1  0  0  0  0
 13 14  1  6  0  0  0
 15 16  1  0  0  0  0
 15 26  1  1  0  0  0
 16 18  1  0  0  0  0
 16 17  1  6  0  0  0
 18  4  1  1  0  0  0
 20 21  1  0  0  0  0
 20 27  1  0  0  0  0
 21 31  1  6  0  0  0
 21 23  1  0  0  0  0
 21 22  1  0  0  0  0
 23 24  1  0  0  0  0
 23 29  1  1  0  0  0
 24 25  1  0  0  0  0
 24 28  1  6  0  0  0
 25 27  1  0  0  0  0
 25 26  1  6  0  0  0
 29 30  1  0  0  0  0
M  CHG  5   6   1  10   1  14   1  19   1  29   1
M  END
>  <CHROM.1>
155.70051371,96.39328813,93.16625613,76.30587493,176.41315572,7.94541868
-117.69498502,-97.46612920,-166.55907332,-63.48985511,-143.53784477,-49.26876520
160.99505865,7.50262844,4.38183397,-2.04607844,1.57757399,-0.53538070,2.51010625

>  <Name>
1byj cryst

>  <RI>
0

>  <Rbt.Current_Directory>
/home/itssahil/PROJECTS/Mol_Feturizer/New_Systems/rnas/1byj

>  <Rbt.Executable>
rbdock ($Id: //depot/dev/client3/rdock/2013.1/src/exe/rbdock.cxx#4 $)

>  <Rbt.Library>
libRbt.so (2013.1, Build901 2013/11/27)

>  <Rbt.Parameter_File>
/export/apps/rDock/src/rDock_2013.1_src/data/scripts/dock_solv.prm

>  <Rbt.Receptor>
prm/blind_docking_60.prm

>  <SCORE>
11.6298

>  <SCORE.INTER>
1.52065

>  <SCORE.INTER.CONST>
1

>  <SCORE.INTER.POLAR>
-5.19516

>  <SCORE.INTER.ROT>
6

>  <SCORE.INTER.SOLV>
37.2413

>  <SCORE.INTER.VDW>
-1.68279

>  <SCORE.INTER.norm>
0.0490531

>  <SCORE.INTRA>
7.33149

>  <SCORE.INTRA.DIHEDRAL>
10.641

>  <SCORE.INTRA.DIHEDRAL.0>
18.4149

>  <SCORE.INTRA.POLAR>
-0.834081

>  <SCORE.INTRA.POLAR.0>
0

>  <SCORE.INTRA.REPUL>
0.0778834

>  <SCORE.INTRA.REPUL.0>
0.092687

>  <SCORE.INTRA.SOLV>
-1.43109

>  <SCORE.INTRA.SOLV.lig_0>
-120.37

>  <SCORE.INTRA.VDW>
5.17298

>  <SCORE.INTRA.VDW.0>
-1.75542

>  <SCORE.INTRA.norm>
0.2365

>  <SCORE.RESTR>
2.77764

>  <SCORE.RESTR.CAVITY>
2.77764

>  <SCORE.RESTR.norm>
0.0896014

>  <SCORE.SYSTEM>
0

>  <SCORE.SYSTEM.CONST>
0

>  <SCORE.SYSTEM.DIHEDRAL>
0

>  <SCORE.SYSTEM.SOLV>
0

>  <SCORE.SYSTEM.norm>
0

>  <SCORE.heavy>
31

>  <SCORE.norm>
0.375154

>  <RMSD>
5.688

$$$$
1byj cryst
 OpenBabel11021811383D
libRbt.so/2013.1/901 2013/11/27
 31 33  0  0  0  0  0  0  0  0999 V2000
    6.2570    0.8857    0.3159 C   0  0  1  0  0  0  0  0  0  0  0  0
    6.6006    2.2699   -0.0127 O   0  0  0  0  0  0  0  0  0  0  0  0
    8.0028    2.6711    0.0272 C   0  0  2  0  0  0  0  0  0  0  0  0
    8.7701    2.0286   -1.0382 O   0  0  0  0  0  0  0  0  0  0  0  0
    8.5965    2.3304    1.4279 C   0  0  2  0  0  0  0  0  0  0  0  0
   10.0187    2.7020    1.5635 N   0  3  0  0  0  0  0  0  0  0  0  0
    8.3999    0.8238    1.7369 C   0  0  0  0  0  0  0  0  0  0  0  0
    6.9177    0.4308    1.6465 C   0  0  0  0  0  0  0  0  0  0  0  0
    4.7286    0.7537    0.4372 C   0  0  0  0  0  0  0  0  0  0  0  0
    4.2717   -0.6119    0.7264 N   0  3  0  0  0  0  0  0  0  0  0  0
    9.9066    2.2950   -3.2080 C   0  0  1  0  0  0  0  0  0  0  0  0
    9.7910    2.8471   -4.6496 C   0  0  0  0  0  0  0  0  0  0  0  0
    9.4352    4.3580   -4.6261 C   0  0  1  0  0  0  0  0  0  0  0  0
    9.4049    4.8884   -6.0026 N   0  3  0  0  0  0  0  0  0  0  0  0
    8.0838    4.5818   -3.8876 C   0  0  1  0  0  0  0  0  0  0  0  0
    8.0977    3.9582   -2.4694 C   0  0  1  0  0  0  0  0  0  0  0  0
    6.7758    4.0712   -1.9636 O   0  0  0  0  0  0  0  0  0  0  0  0
    8.5676    2.4669   -2.4183 C   0  0  2  0  0  0  0  0  0  0  0  0
   10.3449    0.8884   -3.2388 N   0  3  0  0  0  0  0  0  0  0  0  0
    5.1932    7.5634   -3.6387 C   0  0  0  0  0  0  0  0  0  0  0  0
    5.5854    9.0422   -3.8775 C   0  0  2  0  0  0  0  0  0  0  0  0
    4.9269    9.4604   -5.0723 O   0  0  0  0  0  0  0  0  0  0  0  0
    7.1494    9.1518   -4.0300 C   0  0  1  0  0  0  0  0  0  0  0  0
    7.7390    8.1029   -5.0331 C   0  0  2  0  0  0  0  0  0  0  0  0
    7.1676    6.6753   -4.8404 C   0  0  1  0  0  0  0  0  0  0  0  0
    7.8164    6.0044   -3.7284 O   0  0  0  0  0  0  0  0  0  0  0  0
    5.7204    6.7074   -4.6871 O   0  0  0  0  0  0  0  0  0  0  0  0
    9.1606    8.0445   -4.9506 O   0  0  0  0  0  0  0  0  0  0  0  0
    7.5215   10.5417   -4.4402 N   0  3  0  0  0  0  0  0  0  0  0  0
    7.4535   10.8564   -5.8818 C   0  0  0  0  0  0  0  0  0  0  0  0
    5.0204    9.8978   -2.7170 C   0  0  0  0  0  0  0  0  0  0  0  0
  1  8  1  0  0  0  0
  1  9  1  1  0  0  0
  1  2  1  0  0  0  0
  2  3  1  0  0  0  0
  3  5  1  0  0  0  0
  3  4  1  6  0  0  0
  5  7  1  0  0  0  0
  5  6  1  6  0  0  0
  7  8  1  0  0  0  0
  9 10  1  0  0  0  0
 11 12  1  0  0  0  0
 11 18  1  0  0  0  0
 11 19  1  6  0  0  0
 12 13  1  0  0  0  0
 13 15  1  0  0  0  0
 13 14  1  6  0  0  0
 15 16  1  0  0  0  0
 15 26  1  1  0  0  0
 16 18  1  0  0  0  0
 16 17  1  6  0  0  0
 18  4  1  1  0  0  0
 20 21  1  0  0  0  0
 20 27  1  0  0  0  0
 21 31  1  1  0  0  0
 21 23  1  0  0  0  0
 21 22  1  0  0  0  0
 23 24  1  0  0  0  0
 23 29  1  6  0  0  0
 24 25  1  0  0  0  0
 24 28  1  1  0  0  0
 25 27  1  0  0  0  0
 25 26  1  1  0  0  0
 29 30  1  0  0  0  0
M  CHG  5   6   1  10   1  14   1  19   1  29   1
M  END
>  <CHROM.1>
178.24701380,71.97331691,148.86841305,59.62124532,70.54048758,-170.71088224
83.76099659,85.38665988,138.40822901,58.70902819,37.23046543,62.66260491
-142.08615484,7.52906395,4.73661973,-2.54295803,1.48900307,-0.59482091,2.52585889

>  <Name>
1byj cryst

>  <RI>
0

>  <Rbt.Current_Directory>
/home/itssahil/PROJECTS/Mol_Feturizer/New_Systems/rnas/1byj

>  <Rbt.Executable>
rbdock ($Id: //depot/dev/client3/rdock/2013.1/src/exe/rbdock.cxx#4 $)

>  <Rbt.Library>
libRbt.so (2013.1, Build901 2013/11/27)

>  <Rbt.Parameter_File>
/export/apps/rDock/src/rDock_2013.1_src/data/scripts/dock_solv.prm

>  <Rbt.Receptor>
prm/blind_docking_60.prm

>  <SCORE>
-13.3933

>  <SCORE.INTER>
-17.9165

>  <SCORE.INTER.CONST>
1

>  <SCORE.INTER.POLAR>
-5.17916

>  <SCORE.INTER.ROT>
6

>  <SCORE.INTER.SOLV>
42.8301

>  <SCORE.INTER.VDW>
-16.5572

>  <SCORE.INTER.norm>
-0.577953

>  <SCORE.INTRA>
0.0376108

>  <SCORE.INTRA.DIHEDRAL>
2.66146

>  <SCORE.INTRA.DIHEDRAL.0>
18.4149

>  <SCORE.INTRA.POLAR>
-1.10314

>  <SCORE.INTRA.POLAR.0>
0

>  <SCORE.INTRA.REPUL>
-0.092687

>  <SCORE.INTRA.REPUL.0>
0.092687

>  <SCORE.INTRA.SOLV>
-3.24088

>  <SCORE.INTRA.SOLV.lig_0>
-120.37

>  <SCORE.INTRA.VDW>
4.54141

>  <SCORE.INTRA.VDW.0>
-1.75542

>  <SCORE.INTRA.norm>
0.00121325

>  <SCORE.RESTR>
4.48564

>  <SCORE.RESTR.CAVITY>
4.48564

>  <SCORE.RESTR.norm>
0.144698

>  <SCORE.SYSTEM>
0

>  <SCORE.SYSTEM.CONST>
0

>  <SCORE.SYSTEM.DIHEDRAL>
0

>  <SCORE.SYSTEM.SOLV>
0

>  <SCORE.SYSTEM.norm>
0

>  <SCORE.heavy>
31

>  <SCORE.norm>
-0.432041

>  <RMSD>
5.708

$$$$
1byj cryst
 OpenBabel11021811383D
libRbt.so/2013.1/901 2013/11/27
 31 33  0  0  0  0  0  0  0  0999 V2000
    7.8152    4.5230    0.9573 C   0  0  1  0  0  0  0  0  0  0  0  0
    9.0116    3.6957    0.7951 O   0  0  0  0  0  0  0  0  0  0  0  0
    8.9506    2.2923    1.1892 C   0  0  2  0  0  0  0  0  0  0  0  0
    8.0725    1.5292    0.3041 O   0  0  0  0  0  0  0  0  0  0  0  0
    8.4746    2.1934    2.6705 C   0  0  2  0  0  0  0  0  0  0  0  0
    8.3816    0.8041    3.1607 N   0  3  0  0  0  0  0  0  0  0  0  0
    7.1152    2.9191    2.8421 C   0  0  0  0  0  0  0  0  0  0  0  0
    7.2082    4.3812    2.3804 C   0  0  0  0  0  0  0  0  0  0  0  0
    8.1755    5.9975    0.7040 C   0  0  0  0  0  0  0  0  0  0  0  0
    7.7785    6.4862   -0.6230 N   0  3  0  0  0  0  0  0  0  0  0  0
    9.5650    1.5305   -1.6562 C   0  0  1  0  0  0  0  0  0  0  0  0
    9.7054    1.9008   -3.1528 C   0  0  0  0  0  0  0  0  0  0  0  0
    9.3774    3.4018   -3.3745 C   0  0  1  0  0  0  0  0  0  0  0  0
    9.5904    3.7587   -4.7902 N   0  3  0  0  0  0  0  0  0  0  0  0
    7.9245    3.7101   -2.9100 C   0  0  1  0  0  0  0  0  0  0  0  0
    7.6867    3.2658   -1.4450 C   0  0  1  0  0  0  0  0  0  0  0  0
    6.3003    3.4356   -1.1896 O   0  0  0  0  0  0  0  0  0  0  0  0
    8.1147    1.7937   -1.1333 C   0  0  2  0  0  0  0  0  0  0  0  0
    9.9774    0.1324   -1.4403 N   0  3  0  0  0  0  0  0  0  0  0  0
    5.1283    6.8464   -3.0466 C   0  0  0  0  0  0  0  0  0  0  0  0
    5.5777    8.2256   -3.5883 C   0  0  2  0  0  0  0  0  0  0  0  0
    4.8650    8.4481   -4.8043 O   0  0  0  0  0  0  0  0  0  0  0  0
    7.1321    8.2078   -3.8430 C   0  0  1  0  0  0  0  0  0  0  0  0
    7.6024    6.9527   -4.6540 C   0  0  2  0  0  0  0  0  0  0  0  0
    6.9741    5.6258   -4.1577 C   0  0  1  0  0  0  0  0  0  0  0  0
    7.6590    5.1405   -2.9732 O   0  0  0  0  0  0  0  0  0  0  0  0
    5.5432    5.7754   -3.9360 O   0  0  0  0  0  0  0  0  0  0  0  0
    9.0217    6.8238   -4.6383 O   0  0  0  0  0  0  0  0  0  0  0  0
    7.5458    9.4684   -4.5344 N   0  3  0  0  0  0  0  0  0  0  0  0
    7.2468   10.7404   -3.8454 C   0  0  0  0  0  0  0  0  0  0  0  0
    5.1322    9.3197   -2.5870 C   0  0  0  0  0  0  0  0  0  0  0  0
  1  8  1  0  0  0  0
  1  9  1  1  0  0  0
  1  2  1  0  0  0  0
  2  3  1  0  0  0  0
  3  5  1  0  0  0  0
  3  4  1  6  0  0  0
  5  7  1  0  0  0  0
  5  6  1  6  0  0  0
  7  8  1  0  0  0  0
  9 10  1  0  0  0  0
 11 12  1  0  0  0  0
 11 18  1  0  0  0  0
 11 19  1  6  0  0  0
 12 13  1  0  0  0  0
 13 15  1  0  0  0  0
 13 14  1  6  0  0  0
 15 16  1  0  0  0  0
 15 26  1  1  0  0  0
 16 18  1  0  0  0  0
 16 17  1  6  0  0  0
 18  4  1  1  0  0  0
 20 21  1  0  0  0  0
 20 27  1  0  0  0  0
 21 31  1  1  0  0  0
 21 23  1  0  0  0  0
 21 22  1  0  0  0  0
 23 24  1  0  0  0  0
 23 29  1  6  0  0  0
 24 25  1  0  0  0  0
 24 28  1  1  0  0  0
 25 27  1  0  0  0  0
 25 26  1  1  0  0  0
 29 30  1  0  0  0  0
M  CHG  5   6   1  10   1  14   1  19   1  29   1
M  END
>  <CHROM.1>
101.67971324,40.86732433,59.19913097,-169.44636158,65.88406046,-24.11289447
71.66798108,97.20943591,64.52257124,-57.55392509,179.54730060,-74.24506058
-138.06260253,7.70245706,4.82289338,-1.75142475,1.05214548,-1.07326453,2.01139393

>  <Name>
1byj cryst

>  <RI>
0

>  <Rbt.Current_Directory>
/home/itssahil/PROJECTS/Mol_Feturizer/New_Systems/rnas/1byj

>  <Rbt.Executable>
rbdock ($Id: //depot/dev/client3/rdock/2013.1/src/exe/rbdock.cxx#4 $)

>  <Rbt.Library>
libRbt.so (2013.1, Build901 2013/11/27)

>  <Rbt.Parameter_File>
/export/apps/rDock/src/rDock_2013.1_src/data/scripts/dock_solv.prm

>  <Rbt.Receptor>
prm/blind_docking_60.prm

>  <SCORE>
-13.975

>  <SCORE.INTER>
-21.8468

>  <SCORE.INTER.CONST>
1

>  <SCORE.INTER.POLAR>
-4.15395

>  <SCORE.INTER.ROT>
6

>  <SCORE.INTER.SOLV>
39.3408

>  <SCORE.INTER.VDW>
-21.4316

>  <SCORE.INTER.norm>
-0.704735

>  <SCORE.INTRA>
0.628068

>  <SCORE.INTRA.DIHEDRAL>
2.37419

>  <SCORE.INTRA.DIHEDRAL.0>
18.4149

>  <SCORE.INTRA.POLAR>
-2.07802

>  <SCORE.INTRA.POLAR.0>
0

>  <SCORE.INTRA.REPUL>
-0.092687

>  <SCORE.INTRA.REPUL.0>
0.092687

>  <SCORE.INTRA.SOLV>
6.45267

>  <SCORE.INTRA.SOLV.lig_0>
-120.37

>  <SCORE.INTRA.VDW>
3.74335

>  <SCORE.INTRA.VDW.0>
-1.75542

>  <SCORE.INTRA.norm>
0.0202603

>  <SCORE.RESTR>
7.24375

>  <SCORE.RESTR.CAVITY>
7.24375

>  <SCORE.RESTR.norm>
0.233669

>  <SCORE.SYSTEM>
0

>  <SCORE.SYSTEM.CONST>
0

>  <SCORE.SYSTEM.DIHEDRAL>
0

>  <SCORE.SYSTEM.SOLV>
0

>  <SCORE.SYSTEM.norm>
0

>  <SCORE.heavy>
31

>  <SCORE.norm>
-0.450805

>  <RMSD>
5.716

$$$$
1byj cryst
 OpenBabel11021811383D
libRbt.so/2013.1/901 2013/11/27
 31 33  0  0  0  0  0  0  0  0999 V2000
    6.0909    1.7568    1.2691 C   0  0  1  0  0  0  0  0  0  0  0  0
    6.6409    2.9216    0.5743 O   0  0  0  0  0  0  0  0  0  0  0  0
    8.0903    3.0655    0.4888 C   0  0  2  0  0  0  0  0  0  0  0  0
    8.6765    2.0391   -0.3712 O   0  0  0  0  0  0  0  0  0  0  0  0
    8.6992    3.0085    1.9228 C   0  0  2  0  0  0  0  0  0  0  0  0
   10.1688    3.1461    1.9372 N   0  3  0  0  0  0  0  0  0  0  0  0
    8.2724    1.6965    2.6303 C   0  0  0  0  0  0  0  0  0  0  0  0
    6.7427    1.5613    2.6658 C   0  0  0  0  0  0  0  0  0  0  0  0
    4.5716    1.9332    1.4384 C   0  0  0  0  0  0  0  0  0  0  0  0
    4.1836    3.2350    1.9968 N   0  3  0  0  0  0  0  0  0  0  0  0
   10.1049    2.5682   -2.3078 C   0  0  1  0  0  0  0  0  0  0  0  0
   10.1334    2.8981   -3.8200 C   0  0  0  0  0  0  0  0  0  0  0  0
    9.2275    4.1208   -4.1268 C   0  0  1  0  0  0  0  0  0  0  0  0
    9.3248    4.4719   -5.5565 N   0  3  0  0  0  0  0  0  0  0  0  0
    7.7606    3.8251   -3.6999 C   0  0  1  0  0  0  0  0  0  0  0  0
    7.6747    3.3863   -2.2166 C   0  0  1  0  0  0  0  0  0  0  0  0
    6.3324    2.9827   -1.9900 O   0  0  0  0  0  0  0  0  0  0  0  0
    8.6568    2.2350   -1.8201 C   0  0  2  0  0  0  0  0  0  0  0  0
   11.0458    1.4736   -2.0112 N   0  3  0  0  0  0  0  0  0  0  0  0
    8.4905    7.6135   -4.2356 C   0  0  0  0  0  0  0  0  0  0  0  0
    7.4265    8.7381   -4.2080 C   0  0  2  0  0  0  0  0  0  0  0  0
    7.7463    9.5876   -3.1070 O   0  0  0  0  0  0  0  0  0  0  0  0
    5.9962    8.1025   -4.0305 C   0  0  1  0  0  0  0  0  0  0  0  0
    5.9348    7.0552   -2.8671 C   0  0  2  0  0  0  0  0  0  0  0  0
    7.1291    6.0676   -2.8617 C   0  0  1  0  0  0  0  0  0  0  0  0
    6.9350    5.0161   -3.8437 O   0  0  0  0  0  0  0  0  0  0  0  0
    8.3891    6.7695   -3.0578 O   0  0  0  0  0  0  0  0  0  0  0  0
    4.7210    6.3090   -2.9009 O   0  0  0  0  0  0  0  0  0  0  0  0
    4.9843    9.1844   -3.8208 N   0  3  0  0  0  0  0  0  0  0  0  0
    4.8342   10.1809   -4.9008 C   0  0  0  0  0  0  0  0  0  0  0  0
    7.5666    9.5839   -5.4977 C   0  0  0  0  0  0  0  0  0  0  0  0
  1  8  1  0  0  0  0
  1  9  1  1  0  0  0
  1  2  1  0  0  0  0
  2  3  1  0  0  0  0
  3  5  1  0  0  0  0
  3  4  1  6  0  0  0
  5  7  1  0  0  0  0
  5  6  1  6  0  0  0
  7  8  1  0  0  0  0
  9 10  1  0  0  0  0
 11 12  1  0  0  0  0
 11 18  1  0  0  0  0
 11 19  1  6  0  0  0
 12 13  1  0  0  0  0
 13 15  1  0  0  0  0
 13 14  1  6  0  0  0
 15 16  1  0  0  0  0
 15 26  1  1  0  0  0
 16 18  1  0  0  0  0
 16 17  1  6  0  0  0
 18  4  1  1  0  0  0
 20 21  1  0  0  0  0
 20 27  1  0  0  0  0
 21 31  1  6  0  0  0
 21 23  1  0  0  0  0
 21 22  1  0  0  0  0
 23 24  1  0  0  0  0
 23 29  1  1  0  0  0
 24 25  1  0  0  0  0
 24 28  1  6  0  0  0
 25 27  1  0  0  0  0
 25 26  1  6  0  0  0
 29 30  1  0  0  0  0
M  CHG  5   6   1  10   1  14   1  19   1  29   1
M  END
>  <CHROM.1>
-49.54169038,81.68357938,107.43610405,-154.30520753,-65.77140984,-52.03225302
-15.30814812,-73.58099386,64.66800103,-59.89877725,-178.66216493,57.02653209
-163.02249163,7.48960712,4.74192421,-1.88156572,1.42002570,-0.60844396,2.35052690

>  <Name>
1byj cryst

>  <RI>
0

>  <Rbt.Current_Directory>
/home/itssahil/PROJECTS/Mol_Feturizer/New_Systems/rnas/1byj

>  <Rbt.Executable>
rbdock ($Id: //depot/dev/client3/rdock/2013.1/src/exe/rbdock.cxx#4 $)

>  <Rbt.Library>
libRbt.so (2013.1, Build901 2013/11/27)

>  <Rbt.Parameter_File>
/export/apps/rDock/src/rDock_2013.1_src/data/scripts/dock_solv.prm

>  <Rbt.Receptor>
prm/blind_docking_60.prm

>  <SCORE>
-8.26543

>  <SCORE.INTER>
-18.2941

>  <SCORE.INTER.CONST>
1

>  <SCORE.INTER.POLAR>
-3.39272

>  <SCORE.INTER.ROT>
6

>  <SCORE.INTER.SOLV>
31.7689

>  <SCORE.INTER.VDW>
-19.0767

>  <SCORE.INTER.norm>
-0.590133

>  <SCORE.INTRA>
3.35545

>  <SCORE.INTRA.DIHEDRAL>
-2.11624

>  <SCORE.INTRA.DIHEDRAL.0>
18.4149

>  <SCORE.INTRA.POLAR>
-0.0103253

>  <SCORE.INTRA.POLAR.0>
0

>  <SCORE.INTRA.REPUL>
-0.0837767

>  <SCORE.INTRA.REPUL.0>
0.092687

>  <SCORE.INTRA.SOLV>
-1.17758

>  <SCORE.INTRA.SOLV.lig_0>
-120.37

>  <SCORE.INTRA.VDW>
5.45635

>  <SCORE.INTRA.VDW.0>
-1.75542

>  <SCORE.INTRA.norm>
0.10824

>  <SCORE.RESTR>
6.67326

>  <SCORE.RESTR.CAVITY>
6.67326

>  <SCORE.RESTR.norm>
0.215266

>  <SCORE.SYSTEM>
0

>  <SCORE.SYSTEM.CONST>
0

>  <SCORE.SYSTEM.DIHEDRAL>
0

>  <SCORE.SYSTEM.SOLV>
0

>  <SCORE.SYSTEM.norm>
0

>  <SCORE.heavy>
31

>  <SCORE.norm>
-0.266627

>  <RMSD>
5.725

$$$$
1byj cryst
 OpenBabel11021811383D
libRbt.so/2013.1/901 2013/11/27
 31 33  0  0  0  0  0  0  0  0999 V2000
    7.3779    4.5822    3.4630 C   0  0  1  0  0  0  0  0  0  0  0  0
    7.4845    3.1492    3.1853 O   0  0  0  0  0  0  0  0  0  0  0  0
    6.2932    2.3187    3.3258 C   0  0  2  0  0  0  0  0  0  0  0  0
    5.3003    2.6357    2.3009 O   0  0  0  0  0  0  0  0  0  0  0  0
    5.7006    2.5055    4.7555 C   0  0  2  0  0  0  0  0  0  0  0  0
    4.4862    1.7003    4.9923 N   0  3  0  0  0  0  0  0  0  0  0  0
    5.4143    4.0060    5.0210 C   0  0  0  0  0  0  0  0  0  0  0  0
    6.6810    4.8525    4.8251 C   0  0  0  0  0  0  0  0  0  0  0  0
    8.7848    5.2054    3.4805 C   0  0  0  0  0  0  0  0  0  0  0  0
    9.5796    4.9105    2.2810 N   0  3  0  0  0  0  0  0  0  0  0  0
    6.8321    1.5201    0.7263 C   0  0  1  0  0  0  0  0  0  0  0  0
    7.3730    1.4916   -0.7240 C   0  0  0  0  0  0  0  0  0  0  0  0
    7.9443    2.8801   -1.1183 C   0  0  1  0  0  0  0  0  0  0  0  0
    8.5260    2.8176   -2.4728 N   0  3  0  0  0  0  0  0  0  0  0  0
    6.8371    3.9684   -1.0114 C   0  0  1  0  0  0  0  0  0  0  0  0
    6.1803    3.9791    0.3917 C   0  0  1  0  0  0  0  0  0  0  0  0
    5.0848    4.8797    0.3200 O   0  0  0  0  0  0  0  0  0  0  0  0
    5.6940    2.5796    0.8938 C   0  0  2  0  0  0  0  0  0  0  0  0
    6.3872    0.1735    1.1265 N   0  3  0  0  0  0  0  0  0  0  0  0
    5.3523    5.3160   -3.4984 C   0  0  0  0  0  0  0  0  0  0  0  0
    5.1375    6.8101   -3.8438 C   0  0  2  0  0  0  0  0  0  0  0  0
    5.5342    6.9848   -5.2033 O   0  0  0  0  0  0  0  0  0  0  0  0
    6.0127    7.7012   -2.8840 C   0  0  1  0  0  0  0  0  0  0  0  0
    7.4984    7.2143   -2.7865 C   0  0  2  0  0  0  0  0  0  0  0  0
    7.6354    5.6805   -2.6119 C   0  0  1  0  0  0  0  0  0  0  0  0
    7.3983    5.2938   -1.2328 O   0  0  0  0  0  0  0  0  0  0  0  0
    6.7624    4.9691   -3.5342 O   0  0  0  0  0  0  0  0  0  0  0  0
    8.1905    7.8620   -1.7221 O   0  0  0  0  0  0  0  0  0  0  0  0
    5.9532    9.1295   -3.3257 N   0  3  0  0  0  0  0  0  0  0  0  0
    6.6004   10.1292   -2.4519 C   0  0  0  0  0  0  0  0  0  0  0  0
    3.6233    7.1243   -3.7623 C   0  0  0  0  0  0  0  0  0  0  0  0
  1  8  1  0  0  0  0
  1  9  1  1  0  0  0
  1  2  1  0  0  0  0
  2  3  1  0  0  0  0
  3  5  1  0  0  0  0
  3  4  1  6  0  0  0
  5  7  1  0  0  0  0
  5  6  1  6  0  0  0
  7  8  1  0  0  0  0
  9 10  1  0  0  0  0
 11 12  1  0  0  0  0
 11 18  1  0  0  0  0
 11 19  1  6  0  0  0
 12 13  1  0  0  0  0
 13 15  1  0  0  0  0
 13 14  1  6  0  0  0
 15 16  1  0  0  0  0
 15 26  1  1  0  0  0
 16 18  1  0  0  0  0
 16 17  1  6  0  0  0
 18  4  1  1  0  0  0
 20 21  1  0  0  0  0
 20 27  1  0  0  0  0
 21 31  1  1  0  0  0
 21 23  1  0  0  0  0
 21 22  1  0  0  0  0
 23 24  1  0  0  0  0
 23 29  1  6  0  0  0
 24 25  1  0  0  0  0
 24 28  1  1  0  0  0
 25 27  1  0  0  0  0
 25 26  1  1  0  0  0
 29 30  1  0  0  0  0
M  CHG  5   6   1  10   1  14   1  19   1  29   1
M  END
>  <CHROM.1>
52.50822834,55.10977053,29.10311072,44.69468898,-173.14028611,-153.94938452
98.13811045,79.42117672,65.08763186,174.39503508,-65.34013481,73.41163945
150.12451923,6.57364107,4.66297429,-0.05830178,-1.20827912,-1.51065533,-0.62586965

>  <Name>
1byj cryst

>  <RI>
0

>  <Rbt.Current_Directory>
/home/itssahil/PROJECTS/Mol_Feturizer/New_Systems/rnas/1byj

>  <Rbt.Executable>
rbdock ($Id: //depot/dev/client3/rdock/2013.1/src/exe/rbdock.cxx#4 $)

>  <Rbt.Library>
libRbt.so (2013.1, Build901 2013/11/27)

>  <Rbt.Parameter_File>
/export/apps/rDock/src/rDock_2013.1_src/data/scripts/dock_solv.prm

>  <Rbt.Receptor>
prm/pocket_docking_6.prm

>  <SCORE>
-27.9789

>  <SCORE.INTER>
-23.7895

>  <SCORE.INTER.CONST>
1

>  <SCORE.INTER.POLAR>
-4.87635

>  <SCORE.INTER.ROT>
6

>  <SCORE.INTER.SOLV>
19.6248

>  <SCORE.INTER.VDW>
-13.7468

>  <SCORE.INTER.norm>
-0.767403

>  <SCORE.INTRA>
-4.18943

>  <SCORE.INTRA.DIHEDRAL>
-2.93974

>  <SCORE.INTRA.DIHEDRAL.0>
18.4149

>  <SCORE.INTRA.POLAR>
-0.990979

>  <SCORE.INTRA.POLAR.0>
0

>  <SCORE.INTRA.REPUL>
-0.092687

>  <SCORE.INTRA.REPUL.0>
0.092687

>  <SCORE.INTRA.SOLV>
0.577447

>  <SCORE.INTRA.SOLV.lig_0>
-120.37

>  <SCORE.INTRA.VDW>
0.824482

>  <SCORE.INTRA.VDW.0>
-1.75542

>  <SCORE.INTRA.norm>
-0.135143

>  <SCORE.RESTR>
0

>  <SCORE.RESTR.CAVITY>
0

>  <SCORE.RESTR.norm>
0

>  <SCORE.SYSTEM>
0

>  <SCORE.SYSTEM.CONST>
0

>  <SCORE.SYSTEM.DIHEDRAL>
0

>  <SCORE.SYSTEM.SOLV>
0

>  <SCORE.SYSTEM.norm>
0

>  <SCORE.heavy>
31

>  <SCORE.norm>
-0.902546

>  <RMSD>
5.731

$$$$
1byj cryst
 OpenBabel11021811383D
libRbt.so/2013.1/901 2013/11/27
 31 33  0  0  0  0  0  0  0  0999 V2000
    6.4104    1.2951    0.9225 C   0  0  1  0  0  0  0  0  0  0  0  0
    6.6553    2.6356    0.3884 O   0  0  0  0  0  0  0  0  0  0  0  0
    8.0112    3.1719    0.4383 C   0  0  2  0  0  0  0  0  0  0  0  0
    8.9039    2.4446   -0.4621 O   0  0  0  0  0  0  0  0  0  0  0  0
    8.5326    3.1185    1.9066 C   0  0  2  0  0  0  0  0  0  0  0  0
    9.9043    3.6429    2.0568 N   0  3  0  0  0  0  0  0  0  0  0  0
    8.4459    1.6688    2.4496 C   0  0  0  0  0  0  0  0  0  0  0  0
    7.0132    1.1250    2.3443 C   0  0  0  0  0  0  0  0  0  0  0  0
    4.8944    1.0370    0.9798 C   0  0  0  0  0  0  0  0  0  0  0  0
    4.3231    0.5707   -0.2904 N   0  3  0  0  0  0  0  0  0  0  0  0
   10.1560    2.7100   -2.5674 C   0  0  1  0  0  0  0  0  0  0  0  0
   10.0543    3.0016   -4.0844 C   0  0  0  0  0  0  0  0  0  0  0  0
    9.3121    4.3424   -4.3316 C   0  0  1  0  0  0  0  0  0  0  0  0
    9.2909    4.6461   -5.7752 N   0  3  0  0  0  0  0  0  0  0  0  0
    7.8784    4.2836   -3.7293 C   0  0  1  0  0  0  0  0  0  0  0  0
    7.9040    3.8926   -2.2305 C   0  0  1  0  0  0  0  0  0  0  0  0
    6.5527    3.7041   -1.8372 O   0  0  0  0  0  0  0  0  0  0  0  0
    8.7423    2.6124   -1.9056 C   0  0  2  0  0  0  0  0  0  0  0  0
   10.9505    1.4902   -2.3391 N   0  3  0  0  0  0  0  0  0  0  0  0
    6.7390    8.1851   -5.3437 C   0  0  0  0  0  0  0  0  0  0  0  0
    6.4987    9.2592   -4.2546 C   0  0  2  0  0  0  0  0  0  0  0  0
    7.5247   10.2398   -4.4026 O   0  0  0  0  0  0  0  0  0  0  0  0
    6.5649    8.5870   -2.8315 C   0  0  1  0  0  0  0  0  0  0  0  0
    7.8253    7.6752   -2.6462 C   0  0  2  0  0  0  0  0  0  0  0  0
    8.0987    6.7464   -3.8563 C   0  0  1  0  0  0  0  0  0  0  0  0
    7.2296    5.5840   -3.8227 O   0  0  0  0  0  0  0  0  0  0  0  0
    7.9847    7.4751   -5.1112 O   0  0  0  0  0  0  0  0  0  0  0  0
    7.7240    6.8788   -1.4686 O   0  0  0  0  0  0  0  0  0  0  0  0
    6.5156    9.6413   -1.7712 N   0  3  0  0  0  0  0  0  0  0  0  0
    7.7844   10.3233   -1.4440 C   0  0  0  0  0  0  0  0  0  0  0  0
    5.1476    9.9600   -4.5401 C   0  0  0  0  0  0  0  0  0  0  0  0
  1  8  1  0  0  0  0
  1  9  1  1  0  0  0
  1  2  1  0  0  0  0
  2  3  1  0  0  0  0
  3  5  1  0  0  0  0
  3  4  1  6  0  0  0
  5  7  1  0  0  0  0
  5  6  1  6  0  0  0
  7  8  1  0  0  0  0
  9 10  1  0  0  0  0
 11 12  1  0  0  0  0
 11 18  1  0  0  0  0
 11 19  1  6  0  0  0
 12 13  1  0  0  0  0
 13 15  1  0  0  0  0
 13 14  1  6  0  0  0
 15 16  1  0  0  0  0
 15 26  1  1  0  0  0
 16 18  1  0  0  0  0
 16 17  1  6  0  0  0
 18  4  1  1  0  0  0
 20 21  1  0  0  0  0
 20 27  1  0  0  0  0
 21 31  1  6  0  0  0
 21 23  1  0  0  0  0
 21 22  1  0  0  0  0
 23 24  1  0  0  0  0
 23 29  1  1  0  0  0
 24 25  1  0  0  0  0
 24 28  1  1  0  0  0
 25 27  1  0  0  0  0
 25 26  1  6  0  0  0
 29 30  1  0  0  0  0
M  CHG  5   6   1  10   1  14   1  19   1  29   1
M  END
>  <CHROM.1>
83.75216087,70.65386287,138.97376528,105.48061318,174.61714024,59.45772180
-27.43161487,-26.37465878,61.97316062,-59.29737004,38.90925095,176.23493335
-118.91526517,7.72965035,4.90646176,-1.92847419,1.47130441,-0.95453221,2.48379509

>  <Name>
1byj cryst

>  <RI>
0

>  <Rbt.Current_Directory>
/home/itssahil/PROJECTS/Mol_Feturizer/New_Systems/rnas/1byj

>  <Rbt.Executable>
rbdock ($Id: //depot/dev/client3/rdock/2013.1/src/exe/rbdock.cxx#4 $)

>  <Rbt.Library>
libRbt.so (2013.1, Build901 2013/11/27)

>  <Rbt.Parameter_File>
/export/apps/rDock/src/rDock_2013.1_src/data/scripts/dock_solv.prm

>  <Rbt.Receptor>
prm/blind_docking_60.prm

>  <SCORE>
-18.6621

>  <SCORE.INTER>
-28.6282

>  <SCORE.INTER.CONST>
1

>  <SCORE.INTER.POLAR>
-5.85558

>  <SCORE.INTER.ROT>
6

>  <SCORE.INTER.SOLV>
30.7288

>  <SCORE.INTER.VDW>
-17.4098

>  <SCORE.INTER.norm>
-0.923491

>  <SCORE.INTRA>
5.46291

>  <SCORE.INTRA.DIHEDRAL>
7.52695

>  <SCORE.INTRA.DIHEDRAL.0>
18.4149

>  <SCORE.INTRA.POLAR>
-0.215099

>  <SCORE.INTRA.POLAR.0>
0

>  <SCORE.INTRA.REPUL>
-0.092687

>  <SCORE.INTRA.REPUL.0>
0.092687

>  <SCORE.INTRA.SOLV>
-3.2042

>  <SCORE.INTRA.SOLV.lig_0>
-120.37

>  <SCORE.INTRA.VDW>
4.49631

>  <SCORE.INTRA.VDW.0>
-1.75542

>  <SCORE.INTRA.norm>
0.176223

>  <SCORE.RESTR>
4.50319

>  <SCORE.RESTR.CAVITY>
4.50319

>  <SCORE.RESTR.norm>
0.145264

>  <SCORE.SYSTEM>
0

>  <SCORE.SYSTEM.CONST>
0

>  <SCORE.SYSTEM.DIHEDRAL>
0

>  <SCORE.SYSTEM.SOLV>
0

>  <SCORE.SYSTEM.norm>
0

>  <SCORE.heavy>
31

>  <SCORE.norm>
-0.602003

>  <RMSD>
5.733

$$$$
1byj cryst
 OpenBabel11021811383D
libRbt.so/2013.1/901 2013/11/27
 31 33  0  0  0  0  0  0  0  0999 V2000
    6.3638    1.3000    0.6980 C   0  0  1  0  0  0  0  0  0  0  0  0
    6.6255    2.6744    0.2683 O   0  0  0  0  0  0  0  0  0  0  0  0
    7.9783    3.2039    0.4025 C   0  0  2  0  0  0  0  0  0  0  0  0
    8.9024    2.5405   -0.5156 O   0  0  0  0  0  0  0  0  0  0  0  0
    8.4489    3.0467    1.8804 C   0  0  2  0  0  0  0  0  0  0  0  0
    9.8140    3.5574    2.1143 N   0  3  0  0  0  0  0  0  0  0  0  0
    8.3450    1.5626    2.3169 C   0  0  0  0  0  0  0  0  0  0  0  0
    6.9174    1.0294    2.1242 C   0  0  0  0  0  0  0  0  0  0  0  0
    4.8470    1.0405    0.6848 C   0  0  0  0  0  0  0  0  0  0  0  0
    4.4871   -0.3812    0.7653 N   0  3  0  0  0  0  0  0  0  0  0  0
   10.1225    2.8038   -2.6397 C   0  0  1  0  0  0  0  0  0  0  0  0
    9.9994    3.1062   -4.1530 C   0  0  0  0  0  0  0  0  0  0  0  0
    9.2697    4.4575   -4.3796 C   0  0  1  0  0  0  0  0  0  0  0  0
    9.2284    4.7705   -5.8209 N   0  3  0  0  0  0  0  0  0  0  0  0
    7.8456    4.4124   -3.7540 C   0  0  1  0  0  0  0  0  0  0  0  0
    7.8912    4.0118   -2.2582 C   0  0  1  0  0  0  0  0  0  0  0  0
    6.5444    3.8373   -1.8437 O   0  0  0  0  0  0  0  0  0  0  0  0
    8.7189    2.7194   -1.9551 C   0  0  2  0  0  0  0  0  0  0  0  0
   10.9057    1.5730   -2.4321 N   0  3  0  0  0  0  0  0  0  0  0  0
    6.7203    8.2982   -5.3899 C   0  0  0  0  0  0  0  0  0  0  0  0
    6.5180    9.3966   -4.3174 C   0  0  2  0  0  0  0  0  0  0  0  0
    7.5528   10.3604   -4.5074 O   0  0  0  0  0  0  0  0  0  0  0  0
    6.6072    8.7516   -2.8830 C   0  0  1  0  0  0  0  0  0  0  0  0
    7.8597    7.8271   -2.7074 C   0  0  2  0  0  0  0  0  0  0  0  0
    8.0943    6.8712   -3.9044 C   0  0  1  0  0  0  0  0  0  0  0  0
    7.2115    5.7212   -3.8287 O   0  0  0  0  0  0  0  0  0  0  0  0
    7.9617    7.5766   -5.1708 O   0  0  0  0  0  0  0  0  0  0  0  0
    7.7744    7.0554   -1.5122 O   0  0  0  0  0  0  0  0  0  0  0  0
    6.5949    9.8271   -1.8431 N   0  3  0  0  0  0  0  0  0  0  0  0
    7.8472   10.5859   -1.6481 C   0  0  0  0  0  0  0  0  0  0  0  0
    5.1699   10.1094   -4.5871 C   0  0  0  0  0  0  0  0  0  0  0  0
  1  8  1  0  0  0  0
  1  9  1  1  0  0  0
  1  2  1  0  0  0  0
  2  3  1  0  0  0  0
  3  5  1  0  0  0  0
  3  4  1  6  0  0  0
  5  7  1  0  0  0  0
  5  6  1  6  0  0  0
  7  8  1  0  0  0  0
  9 10  1  0  0  0  0
 11 12  1  0  0  0  0
 11 18  1  0  0  0  0
 11 19  1  6  0  0  0
 12 13  1  0  0  0  0
 13 15  1  0  0  0  0
 13 14  1  6  0  0  0
 15 16  1  0  0  0  0
 15 26  1  1  0  0  0
 16 18  1  0  0  0  0
 16 17  1  6  0  0  0
 18  4  1  1  0  0  0
 20 21  1  0  0  0  0
 20 27  1  0  0  0  0
 21 31  1  6  0  0  0
 21 23  1  0  0  0  0
 21 22  1  0  0  0  0
 23 24  1  0  0  0  0
 23 29  1  1  0  0  0
 24 25  1  0  0  0  0
 24 28  1  1  0  0  0
 25 27  1  0  0  0  0
 25 26  1  6  0  0  0
 29 30  1  0  0  0  0
M  CHG  5   6   1  10   1  14   1  19   1  29   1
M  END
>  <CHROM.1>
165.33755382,65.48893860,142.93873356,-135.98487791,-51.04094308,-48.00722334
-28.86990173,-24.83362796,73.21225629,-58.00457815,44.56501591,68.44196698
-120.25409596,7.71519906,4.95485122,-1.95911543,1.51647440,-0.94879583,2.53200810

>  <Name>
1byj cryst

>  <RI>
0

>  <Rbt.Current_Directory>
/home/itssahil/PROJECTS/Mol_Feturizer/New_Systems/rnas/1byj

>  <Rbt.Executable>
rbdock ($Id: //depot/dev/client3/rdock/2013.1/src/exe/rbdock.cxx#4 $)

>  <Rbt.Library>
libRbt.so (2013.1, Build901 2013/11/27)

>  <Rbt.Parameter_File>
/export/apps/rDock/src/rDock_2013.1_src/data/scripts/dock_solv.prm

>  <Rbt.Receptor>
prm/blind_docking_60.prm

>  <SCORE>
-21.7728

>  <SCORE.INTER>
-31.4607

>  <SCORE.INTER.CONST>
1

>  <SCORE.INTER.POLAR>
-6.36615

>  <SCORE.INTER.ROT>
6

>  <SCORE.INTER.SOLV>
33.1788

>  <SCORE.INTER.VDW>
-18.4129

>  <SCORE.INTER.norm>
-1.01486

>  <SCORE.INTRA>
4.84622

>  <SCORE.INTRA.DIHEDRAL>
6.61272

>  <SCORE.INTRA.DIHEDRAL.0>
18.4149

>  <SCORE.INTRA.POLAR>
-0.372386

>  <SCORE.INTRA.POLAR.0>
0

>  <SCORE.INTRA.REPUL>
-0.092687

>  <SCORE.INTRA.REPUL.0>
0.092687

>  <SCORE.INTRA.SOLV>
-3.27639

>  <SCORE.INTRA.SOLV.lig_0>
-120.37

>  <SCORE.INTRA.VDW>
4.90761

>  <SCORE.INTRA.VDW.0>
-1.75542

>  <SCORE.INTRA.norm>
0.15633

>  <SCORE.RESTR>
4.84167

>  <SCORE.RESTR.CAVITY>
4.84167

>  <SCORE.RESTR.norm>
0.156183

>  <SCORE.SYSTEM>
0

>  <SCORE.SYSTEM.CONST>
0

>  <SCORE.SYSTEM.DIHEDRAL>
0

>  <SCORE.SYSTEM.SOLV>
0

>  <SCORE.SYSTEM.norm>
0

>  <SCORE.heavy>
31

>  <SCORE.norm>
-0.70235

>  <RMSD>
5.750

$$$$
1byj cryst
 OpenBabel11021811383D
libRbt.so/2013.1/901 2013/11/27
 31 33  0  0  0  0  0  0  0  0999 V2000
    3.0088    3.7013   -2.6819 C   0  0  1  0  0  0  0  0  0  0  0  0
    4.1924    4.3063   -2.0692 O   0  0  0  0  0  0  0  0  0  0  0  0
    5.3816    3.4822   -1.8811 C   0  0  2  0  0  0  0  0  0  0  0  0
    5.9919    3.1295   -3.1617 O   0  0  0  0  0  0  0  0  0  0  0  0
    5.0007    2.2050   -1.0723 C   0  0  2  0  0  0  0  0  0  0  0  0
    6.1458    1.3052   -0.8315 N   0  3  0  0  0  0  0  0  0  0  0  0
    3.8562    1.4430   -1.7890 C   0  0  0  0  0  0  0  0  0  0  0  0
    2.6378    2.3532   -2.0046 C   0  0  0  0  0  0  0  0  0  0  0  0
    1.8204    4.6719   -2.5651 C   0  0  0  0  0  0  0  0  0  0  0  0
    1.5612    5.1308   -1.1942 N   0  3  0  0  0  0  0  0  0  0  0  0
    8.3107    3.8290   -3.6135 C   0  0  1  0  0  0  0  0  0  0  0  0
    9.2163    4.9198   -4.2354 C   0  0  0  0  0  0  0  0  0  0  0  0
    8.8940    6.3088   -3.6215 C   0  0  1  0  0  0  0  0  0  0  0  0
    9.8158    7.3244   -4.1654 N   0  3  0  0  0  0  0  0  0  0  0  0
    7.4046    6.6790   -3.8787 C   0  0  1  0  0  0  0  0  0  0  0  0
    6.4452    5.5739   -3.3703 C   0  0  1  0  0  0  0  0  0  0  0  0
    5.1432    5.9347   -3.8067 O   0  0  0  0  0  0  0  0  0  0  0  0
    6.7962    4.1305   -3.8610 C   0  0  2  0  0  0  0  0  0  0  0  0
    8.6935    2.5015   -4.1258 N   0  3  0  0  0  0  0  0  0  0  0  0
    4.8615    9.5959   -4.4683 C   0  0  0  0  0  0  0  0  0  0  0  0
    4.8057   10.9012   -3.6372 C   0  0  2  0  0  0  0  0  0  0  0  0
    5.1175   11.9741   -4.5248 O   0  0  0  0  0  0  0  0  0  0  0  0
    5.8530   10.8205   -2.4633 C   0  0  1  0  0  0  0  0  0  0  0  0
    7.2711   10.3585   -2.9424 C   0  0  2  0  0  0  0  0  0  0  0  0
    7.2321    9.1487   -3.9103 C   0  0  1  0  0  0  0  0  0  0  0  0
    7.0537    7.9071   -3.1792 O   0  0  0  0  0  0  0  0  0  0  0  0
    6.2118    9.3295   -4.9326 O   0  0  0  0  0  0  0  0  0  0  0  0
    8.1152   10.0382   -1.8396 O   0  0  0  0  0  0  0  0  0  0  0  0
    5.9357   12.1424   -1.7675 N   0  3  0  0  0  0  0  0  0  0  0  0
    6.6096   12.1676   -0.4533 C   0  0  0  0  0  0  0  0  0  0  0  0
    3.3518   11.1155   -3.1491 C   0  0  0  0  0  0  0  0  0  0  0  0
  1  8  1  0  0  0  0
  1  9  1  1  0  0  0
  1  2  1  0  0  0  0
  2  3  1  0  0  0  0
  3  5  1  0  0  0  0
  3  4  1  6  0  0  0
  5  7  1  0  0  0  0
  5  6  1  6  0  0  0
  7  8  1  0  0  0  0
  9 10  1  0  0  0  0
 11 12  1  0  0  0  0
 11 18  1  0  0  0  0
 11 19  1  6  0  0  0
 12 13  1  0  0  0  0
 13 15  1  0  0  0  0
 13 14  1  6  0  0  0
 15 16  1  0  0  0  0
 15 26  1  1  0  0  0
 16 18  1  0  0  0  0
 16 17  1  6  0  0  0
 18  4  1  1  0  0  0
 20 21  1  0  0  0  0
 20 27  1  0  0  0  0
 21 31  1  1  0  0  0
 21 23  1  0  0  0  0
 21 22  1  0  0  0  0
 23 24  1  0  0  0  0
 23 29  1  6  0  0  0
 24 25  1  0  0  0  0
 24 28  1  1  0  0  0
 25 27  1  0  0  0  0
 25 26  1  1  0  0  0
 29 30  1  0  0  0  0
M  CHG  5   6   1  10   1  14   1  19   1  29   1
M  END
>  <CHROM.1>
-53.65251479,77.54841550,100.79401720,-5.35072985,-59.10713454,62.81720004
48.59118692,90.74542249,-59.68846284,56.62573743,-73.37973527,64.17229919
-161.62756539,5.90169980,6.61658969,-2.93249666,1.70233355,-0.27634398,3.08795331

>  <Name>
1byj cryst

>  <RI>
0

>  <Rbt.Current_Directory>
/home/itssahil/PROJECTS/Mol_Feturizer/New_Systems/rnas/1byj

>  <Rbt.Executable>
rbdock ($Id: //depot/dev/client3/rdock/2013.1/src/exe/rbdock.cxx#4 $)

>  <Rbt.Library>
libRbt.so (2013.1, Build901 2013/11/27)

>  <Rbt.Parameter_File>
/export/apps/rDock/src/rDock_2013.1_src/data/scripts/dock_solv.prm

>  <Rbt.Receptor>
prm/pocket_docking_7.prm

>  <SCORE>
-32.9044

>  <SCORE.INTER>
-32.8267

>  <SCORE.INTER.CONST>
1

>  <SCORE.INTER.POLAR>
-5.82126

>  <SCORE.INTER.ROT>
6

>  <SCORE.INTER.SOLV>
22.9844

>  <SCORE.INTER.VDW>
-17.7417

>  <SCORE.INTER.norm>
-1.05893

>  <SCORE.INTRA>
-0.0776926

>  <SCORE.INTRA.DIHEDRAL>
-1.26413

>  <SCORE.INTRA.DIHEDRAL.0>
18.4149

>  <SCORE.INTRA.POLAR>
-0.0134738

>  <SCORE.INTRA.POLAR.0>
0

>  <SCORE.INTRA.REPUL>
-0.0841666

>  <SCORE.INTRA.REPUL.0>
0.092687

>  <SCORE.INTRA.SOLV>
-0.523063

>  <SCORE.INTRA.SOLV.lig_0>
-120.37

>  <SCORE.INTRA.VDW>
1.28255

>  <SCORE.INTRA.VDW.0>
-1.75542

>  <SCORE.INTRA.norm>
-0.00250621

>  <SCORE.RESTR>
0

>  <SCORE.RESTR.CAVITY>
0

>  <SCORE.RESTR.norm>
0

>  <SCORE.SYSTEM>
0

>  <SCORE.SYSTEM.CONST>
0

>  <SCORE.SYSTEM.DIHEDRAL>
0

>  <SCORE.SYSTEM.SOLV>
0

>  <SCORE.SYSTEM.norm>
0

>  <SCORE.heavy>
31

>  <SCORE.norm>
-1.06143

>  <RMSD>
5.757

$$$$
1byj cryst
 OpenBabel11021811383D
libRbt.so/2013.1/901 2013/11/27
 31 33  0  0  0  0  0  0  0  0999 V2000
    9.0474    3.6427   -3.7402 C   0  0  1  0  0  0  0  0  0  0  0  0
    8.2180    2.4418   -3.8497 O   0  0  0  0  0  0  0  0  0  0  0  0
    8.4107    1.3676   -2.8814 C   0  0  2  0  0  0  0  0  0  0  0  0
    7.9795    1.7730   -1.5448 O   0  0  0  0  0  0  0  0  0  0  0  0
    9.9094    0.9384   -2.8795 C   0  0  2  0  0  0  0  0  0  0  0  0
   10.2025   -0.1493   -1.9255 N   0  3  0  0  0  0  0  0  0  0  0  0
   10.8138    2.1651   -2.5948 C   0  0  0  0  0  0  0  0  0  0  0  0
   10.5546    3.2890   -3.6093 C   0  0  0  0  0  0  0  0  0  0  0  0
    8.8390    4.5229   -4.9851 C   0  0  0  0  0  0  0  0  0  0  0  0
    9.3502    5.8917   -4.8368 N   0  3  0  0  0  0  0  0  0  0  0  0
    5.8045    2.2300   -2.6082 C   0  0  1  0  0  0  0  0  0  0  0  0
    4.5294    3.1075   -2.5795 C   0  0  0  0  0  0  0  0  0  0  0  0
    4.9037    4.6125   -2.6483 C   0  0  1  0  0  0  0  0  0  0  0  0
    3.6784    5.4329   -2.6988 N   0  3  0  0  0  0  0  0  0  0  0  0
    5.8114    4.9975   -1.4444 C   0  0  1  0  0  0  0  0  0  0  0  0
    7.0595    4.0841   -1.3549 C   0  0  1  0  0  0  0  0  0  0  0  0
    7.7148    4.4107   -0.1384 O   0  0  0  0  0  0  0  0  0  0  0  0
    6.7498    2.5515   -1.4045 C   0  0  2  0  0  0  0  0  0  0  0  0
    5.4360    0.8037   -2.6466 N   0  3  0  0  0  0  0  0  0  0  0  0
    5.4913    7.4928   -4.3032 C   0  0  0  0  0  0  0  0  0  0  0  0
    6.1138    8.9095   -4.3606 C   0  0  2  0  0  0  0  0  0  0  0  0
    7.0254    8.9200   -5.4583 O   0  0  0  0  0  0  0  0  0  0  0  0
    6.8610    9.2091   -3.0067 C   0  0  1  0  0  0  0  0  0  0  0  0
    7.8132    8.0460   -2.5657 C   0  0  2  0  0  0  0  0  0  0  0  0
    7.1740    6.6405   -2.6991 C   0  0  1  0  0  0  0  0  0  0  0  0
    6.2899    6.3661   -1.5806 O   0  0  0  0  0  0  0  0  0  0  0  0
    6.4947    6.4941   -3.9782 O   0  0  0  0  0  0  0  0  0  0  0  0
    8.2636    8.2210   -1.2249 O   0  0  0  0  0  0  0  0  0  0  0  0
    7.6164   10.4956   -3.1198 N   0  3  0  0  0  0  0  0  0  0  0  0
    8.0815   11.1131   -1.8611 C   0  0  0  0  0  0  0  0  0  0  0  0
    4.9940    9.9295   -4.6826 C   0  0  0  0  0  0  0  0  0  0  0  0
  1  8  1  0  0  0  0
  1  9  1  6  0  0  0
  1  2  1  0  0  0  0
  2  3  1  0  0  0  0
  3  5  1  0  0  0  0
  3  4  1  1  0  0  0
  5  7  1  0  0  0  0
  5  6  1  1  0  0  0
  7  8  1  0  0  0  0
  9 10  1  0  0  0  0
 11 12  1  0  0  0  0
 11 18  1  0  0  0  0
 11 19  1  1  0  0  0
 12 13  1  0  0  0  0
 13 15  1  0  0  0  0
 13 14  1  1  0  0  0
 15 16  1  0  0  0  0
 15 26  1  6  0  0  0
 16 18  1  0  0  0  0
 16 17  1  1  0  0  0
 18  4  1  6  0  0  0
 20 21  1  0  0  0  0
 20 27  1  0  0  0  0
 21 31  1  6  0  0  0
 21 23  1  0  0  0  0
 21 22  1  0  0  0  0
 23 24  1  0  0  0  0
 23 29  1  6  0  0  0
 24 25  1  0  0  0  0
 24 28  1  1  0  0  0
 25 27  1  0  0  0  0
 25 26  1  1  0  0  0
 29 30  1  0  0  0  0
M  CHG  5   6   1  10   1  14   1  19   1  29   1
M  END
>  <CHROM.1>
165.51186165,41.01489868,26.69055195,-13.32713297,-87.59459783,-16.18323740
78.24116673,-65.07810774,-57.07894561,173.01368460,-74.48570062,-76.79236442
-169.13258304,7.33847261,5.18229036,-2.87444400,-1.35828205,0.13634249,-0.15535154

>  <Name>
1byj cryst

>  <RI>
0

>  <Rbt.Current_Directory>
/home/itssahil/PROJECTS/Mol_Feturizer/New_Systems/rnas/1byj

>  <Rbt.Executable>
rbdock ($Id: //depot/dev/client3/rdock/2013.1/src/exe/rbdock.cxx#4 $)

>  <Rbt.Library>
libRbt.so (2013.1, Build901 2013/11/27)

>  <Rbt.Parameter_File>
/export/apps/rDock/src/rDock_2013.1_src/data/scripts/dock_solv.prm

>  <Rbt.Receptor>
prm/blind_docking_100.prm

>  <SCORE>
-13.6662

>  <SCORE.INTER>
-27.583

>  <SCORE.INTER.CONST>
1

>  <SCORE.INTER.POLAR>
-3.9418

>  <SCORE.INTER.ROT>
6

>  <SCORE.INTER.SOLV>
34.6507

>  <SCORE.INTER.VDW>
-24.3995

>  <SCORE.INTER.norm>
-0.889773

>  <SCORE.INTRA>
3.62445

>  <SCORE.INTRA.DIHEDRAL>
-0.280057

>  <SCORE.INTRA.DIHEDRAL.0>
18.4149

>  <SCORE.INTRA.POLAR>
-0.650556

>  <SCORE.INTRA.POLAR.0>
0

>  <SCORE.INTRA.REPUL>
-0.092687

>  <SCORE.INTRA.REPUL.0>
0.092687

>  <SCORE.INTRA.SOLV>
4.16142

>  <SCORE.INTRA.SOLV.lig_0>
-120.37

>  <SCORE.INTRA.VDW>
4.3591

>  <SCORE.INTRA.VDW.0>
-1.75542

>  <SCORE.INTRA.norm>
0.116918

>  <SCORE.RESTR>
10.2923

>  <SCORE.RESTR.CAVITY>
10.2923

>  <SCORE.RESTR.norm>
0.33201

>  <SCORE.SYSTEM>
0

>  <SCORE.SYSTEM.CONST>
0

>  <SCORE.SYSTEM.DIHEDRAL>
0

>  <SCORE.SYSTEM.SOLV>
0

>  <SCORE.SYSTEM.norm>
0

>  <SCORE.heavy>
31

>  <SCORE.norm>
-0.440846

>  <RMSD>
5.760

$$$$
1byj cryst
 OpenBabel11021811383D
libRbt.so/2013.1/901 2013/11/27
 31 33  0  0  0  0  0  0  0  0999 V2000
    7.2191    4.2839    0.5621 C   0  0  1  0  0  0  0  0  0  0  0  0
    8.5575    3.6918    0.5548 O   0  0  0  0  0  0  0  0  0  0  0  0
    8.7229    2.3299    1.0511 C   0  0  2  0  0  0  0  0  0  0  0  0
    8.0830    1.3596    0.1646 O   0  0  0  0  0  0  0  0  0  0  0  0
    8.1446    2.2342    2.4957 C   0  0  2  0  0  0  0  0  0  0  0  0
    8.2675    0.8859    3.0841 N   0  3  0  0  0  0  0  0  0  0  0  0
    6.6646    2.6962    2.5080 C   0  0  0  0  0  0  0  0  0  0  0  0
    6.5256    4.1175    1.9424 C   0  0  0  0  0  0  0  0  0  0  0  0
    7.3210    5.7814    0.2227 C   0  0  0  0  0  0  0  0  0  0  0  0
    8.1605    6.5456    1.1546 N   0  3  0  0  0  0  0  0  0  0  0  0
    9.7602    1.7500   -1.5974 C   0  0  1  0  0  0  0  0  0  0  0  0
    9.9881    2.0257   -3.1036 C   0  0  0  0  0  0  0  0  0  0  0  0
    9.1924    3.2807   -3.5529 C   0  0  1  0  0  0  0  0  0  0  0  0
    9.4797    3.5771   -4.9694 N   0  3  0  0  0  0  0  0  0  0  0  0
    7.6711    3.0732   -3.2998 C   0  0  1  0  0  0  0  0  0  0  0  0
    7.3840    2.6906   -1.8263 C   0  0  1  0  0  0  0  0  0  0  0  0
    6.0045    2.3623   -1.7537 O   0  0  0  0  0  0  0  0  0  0  0  0
    8.2482    1.5062   -1.2807 C   0  0  2  0  0  0  0  0  0  0  0  0
   10.5986    0.6208   -1.1576 N   0  3  0  0  0  0  0  0  0  0  0  0
    8.4802    6.8606   -4.1785 C   0  0  0  0  0  0  0  0  0  0  0  0
    7.4180    7.9870   -4.1976 C   0  0  2  0  0  0  0  0  0  0  0  0
    7.7666    8.9063   -3.1634 O   0  0  0  0  0  0  0  0  0  0  0  0
    5.9923    7.3677   -3.9419 C   0  0  1  0  0  0  0  0  0  0  0  0
    5.9603    6.3994   -2.7110 C   0  0  2  0  0  0  0  0  0  0  0  0
    7.1538    5.4115   -2.6713 C   0  0  1  0  0  0  0  0  0  0  0  0
    6.9338    4.2981   -3.5767 O   0  0  0  0  0  0  0  0  0  0  0  0
    8.4088    6.0961   -2.9455 O   0  0  0  0  0  0  0  0  0  0  0  0
    4.7456    5.6554   -2.6644 O   0  0  0  0  0  0  0  0  0  0  0  0
    4.9868    8.4634   -3.7779 N   0  3  0  0  0  0  0  0  0  0  0  0
    3.5621    8.0872   -3.8806 C   0  0  0  0  0  0  0  0  0  0  0  0
    7.5253    8.7459   -5.5432 C   0  0  0  0  0  0  0  0  0  0  0  0
  1  8  1  0  0  0  0
  1  9  1  1  0  0  0
  1  2  1  0  0  0  0
  2  3  1  0  0  0  0
  3  5  1  0  0  0  0
  3  4  1  6  0  0  0
  5  7  1  0  0  0  0
  5  6  1  6  0  0  0
  7  8  1  0  0  0  0
  9 10  1  0  0  0  0
 11 12  1  0  0  0  0
 11 18  1  0  0  0  0
 11 19  1  6  0  0  0
 12 13  1  0  0  0  0
 13 15  1  0  0  0  0
 13 14  1  6  0  0  0
 15 16  1  0  0  0  0
 15 26  1  1  0  0  0
 16 18  1  0  0  0  0
 16 17  1  6  0  0  0
 18  4  1  1  0  0  0
 20 21  1  0  0  0  0
 20 27  1  0  0  0  0
 21 31  1  6  0  0  0
 21 23  1  0  0  0  0
 21 22  1  0  0  0  0
 23 24  1  0  0  0  0
 23 29  1  1  0  0  0
 24 25  1  0  0  0  0
 24 28  1  6  0  0  0
 25 27  1  0  0  0  0
 25 26  1  6  0  0  0
 29 30  1  0  0  0  0
M  CHG  5   6   1  10   1  14   1  19   1  29   1
M  END
>  <CHROM.1>
-59.08764781,43.35494816,47.33134902,62.84934691,-34.27835011,173.66961584
79.02358189,-68.44035257,62.31844100,55.78043389,-74.36784395,-75.08074106
-157.44046735,7.57838727,4.49684115,-1.67482225,1.11768621,-0.94952548,2.07261246

>  <Name>
1byj cryst

>  <RI>
0

>  <Rbt.Current_Directory>
/home/itssahil/PROJECTS/Mol_Feturizer/New_Systems/rnas/1byj

>  <Rbt.Executable>
rbdock ($Id: //depot/dev/client3/rdock/2013.1/src/exe/rbdock.cxx#4 $)

>  <Rbt.Library>
libRbt.so (2013.1, Build901 2013/11/27)

>  <Rbt.Parameter_File>
/export/apps/rDock/src/rDock_2013.1_src/data/scripts/dock_solv.prm

>  <Rbt.Receptor>
prm/blind_docking_80.prm

>  <SCORE>
-26.6477

>  <SCORE.INTER>
-31.2287

>  <SCORE.INTER.CONST>
1

>  <SCORE.INTER.POLAR>
-4.74492

>  <SCORE.INTER.ROT>
6

>  <SCORE.INTER.SOLV>
35.6885

>  <SCORE.INTER.VDW>
-24.4989

>  <SCORE.INTER.norm>
-1.00738

>  <SCORE.INTRA>
-3.56066

>  <SCORE.INTRA.DIHEDRAL>
-9.40897

>  <SCORE.INTRA.DIHEDRAL.0>
18.4149

>  <SCORE.INTRA.POLAR>
0

>  <SCORE.INTRA.POLAR.0>
0

>  <SCORE.INTRA.REPUL>
-0.0897982

>  <SCORE.INTRA.REPUL.0>
0.092687

>  <SCORE.INTRA.SOLV>
-0.467483

>  <SCORE.INTRA.SOLV.lig_0>
-120.37

>  <SCORE.INTRA.VDW>
1.82656

>  <SCORE.INTRA.VDW.0>
-1.75542

>  <SCORE.INTRA.norm>
-0.11486

>  <SCORE.RESTR>
8.14161

>  <SCORE.RESTR.CAVITY>
8.14161

>  <SCORE.RESTR.norm>
0.262633

>  <SCORE.SYSTEM>
0

>  <SCORE.SYSTEM.CONST>
0

>  <SCORE.SYSTEM.DIHEDRAL>
0

>  <SCORE.SYSTEM.SOLV>
0

>  <SCORE.SYSTEM.norm>
0

>  <SCORE.heavy>
31

>  <SCORE.norm>
-0.859604

>  <RMSD>
5.762

$$$$
1byj cryst
 OpenBabel11021811383D
libRbt.so/2013.1/901 2013/11/27
 31 33  0  0  0  0  0  0  0  0999 V2000
    6.1035    1.7950    1.4172 C   0  0  1  0  0  0  0  0  0  0  0  0
    6.5683    2.9871    0.7067 O   0  0  0  0  0  0  0  0  0  0  0  0
    8.0039    3.1873    0.5403 C   0  0  2  0  0  0  0  0  0  0  0  0
    8.5779    2.1931   -0.3646 O   0  0  0  0  0  0  0  0  0  0  0  0
    8.6961    3.1389    1.9363 C   0  0  2  0  0  0  0  0  0  0  0  0
   10.1579    3.3326    1.8684 N   0  3  0  0  0  0  0  0  0  0  0  0
    8.3605    1.8043    2.6506 C   0  0  0  0  0  0  0  0  0  0  0  0
    6.8416    1.6102    2.7719 C   0  0  0  0  0  0  0  0  0  0  0  0
    4.5909    1.9112    1.6752 C   0  0  0  0  0  0  0  0  0  0  0  0
    4.1989    3.1500    2.3600 N   0  3  0  0  0  0  0  0  0  0  0  0
    9.9363    2.5184   -2.3942 C   0  0  1  0  0  0  0  0  0  0  0  0
    9.9137    2.8668   -3.9024 C   0  0  0  0  0  0  0  0  0  0  0  0
    9.2005    4.2257   -4.1358 C   0  0  1  0  0  0  0  0  0  0  0  0
    9.2549    4.5823   -5.5664 N   0  3  0  0  0  0  0  0  0  0  0  0
    7.7380    4.1643   -3.6076 C   0  0  1  0  0  0  0  0  0  0  0  0
    7.6843    3.7184   -2.1249 C   0  0  1  0  0  0  0  0  0  0  0  0
    6.3130    3.5339   -1.8062 O   0  0  0  0  0  0  0  0  0  0  0  0
    8.4904    2.4158   -1.8070 C   0  0  2  0  0  0  0  0  0  0  0  0
   10.7041    1.2804   -2.1726 N   0  3  0  0  0  0  0  0  0  0  0  0
    6.5123    7.9910   -5.3082 C   0  0  0  0  0  0  0  0  0  0  0  0
    6.4068    9.1352   -4.2702 C   0  0  2  0  0  0  0  0  0  0  0  0
    7.4300   10.0788   -4.5847 O   0  0  0  0  0  0  0  0  0  0  0  0
    6.6085    8.5495   -2.8219 C   0  0  1  0  0  0  0  0  0  0  0  0
    7.8640    7.6193   -2.7100 C   0  0  2  0  0  0  0  0  0  0  0  0
    7.9925    6.6119   -3.8806 C   0  0  1  0  0  0  0  0  0  0  0  0
    7.1100    5.4759   -3.6844 O   0  0  0  0  0  0  0  0  0  0  0  0
    7.7619    7.2654   -5.1607 O   0  0  0  0  0  0  0  0  0  0  0  0
    7.8711    6.8990   -1.4803 O   0  0  0  0  0  0  0  0  0  0  0  0
    6.6896    9.6674   -1.8309 N   0  3  0  0  0  0  0  0  0  0  0  0
    6.8813    9.2953   -0.4143 C   0  0  0  0  0  0  0  0  0  0  0  0
    5.0467    9.8511   -4.4591 C   0  0  0  0  0  0  0  0  0  0  0  0
  1  8  1  0  0  0  0
  1  9  1  1  0  0  0
  1  2  1  0  0  0  0
  2  3  1  0  0  0  0
  3  5  1  0  0  0  0
  3  4  1  6  0  0  0
  5  7  1  0  0  0  0
  5  6  1  6  0  0  0
  7  8  1  0  0  0  0
  9 10  1  0  0  0  0
 11 12  1  0  0  0  0
 11 18  1  0  0  0  0
 11 19  1  6  0  0  0
 12 13  1  0  0  0  0
 13 15  1  0  0  0  0
 13 14  1  6  0  0  0
 15 16  1  0  0  0  0
 15 26  1  1  0  0  0
 16 18  1  0  0  0  0
 16 17  1  6  0  0  0
 18  4  1  1  0  0  0
 20 21  1  0  0  0  0
 20 27  1  0  0  0  0
 21 31  1  6  0  0  0
 21 23  1  0  0  0  0
 21 22  1  0  0  0  0
 23 24  1  0  0  0  0
 23 29  1  1  0  0  0
 24 25  1  0  0  0  0
 24 28  1  1  0  0  0
 25 27  1  0  0  0  0
 25 26  1  1  0  0  0
 29 30  1  0  0  0  0
M  CHG  5   6   1  10   1  14   1  19   1  29   1
M  END
>  <CHROM.1>
-53.75444281,82.86501246,118.39576930,82.60164066,-177.64807763,-176.45520932
-151.76514008,-15.34035615,178.44312488,-68.21436997,-58.84293898,62.78283894
-120.31202088,7.59992951,4.94890712,-1.68911262,1.46273224,-0.89876701,2.36623303

>  <Name>
1byj cryst

>  <RI>
0

>  <Rbt.Current_Directory>
/home/itssahil/PROJECTS/Mol_Feturizer/New_Systems/rnas/1byj

>  <Rbt.Executable>
rbdock ($Id: //depot/dev/client3/rdock/2013.1/src/exe/rbdock.cxx#4 $)

>  <Rbt.Library>
libRbt.so (2013.1, Build901 2013/11/27)

>  <Rbt.Parameter_File>
/export/apps/rDock/src/rDock_2013.1_src/data/scripts/dock_solv.prm

>  <Rbt.Receptor>
prm/blind_docking_60.prm

>  <SCORE>
-16.8075

>  <SCORE.INTER>
-26.3307

>  <SCORE.INTER.CONST>
1

>  <SCORE.INTER.POLAR>
-4.12732

>  <SCORE.INTER.ROT>
6

>  <SCORE.INTER.SOLV>
28.7273

>  <SCORE.INTER.VDW>
-20.9718

>  <SCORE.INTER.norm>
-0.849378

>  <SCORE.INTRA>
3.14158

>  <SCORE.INTRA.DIHEDRAL>
7.82946

>  <SCORE.INTRA.DIHEDRAL.0>
18.4149

>  <SCORE.INTRA.POLAR>
-1.509

>  <SCORE.INTRA.POLAR.0>
0

>  <SCORE.INTRA.REPUL>
-0.092687

>  <SCORE.INTRA.REPUL.0>
0.092687

>  <SCORE.INTRA.SOLV>
0.0362222

>  <SCORE.INTRA.SOLV.lig_0>
-120.37

>  <SCORE.INTRA.VDW>
4.80276

>  <SCORE.INTRA.VDW.0>
-1.75542

>  <SCORE.INTRA.norm>
0.101341

>  <SCORE.RESTR>
6.38163

>  <SCORE.RESTR.CAVITY>
6.38163

>  <SCORE.RESTR.norm>
0.205859

>  <SCORE.SYSTEM>
0

>  <SCORE.SYSTEM.CONST>
0

>  <SCORE.SYSTEM.DIHEDRAL>
0

>  <SCORE.SYSTEM.SOLV>
0

>  <SCORE.SYSTEM.norm>
0

>  <SCORE.heavy>
31

>  <SCORE.norm>
-0.542178

>  <RMSD>
5.776

$$$$
1byj cryst
 OpenBabel11021811383D
libRbt.so/2013.1/901 2013/11/27
 31 33  0  0  0  0  0  0  0  0999 V2000
    5.9644    1.8610    1.7185 C   0  0  1  0  0  0  0  0  0  0  0  0
    6.5413    2.9654    0.9506 O   0  0  0  0  0  0  0  0  0  0  0  0
    7.9862    3.1638    0.9879 C   0  0  2  0  0  0  0  0  0  0  0  0
    8.6898    2.0760    0.3109 O   0  0  0  0  0  0  0  0  0  0  0  0
    8.4504    3.2931    2.4706 C   0  0  2  0  0  0  0  0  0  0  0  0
    9.9058    3.4973    2.6094 N   0  3  0  0  0  0  0  0  0  0  0  0
    7.9997    2.0496    3.2796 C   0  0  0  0  0  0  0  0  0  0  0  0
    6.4796    1.8506    3.1842 C   0  0  0  0  0  0  0  0  0  0  0  0
    4.4306    1.9866    1.7207 C   0  0  0  0  0  0  0  0  0  0  0  0
    3.7298    0.7054    1.5641 N   0  3  0  0  0  0  0  0  0  0  0  0
   10.1804    2.4240   -1.6197 C   0  0  1  0  0  0  0  0  0  0  0  0
   10.2663    2.5380   -3.1612 C   0  0  0  0  0  0  0  0  0  0  0  0
    9.3026    3.6392   -3.6793 C   0  0  1  0  0  0  0  0  0  0  0  0
    9.4514    3.7907   -5.1394 N   0  3  0  0  0  0  0  0  0  0  0  0
    7.8369    3.3057   -3.2764 C   0  0  1  0  0  0  0  0  0  0  0  0
    7.7022    3.0761   -1.7502 C   0  0  1  0  0  0  0  0  0  0  0  0
    6.3779    2.6163   -1.5245 O   0  0  0  0  0  0  0  0  0  0  0  0
    8.7327    2.0633   -1.1505 C   0  0  2  0  0  0  0  0  0  0  0  0
   11.1715    1.4502   -1.1287 N   0  3  0  0  0  0  0  0  0  0  0  0
    8.5603    6.9825   -3.8884 C   0  0  0  0  0  0  0  0  0  0  0  0
    7.5207    8.0888   -4.1934 C   0  0  2  0  0  0  0  0  0  0  0  0
    7.5927    9.0339   -3.1267 O   0  0  0  0  0  0  0  0  0  0  0  0
    6.0841    7.4486   -4.2809 C   0  0  1  0  0  0  0  0  0  0  0  0
    5.7634    6.5035   -3.0734 C   0  0  2  0  0  0  0  0  0  0  0  0
    6.9234    5.5385   -2.7196 C   0  0  1  0  0  0  0  0  0  0  0  0
    6.9470    4.4042   -3.6254 O   0  0  0  0  0  0  0  0  0  0  0  0
    8.1982    6.2405   -2.6933 O   0  0  0  0  0  0  0  0  0  0  0  0
    4.5843    5.7385   -3.3090 O   0  0  0  0  0  0  0  0  0  0  0  0
    5.0550    8.5287   -4.3937 N   0  3  0  0  0  0  0  0  0  0  0  0
    4.4646    9.0267   -3.1346 C   0  0  0  0  0  0  0  0  0  0  0  0
    7.9453    8.8236   -5.4887 C   0  0  0  0  0  0  0  0  0  0  0  0
  1  8  1  0  0  0  0
  1  9  1  1  0  0  0
  1  2  1  0  0  0  0
  2  3  1  0  0  0  0
  3  5  1  0  0  0  0
  3  4  1  1  0  0  0
  5  7  1  0  0  0  0
  5  6  1  6  0  0  0
  7  8  1  0  0  0  0
  9 10  1  0  0  0  0
 11 12  1  0  0  0  0
 11 18  1  0  0  0  0
 11 19  1  6  0  0  0
 12 13  1  0  0  0  0
 13 15  1  0  0  0  0
 13 14  1  6  0  0  0
 15 16  1  0  0  0  0
 15 26  1  1  0  0  0
 16 18  1  0  0  0  0
 16 17  1  6  0  0  0
 18  4  1  1  0  0  0
 20 21  1  0  0  0  0
 20 27  1  0  0  0  0
 21 31  1  6  0  0  0
 21 23  1  0  0  0  0
 21 22  1  0  0  0  0
 23 24  1  0  0  0  0
 23 29  1  1  0  0  0
 24 25  1  0  0  0  0
 24 28  1  6  0  0  0
 25 27  1  0  0  0  0
 25 26  1  6  0  0  0
 29 30  1  0  0  0  0
M  CHG  5   6   1  10   1  14   1  19   1  29   1
M  END
>  <CHROM.1>
139.51018525,77.71462033,107.99425014,-78.94321965,173.76264122,-75.90065323
97.77628730,-79.74572936,66.93970015,59.46669224,29.25751937,-168.32239806
-169.90148897,7.43399008,4.34442226,-1.54175646,1.48422139,-0.45527612,2.31034451

>  <Name>
1byj cryst

>  <RI>
0

>  <Rbt.Current_Directory>
/home/itssahil/PROJECTS/Mol_Feturizer/New_Systems/rnas/1byj

>  <Rbt.Executable>
rbdock ($Id: //depot/dev/client3/rdock/2013.1/src/exe/rbdock.cxx#4 $)

>  <Rbt.Library>
libRbt.so (2013.1, Build901 2013/11/27)

>  <Rbt.Parameter_File>
/export/apps/rDock/src/rDock_2013.1_src/data/scripts/dock_solv.prm

>  <Rbt.Receptor>
prm/blind_docking_60.prm

>  <SCORE>
-22.5721

>  <SCORE.INTER>
-32.1581

>  <SCORE.INTER.CONST>
1

>  <SCORE.INTER.POLAR>
-6.12144

>  <SCORE.INTER.ROT>
6

>  <SCORE.INTER.SOLV>
34.8924

>  <SCORE.INTER.VDW>
-20.2647

>  <SCORE.INTER.norm>
-1.03736

>  <SCORE.INTRA>
3.34945

>  <SCORE.INTRA.DIHEDRAL>
2.96169

>  <SCORE.INTRA.DIHEDRAL.0>
18.4149

>  <SCORE.INTRA.POLAR>
0

>  <SCORE.INTRA.POLAR.0>
0

>  <SCORE.INTRA.REPUL>
-0.092687

>  <SCORE.INTRA.REPUL.0>
0.092687

>  <SCORE.INTRA.SOLV>
-4.1035

>  <SCORE.INTRA.SOLV.lig_0>
-120.37

>  <SCORE.INTRA.VDW>
4.38379

>  <SCORE.INTRA.VDW.0>
-1.75542

>  <SCORE.INTRA.norm>
0.108047

>  <SCORE.RESTR>
6.23659

>  <SCORE.RESTR.CAVITY>
6.23659

>  <SCORE.RESTR.norm>
0.20118

>  <SCORE.SYSTEM>
0

>  <SCORE.SYSTEM.CONST>
0

>  <SCORE.SYSTEM.DIHEDRAL>
0

>  <SCORE.SYSTEM.SOLV>
0

>  <SCORE.SYSTEM.norm>
0

>  <SCORE.heavy>
31

>  <SCORE.norm>
-0.728131

>  <RMSD>
5.777

$$$$
1byj cryst
 OpenBabel11021811383D
libRbt.so/2013.1/901 2013/11/27
 31 33  0  0  0  0  0  0  0  0999 V2000
    6.4827    0.9189    0.2224 C   0  0  1  0  0  0  0  0  0  0  0  0
    6.6668    2.3612    0.0545 O   0  0  0  0  0  0  0  0  0  0  0  0
    7.9681    2.9416    0.3679 C   0  0  2  0  0  0  0  0  0  0  0  0
    8.9869    2.5093   -0.5871 O   0  0  0  0  0  0  0  0  0  0  0  0
    8.3672    2.5556    1.8246 C   0  0  2  0  0  0  0  0  0  0  0  0
    9.6767    3.1006    2.2335 N   0  3  0  0  0  0  0  0  0  0  0  0
    8.3478    1.0141    1.9908 C   0  0  0  0  0  0  0  0  0  0  0  0
    6.9755    0.4358    1.6144 C   0  0  0  0  0  0  0  0  0  0  0  0
    4.9918    0.5723    0.0636 C   0  0  0  0  0  0  0  0  0  0  0  0
    4.1596    0.9960    1.1973 N   0  3  0  0  0  0  0  0  0  0  0  0
   10.1233    2.7781   -2.7566 C   0  0  1  0  0  0  0  0  0  0  0  0
    9.9437    3.1027   -4.2596 C   0  0  0  0  0  0  0  0  0  0  0  0
    9.2312    4.4702   -4.4389 C   0  0  1  0  0  0  0  0  0  0  0  0
    9.1366    4.8030   -5.8732 N   0  3  0  0  0  0  0  0  0  0  0  0
    7.8335    4.4433   -3.7554 C   0  0  1  0  0  0  0  0  0  0  0  0
    7.9330    4.0220   -2.2678 C   0  0  1  0  0  0  0  0  0  0  0  0
    6.6014    3.8671   -1.8001 O   0  0  0  0  0  0  0  0  0  0  0  0
    8.7478    2.7106   -2.0155 C   0  0  2  0  0  0  0  0  0  0  0  0
   10.8907    1.5303   -2.5970 N   0  3  0  0  0  0  0  0  0  0  0  0
    6.8242    8.3210   -5.4079 C   0  0  0  0  0  0  0  0  0  0  0  0
    6.6008    9.4404   -4.3617 C   0  0  2  0  0  0  0  0  0  0  0  0
    7.6560   10.3859   -4.5312 O   0  0  0  0  0  0  0  0  0  0  0  0
    6.6302    8.8190   -2.9145 C   0  0  1  0  0  0  0  0  0  0  0  0
    7.8618    7.8799   -2.6793 C   0  0  2  0  0  0  0  0  0  0  0  0
    8.1239    6.9002   -3.8512 C   0  0  1  0  0  0  0  0  0  0  0  0
    7.2219    5.7645   -3.7874 O   0  0  0  0  0  0  0  0  0  0  0  0
    8.0463    7.5854   -5.1331 O   0  0  0  0  0  0  0  0  0  0  0  0
    7.7232    7.1301   -1.4752 O   0  0  0  0  0  0  0  0  0  0  0  0
    6.5976    9.9124   -1.8937 N   0  3  0  0  0  0  0  0  0  0  0  0
    7.8529   10.6577   -1.6689 C   0  0  0  0  0  0  0  0  0  0  0  0
    5.2739   10.1677   -4.6906 C   0  0  0  0  0  0  0  0  0  0  0  0
  1  8  1  0  0  0  0
  1  9  1  1  0  0  0
  1  2  1  0  0  0  0
  2  3  1  0  0  0  0
  3  5  1  0  0  0  0
  3  4  1  6  0  0  0
  5  7  1  0  0  0  0
  5  6  1  6  0  0  0
  7  8  1  0  0  0  0
  9 10  1  0  0  0  0
 11 12  1  0  0  0  0
 11 18  1  0  0  0  0
 11 19  1  6  0  0  0
 12 13  1  0  0  0  0
 13 15  1  0  0  0  0
 13 14  1  6  0  0  0
 15 16  1  0  0  0  0
 15 26  1  1  0  0  0
 16 18  1  0  0  0  0
 16 17  1  6  0  0  0
 18  4  1  1  0  0  0
 20 21  1  0  0  0  0
 20 27  1  0  0  0  0
 21 31  1  6  0  0  0
 21 23  1  0  0  0  0
 21 22  1  0  0  0  0
 23 24  1  0  0  0  0
 23 29  1  1  0  0  0
 24 25  1  0  0  0  0
 24 28  1  1  0  0  0
 25 27  1  0  0  0  0
 25 26  1  6  0  0  0
 29 30  1  0  0  0  0
M  CHG  5   6   1  10   1  14   1  19   1  29   1
M  END
>  <CHROM.1>
-72.55691241,54.22159925,155.39606016,-33.09531391,-62.26216135,-64.16051844
-152.71170532,-26.34423989,-54.08576404,57.86740443,44.65221513,63.41812336
-124.08797093,7.71896551,4.92361879,-2.02945610,1.50988650,-0.90986665,2.54892091

>  <Name>
1byj cryst

>  <RI>
0

>  <Rbt.Current_Directory>
/home/itssahil/PROJECTS/Mol_Feturizer/New_Systems/rnas/1byj

>  <Rbt.Executable>
rbdock ($Id: //depot/dev/client3/rdock/2013.1/src/exe/rbdock.cxx#4 $)

>  <Rbt.Library>
libRbt.so (2013.1, Build901 2013/11/27)

>  <Rbt.Parameter_File>
/export/apps/rDock/src/rDock_2013.1_src/data/scripts/dock_solv.prm

>  <Rbt.Receptor>
prm/blind_docking_60.prm

>  <SCORE>
-11.3427

>  <SCORE.INTER>
-18.9156

>  <SCORE.INTER.CONST>
1

>  <SCORE.INTER.POLAR>
-4.32708

>  <SCORE.INTER.ROT>
6

>  <SCORE.INTER.SOLV>
29.6926

>  <SCORE.INTER.VDW>
-15.6843

>  <SCORE.INTER.norm>
-0.610181

>  <SCORE.INTRA>
2.44744

>  <SCORE.INTRA.DIHEDRAL>
0.508537

>  <SCORE.INTRA.DIHEDRAL.0>
18.4149

>  <SCORE.INTRA.POLAR>
-0.728522

>  <SCORE.INTRA.POLAR.0>
0

>  <SCORE.INTRA.REPUL>
0.111146

>  <SCORE.INTRA.REPUL.0>
0.092687

>  <SCORE.INTRA.SOLV>
-1.94546

>  <SCORE.INTRA.SOLV.lig_0>
-120.37

>  <SCORE.INTRA.VDW>
5.08715

>  <SCORE.INTRA.VDW.0>
-1.75542

>  <SCORE.INTRA.norm>
0.0789497

>  <SCORE.RESTR>
5.1255

>  <SCORE.RESTR.CAVITY>
5.1255

>  <SCORE.RESTR.norm>
0.165339

>  <SCORE.SYSTEM>
0

>  <SCORE.SYSTEM.CONST>
0

>  <SCORE.SYSTEM.DIHEDRAL>
0

>  <SCORE.SYSTEM.SOLV>
0

>  <SCORE.SYSTEM.norm>
0

>  <SCORE.heavy>
31

>  <SCORE.norm>
-0.365893

>  <RMSD>
5.777

$$$$
1byj cryst
 OpenBabel11021811383D
libRbt.so/2013.1/901 2013/11/27
 31 33  0  0  0  0  0  0  0  0999 V2000
    5.9750    1.6261    0.8798 C   0  0  1  0  0  0  0  0  0  0  0  0
    6.3523    2.9272    0.3259 O   0  0  0  0  0  0  0  0  0  0  0  0
    7.7680    3.2717    0.2505 C   0  0  2  0  0  0  0  0  0  0  0  0
    8.4659    2.4407   -0.7289 O   0  0  0  0  0  0  0  0  0  0  0  0
    8.4092    3.1281    1.6642 C   0  0  2  0  0  0  0  0  0  0  0  0
    9.8480    3.4575    1.6872 N   0  3  0  0  0  0  0  0  0  0  0  0
    8.1737    1.6971    2.2125 C   0  0  0  0  0  0  0  0  0  0  0  0
    6.6761    1.3562    2.2397 C   0  0  0  0  0  0  0  0  0  0  0  0
    4.4496    1.5775    1.0768 C   0  0  0  0  0  0  0  0  0  0  0  0
    3.9206    0.2232    1.2844 N   0  3  0  0  0  0  0  0  0  0  0  0
    9.6578    2.3535   -2.8834 C   0  0  1  0  0  0  0  0  0  0  0  0
    9.6330    2.7734   -4.3733 C   0  0  0  0  0  0  0  0  0  0  0  0
    9.4688    4.3117   -4.5017 C   0  0  1  0  0  0  0  0  0  0  0  0
    9.5250    4.7059   -5.9224 N   0  3  0  0  0  0  0  0  0  0  0  0
    8.1457    4.7708   -3.8235 C   0  0  1  0  0  0  0  0  0  0  0  0
    8.0610    4.2906   -2.3529 C   0  0  1  0  0  0  0  0  0  0  0  0
    6.7565    4.6141   -1.8950 O   0  0  0  0  0  0  0  0  0  0  0  0
    8.3397    2.7648   -2.1490 C   0  0  2  0  0  0  0  0  0  0  0  0
    9.9170    0.9073   -2.7699 N   0  3  0  0  0  0  0  0  0  0  0  0
    7.2930    8.2371   -1.6416 C   0  0  0  0  0  0  0  0  0  0  0  0
    6.9680    9.5494   -2.3966 C   0  0  2  0  0  0  0  0  0  0  0  0
    5.6038    9.8629   -2.1193 O   0  0  0  0  0  0  0  0  0  0  0  0
    7.1927    9.3352   -3.9410 C   0  0  1  0  0  0  0  0  0  0  0  0
    6.5111    8.0324   -4.4812 C   0  0  2  0  0  0  0  0  0  0  0  0
    6.7410    6.7947   -3.5771 C   0  0  1  0  0  0  0  0  0  0  0  0
    8.0562    6.2242   -3.8063 O   0  0  0  0  0  0  0  0  0  0  0  0
    6.5274    7.1240   -2.1754 O   0  0  0  0  0  0  0  0  0  0  0  0
    6.9483    7.7246   -5.8023 O   0  0  0  0  0  0  0  0  0  0  0  0
    6.7097   10.5347   -4.6935 N   0  3  0  0  0  0  0  0  0  0  0  0
    7.4355   10.8874   -5.9307 C   0  0  0  0  0  0  0  0  0  0  0  0
    7.8320   10.6891   -1.8027 C   0  0  0  0  0  0  0  0  0  0  0  0
  1  8  1  0  0  0  0
  1  9  1  1  0  0  0
  1  2  1  0  0  0  0
  2  3  1  0  0  0  0
  3  5  1  0  0  0  0
  3  4  1  6  0  0  0
  5  7  1  0  0  0  0
  5  6  1  6  0  0  0
  7  8  1  0  0  0  0
  9 10  1  0  0  0  0
 11 12  1  0  0  0  0
 11 18  1  0  0  0  0
 11 19  1  6  0  0  0
 12 13  1  0  0  0  0
 13 15  1  0  0  0  0
 13 14  1  6  0  0  0
 15 16  1  0  0  0  0
 15 26  1  1  0  0  0
 16 18  1  0  0  0  0
 16 17  1  6  0  0  0
 18  4  1  1  0  0  0
 20 21  1  0  0  0  0
 20 27  1  0  0  0  0
 21 31  1  1  0  0  0
 21 23  1  0  0  0  0
 21 22  1  0  0  0  0
 23 24  1  0  0  0  0
 23 29  1  6  0  0  0
 24 25  1  0  0  0  0
 24 28  1  6  0  0  0
 25 27  1  0  0  0  0
 25 26  1  1  0  0  0
 29 30  1  0  0  0  0
M  CHG  5   6   1  10   1  14   1  19   1  29   1
M  END
>  <CHROM.1>
164.62303129,78.89581444,148.96962279,-21.52709067,-174.53973921,62.80654758
-160.11903792,162.36494325,-78.39737780,-55.52712654,-91.66796965,70.59563453
-139.96957906,7.51598247,5.10680018,-2.02017467,1.56478220,-0.95883977,2.56740026

>  <Name>
1byj cryst

>  <RI>
0

>  <Rbt.Current_Directory>
/home/itssahil/PROJECTS/Mol_Feturizer/New_Systems/rnas/1byj

>  <Rbt.Executable>
rbdock ($Id: //depot/dev/client3/rdock/2013.1/src/exe/rbdock.cxx#4 $)

>  <Rbt.Library>
libRbt.so (2013.1, Build901 2013/11/27)

>  <Rbt.Parameter_File>
/export/apps/rDock/src/rDock_2013.1_src/data/scripts/dock_solv.prm

>  <Rbt.Receptor>
prm/blind_docking_60.prm

>  <SCORE>
-16.7859

>  <SCORE.INTER>
-20.8982

>  <SCORE.INTER.CONST>
1

>  <SCORE.INTER.POLAR>
-4.22479

>  <SCORE.INTER.ROT>
6

>  <SCORE.INTER.SOLV>
32.5652

>  <SCORE.INTER.VDW>
-18.3046

>  <SCORE.INTER.norm>
-0.674137

>  <SCORE.INTRA>
-1.96383

>  <SCORE.INTRA.DIHEDRAL>
2.66945

>  <SCORE.INTRA.DIHEDRAL.0>
18.4149

>  <SCORE.INTRA.POLAR>
-1.031

>  <SCORE.INTRA.POLAR.0>
0

>  <SCORE.INTRA.REPUL>
-0.089113

>  <SCORE.INTRA.REPUL.0>
0.092687

>  <SCORE.INTRA.SOLV>
-3.75269

>  <SCORE.INTRA.SOLV.lig_0>
-120.37

>  <SCORE.INTRA.VDW>
2.52875

>  <SCORE.INTRA.VDW.0>
-1.75542

>  <SCORE.INTRA.norm>
-0.0633493

>  <SCORE.RESTR>
6.07612

>  <SCORE.RESTR.CAVITY>
6.07612

>  <SCORE.RESTR.norm>
0.196004

>  <SCORE.SYSTEM>
0

>  <SCORE.SYSTEM.CONST>
0

>  <SCORE.SYSTEM.DIHEDRAL>
0

>  <SCORE.SYSTEM.SOLV>
0

>  <SCORE.SYSTEM.norm>
0

>  <SCORE.heavy>
31

>  <SCORE.norm>
-0.541482

>  <RMSD>
5.796

$$$$
1byj cryst
 OpenBabel11021811383D
libRbt.so/2013.1/901 2013/11/27
 31 33  0  0  0  0  0  0  0  0999 V2000
    6.0936    1.8192    1.2837 C   0  0  1  0  0  0  0  0  0  0  0  0
    6.6164    3.0070    0.6071 O   0  0  0  0  0  0  0  0  0  0  0  0
    8.0587    3.1303    0.4243 C   0  0  2  0  0  0  0  0  0  0  0  0
    8.5612    2.1373   -0.5234 O   0  0  0  0  0  0  0  0  0  0  0  0
    8.7667    2.9930    1.8064 C   0  0  2  0  0  0  0  0  0  0  0  0
   10.2362    3.1048    1.7215 N   0  3  0  0  0  0  0  0  0  0  0  0
    8.3647    1.6555    2.4797 C   0  0  0  0  0  0  0  0  0  0  0  0
    6.8389    1.5446    2.6189 C   0  0  0  0  0  0  0  0  0  0  0  0
    4.5941    2.0128    1.5701 C   0  0  0  0  0  0  0  0  0  0  0  0
    4.2977    3.1681    2.4272 N   0  3  0  0  0  0  0  0  0  0  0  0
    9.9178    2.5344   -2.5414 C   0  0  1  0  0  0  0  0  0  0  0  0
    9.8947    2.9433   -4.0344 C   0  0  0  0  0  0  0  0  0  0  0  0
    9.1908    4.3155   -4.2113 C   0  0  1  0  0  0  0  0  0  0  0  0
    9.2448    4.7290   -5.6266 N   0  3  0  0  0  0  0  0  0  0  0  0
    7.7289    4.2433   -3.6827 C   0  0  1  0  0  0  0  0  0  0  0  0
    7.6750    3.7385   -2.2190 C   0  0  1  0  0  0  0  0  0  0  0  0
    6.3031    3.5510   -1.9048 O   0  0  0  0  0  0  0  0  0  0  0  0
    8.4724    2.4185   -1.9555 C   0  0  2  0  0  0  0  0  0  0  0  0
   10.6772    1.2831   -2.3715 N   0  3  0  0  0  0  0  0  0  0  0  0
    6.6506    8.1030   -5.3327 C   0  0  0  0  0  0  0  0  0  0  0  0
    6.4537    9.2296   -4.2889 C   0  0  2  0  0  0  0  0  0  0  0  0
    7.4985   10.1787   -4.4979 O   0  0  0  0  0  0  0  0  0  0  0  0
    6.5302    8.6198   -2.8385 C   0  0  1  0  0  0  0  0  0  0  0  0
    7.7731    7.6884   -2.6337 C   0  0  2  0  0  0  0  0  0  0  0  0
    8.0042    6.7007   -3.8054 C   0  0  1  0  0  0  0  0  0  0  0  0
    7.1102    5.5613   -3.7053 O   0  0  0  0  0  0  0  0  0  0  0  0
    7.8841    7.3754   -5.0897 O   0  0  0  0  0  0  0  0  0  0  0  0
    7.6750    6.9476   -1.4202 O   0  0  0  0  0  0  0  0  0  0  0  0
    6.5233    9.7211   -1.8258 N   0  3  0  0  0  0  0  0  0  0  0  0
    7.7770   10.4834   -1.6554 C   0  0  0  0  0  0  0  0  0  0  0  0
    5.1137    9.9480   -4.5829 C   0  0  0  0  0  0  0  0  0  0  0  0
  1  8  1  0  0  0  0
  1  9  1  1  0  0  0
  1  2  1  0  0  0  0
  2  3  1  0  0  0  0
  3  5  1  0  0  0  0
  3  4  1  6  0  0  0
  5  7  1  0  0  0  0
  5  6  1  6  0  0  0
  7  8  1  0  0  0  0
  9 10  1  0  0  0  0
 11 12  1  0  0  0  0
 11 18  1  0  0  0  0
 11 19  1  6  0  0  0
 12 13  1  0  0  0  0
 13 15  1  0  0  0  0
 13 14  1  6  0  0  0
 15 16  1  0  0  0  0
 15 26  1  1  0  0  0
 16 18  1  0  0  0  0
 16 17  1  6  0  0  0
 18  4  1  1  0  0  0
 20 21  1  0  0  0  0
 20 27  1  0  0  0  0
 21 31  1  6  0  0  0
 21 23  1  0  0  0  0
 21 22  1  0  0  0  0
 23 24  1  0  0  0  0
 23 29  1  1  0  0  0
 24 25  1  0  0  0  0
 24 28  1  1  0  0  0
 25 27  1  0  0  0  0
 25 26  1  6  0  0  0
 29 30  1  0  0  0  0
M  CHG  5   6   1  10   1  14   1  19   1  29   1
M  END
>  <CHROM.1>
-60.04965085,83.17389032,115.24997921,69.86685776,175.82529875,-176.75077555
-35.52866143,-17.65759998,178.58360874,-61.46804901,45.28295476,61.83567202
-124.13316519,7.63164328,5.01282212,-1.79129063,1.46858241,-0.90311254,2.41158960

>  <Name>
1byj cryst

>  <RI>
0

>  <Rbt.Current_Directory>
/home/itssahil/PROJECTS/Mol_Feturizer/New_Systems/rnas/1byj

>  <Rbt.Executable>
rbdock ($Id: //depot/dev/client3/rdock/2013.1/src/exe/rbdock.cxx#4 $)

>  <Rbt.Library>
libRbt.so (2013.1, Build901 2013/11/27)

>  <Rbt.Parameter_File>
/export/apps/rDock/src/rDock_2013.1_src/data/scripts/dock_solv.prm

>  <Rbt.Receptor>
prm/blind_docking_60.prm

>  <SCORE>
-18.3197

>  <SCORE.INTER>
-25.096

>  <SCORE.INTER.CONST>
1

>  <SCORE.INTER.POLAR>
-3.93554

>  <SCORE.INTER.ROT>
6

>  <SCORE.INTER.SOLV>
29.3293

>  <SCORE.INTER.VDW>
-20.9886

>  <SCORE.INTER.norm>
-0.809548

>  <SCORE.INTRA>
0.118612

>  <SCORE.INTRA.DIHEDRAL>
6.33437

>  <SCORE.INTRA.DIHEDRAL.0>
18.4149

>  <SCORE.INTRA.POLAR>
-1.91121

>  <SCORE.INTRA.POLAR.0>
0

>  <SCORE.INTRA.REPUL>
-0.092687

>  <SCORE.INTRA.REPUL.0>
0.092687

>  <SCORE.INTRA.SOLV>
-0.955719

>  <SCORE.INTRA.SOLV.lig_0>
-120.37

>  <SCORE.INTRA.VDW>
4.39084

>  <SCORE.INTRA.VDW.0>
-1.75542

>  <SCORE.INTRA.norm>
0.0038262

>  <SCORE.RESTR>
6.65773

>  <SCORE.RESTR.CAVITY>
6.65773

>  <SCORE.RESTR.norm>
0.214766

>  <SCORE.SYSTEM>
0

>  <SCORE.SYSTEM.CONST>
0

>  <SCORE.SYSTEM.DIHEDRAL>
0

>  <SCORE.SYSTEM.SOLV>
0

>  <SCORE.SYSTEM.norm>
0

>  <SCORE.heavy>
31

>  <SCORE.norm>
-0.590957

>  <RMSD>
5.814

$$$$
1byj cryst
 OpenBabel11021811383D
libRbt.so/2013.1/901 2013/11/27
 31 33  0  0  0  0  0  0  0  0999 V2000
    7.1467    2.0589    3.2681 C   0  0  1  0  0  0  0  0  0  0  0  0
    7.7626    1.1258    2.3236 O   0  0  0  0  0  0  0  0  0  0  0  0
    7.3847    1.2031    0.9165 C   0  0  2  0  0  0  0  0  0  0  0  0
    7.8684    2.4387    0.3032 O   0  0  0  0  0  0  0  0  0  0  0  0
    5.8351    1.0863    0.7921 C   0  0  2  0  0  0  0  0  0  0  0  0
    5.3560    1.1545   -0.6024 N   0  3  0  0  0  0  0  0  0  0  0  0
    5.1484    2.1775    1.6534 C   0  0  0  0  0  0  0  0  0  0  0  0
    5.6006    2.0896    3.1187 C   0  0  0  0  0  0  0  0  0  0  0  0
    7.5095    1.6449    4.7052 C   0  0  0  0  0  0  0  0  0  0  0  0
    8.9546    1.5385    4.9455 N   0  3  0  0  0  0  0  0  0  0  0  0
    9.1663    1.8860   -1.7168 C   0  0  1  0  0  0  0  0  0  0  0  0
    9.2820    2.0709   -3.2494 C   0  0  0  0  0  0  0  0  0  0  0  0
    9.3165    3.5795   -3.6138 C   0  0  1  0  0  0  0  0  0  0  0  0
    9.5051    3.7408   -5.0682 N   0  3  0  0  0  0  0  0  0  0  0  0
    8.0220    4.2842   -3.1142 C   0  0  1  0  0  0  0  0  0  0  0  0
    7.7917    4.0494   -1.6003 C   0  0  1  0  0  0  0  0  0  0  0  0
    6.5121    4.5848   -1.2968 O   0  0  0  0  0  0  0  0  0  0  0  0
    7.8676    2.5518   -1.1545 C   0  0  2  0  0  0  0  0  0  0  0  0
    9.2382    0.4548   -1.3733 N   0  3  0  0  0  0  0  0  0  0  0  0
    5.3899    7.1062   -3.2784 C   0  0  0  0  0  0  0  0  0  0  0  0
    5.6760    8.5868   -3.6297 C   0  0  2  0  0  0  0  0  0  0  0  0
    4.9694    8.8730   -4.8359 O   0  0  0  0  0  0  0  0  0  0  0  0
    7.2259    8.7895   -3.8247 C   0  0  1  0  0  0  0  0  0  0  0  0
    7.8679    7.7129   -4.7643 C   0  0  2  0  0  0  0  0  0  0  0  0
    7.3988    6.2678   -4.4585 C   0  0  1  0  0  0  0  0  0  0  0  0
    8.1114    5.7235   -3.3167 O   0  0  0  0  0  0  0  0  0  0  0  0
    5.9557    6.2140   -4.2753 O   0  0  0  0  0  0  0  0  0  0  0  0
    9.2914    7.7556   -4.7099 O   0  0  0  0  0  0  0  0  0  0  0  0
    7.4949   10.1679   -4.3403 N   0  3  0  0  0  0  0  0  0  0  0  0
    7.3557   10.3787   -5.7957 C   0  0  0  0  0  0  0  0  0  0  0  0
    5.0744    9.4840   -2.5201 C   0  0  0  0  0  0  0  0  0  0  0  0
  1  8  1  0  0  0  0
  1  9  1  1  0  0  0
  1  2  1  0  0  0  0
  2  3  1  0  0  0  0
  3  5  1  0  0  0  0
  3  4  1  1  0  0  0
  5  7  1  0  0  0  0
  5  6  1  6  0  0  0
  7  8  1  0  0  0  0
  9 10  1  0  0  0  0
 11 12  1  0  0  0  0
 11 18  1  0  0  0  0
 11 19  1  6  0  0  0
 12 13  1  0  0  0  0
 13 15  1  0  0  0  0
 13 14  1  6  0  0  0
 15 16  1  0  0  0  0
 15 26  1  1  0  0  0
 16 18  1  0  0  0  0
 16 17  1  6  0  0  0
 18  4  1  1  0  0  0
 20 21  1  0  0  0  0
 20 27  1  0  0  0  0
 21 31  1  1  0  0  0
 21 23  1  0  0  0  0
 21 22  1  0  0  0  0
 23 24  1  0  0  0  0
 23 29  1  6  0  0  0
 24 25  1  0  0  0  0
 24 28  1  1  0  0  0
 25 27  1  0  0  0  0
 25 26  1  1  0  0  0
 29 30  1  0  0  0  0
M  CHG  5   6   1  10   1  14   1  19   1  29   1
M  END
>  <CHROM.1>
55.48837561,165.63537300,-83.66101348,58.67067124,-145.15667662,-67.00237859
179.22156270,101.54699061,64.93368686,-49.35374725,38.33246002,-165.61550921
-165.34757717,7.33932409,4.54619764,-1.64979889,1.50036968,-0.91268899,2.32686964

>  <Name>
1byj cryst

>  <RI>
0

>  <Rbt.Current_Directory>
/home/itssahil/PROJECTS/Mol_Feturizer/New_Systems/rnas/1byj

>  <Rbt.Executable>
rbdock ($Id: //depot/dev/client3/rdock/2013.1/src/exe/rbdock.cxx#4 $)

>  <Rbt.Library>
libRbt.so (2013.1, Build901 2013/11/27)

>  <Rbt.Parameter_File>
/export/apps/rDock/src/rDock_2013.1_src/data/scripts/dock_solv.prm

>  <Rbt.Receptor>
prm/blind_docking_60.prm

>  <SCORE>
-22.9695

>  <SCORE.INTER>
-30.4258

>  <SCORE.INTER.CONST>
1

>  <SCORE.INTER.POLAR>
-5.53607

>  <SCORE.INTER.ROT>
6

>  <SCORE.INTER.SOLV>
29.9699

>  <SCORE.INTER.VDW>
-19.4203

>  <SCORE.INTER.norm>
-0.981478

>  <SCORE.INTRA>
-1.32569

>  <SCORE.INTRA.DIHEDRAL>
-2.70945

>  <SCORE.INTRA.DIHEDRAL.0>
18.4149

>  <SCORE.INTRA.POLAR>
-0.0462387

>  <SCORE.INTRA.POLAR.0>
0

>  <SCORE.INTRA.REPUL>
-0.092687

>  <SCORE.INTRA.REPUL.0>
0.092687

>  <SCORE.INTRA.SOLV>
0.613851

>  <SCORE.INTRA.SOLV.lig_0>
-120.37

>  <SCORE.INTRA.VDW>
0.34276

>  <SCORE.INTRA.VDW.0>
-1.75542

>  <SCORE.INTRA.norm>
-0.042764

>  <SCORE.RESTR>
8.78197

>  <SCORE.RESTR.CAVITY>
8.78197

>  <SCORE.RESTR.norm>
0.283289

>  <SCORE.SYSTEM>
0

>  <SCORE.SYSTEM.CONST>
0

>  <SCORE.SYSTEM.DIHEDRAL>
0

>  <SCORE.SYSTEM.SOLV>
0

>  <SCORE.SYSTEM.norm>
0

>  <SCORE.heavy>
31

>  <SCORE.norm>
-0.740952

>  <RMSD>
5.818

$$$$
1byj cryst
 OpenBabel11021811383D
libRbt.so/2013.1/901 2013/11/27
 31 33  0  0  0  0  0  0  0  0999 V2000
   10.0847    1.3342   -1.2340 C   0  0  1  0  0  0  0  0  0  0  0  0
   10.4938    2.5128   -1.9991 O   0  0  0  0  0  0  0  0  0  0  0  0
   10.4426    2.4537   -3.4560 C   0  0  2  0  0  0  0  0  0  0  0  0
    9.0640    2.3861   -3.9372 O   0  0  0  0  0  0  0  0  0  0  0  0
   11.2688    1.2279   -3.9513 C   0  0  2  0  0  0  0  0  0  0  0  0
   11.2751    1.0852   -5.4205 N   0  3  0  0  0  0  0  0  0  0  0  0
   10.7459   -0.0705   -3.2846 C   0  0  0  0  0  0  0  0  0  0  0  0
   10.7777    0.0442   -1.7531 C   0  0  0  0  0  0  0  0  0  0  0  0
   10.4399    1.5393    0.2492 C   0  0  0  0  0  0  0  0  0  0  0  0
    9.4520    2.3326    0.9921 N   0  3  0  0  0  0  0  0  0  0  0  0
    6.8657    2.1472   -2.8505 C   0  0  1  0  0  0  0  0  0  0  0  0
    5.6829    2.8931   -2.1863 C   0  0  0  0  0  0  0  0  0  0  0  0
    5.1159    3.9751   -3.1442 C   0  0  1  0  0  0  0  0  0  0  0  0
    3.9417    4.6240   -2.5302 N   0  3  0  0  0  0  0  0  0  0  0  0
    6.2238    5.0051   -3.5097 C   0  0  1  0  0  0  0  0  0  0  0  0
    7.4824    4.3097   -4.0863 C   0  0  1  0  0  0  0  0  0  0  0  0
    8.4759    5.3152   -4.2201 O   0  0  0  0  0  0  0  0  0  0  0  0
    8.0276    3.1269   -3.2196 C   0  0  2  0  0  0  0  0  0  0  0  0
    7.3297    1.0553   -1.9766 N   0  3  0  0  0  0  0  0  0  0  0  0
    6.3972    7.4564   -1.9580 C   0  0  0  0  0  0  0  0  0  0  0  0
    7.0196    8.7962   -2.4218 C   0  0  2  0  0  0  0  0  0  0  0  0
    6.1730    9.8384   -1.9387 O   0  0  0  0  0  0  0  0  0  0  0  0
    7.0993    8.8208   -3.9948 C   0  0  1  0  0  0  0  0  0  0  0  0
    5.7542    8.4021   -4.6798 C   0  0  2  0  0  0  0  0  0  0  0  0
    5.1031    7.1466   -4.0462 C   0  0  1  0  0  0  0  0  0  0  0  0
    5.7448    5.9348   -4.5230 O   0  0  0  0  0  0  0  0  0  0  0  0
    5.1105    7.2306   -2.5930 O   0  0  0  0  0  0  0  0  0  0  0  0
    5.9288    8.1748   -6.0759 O   0  0  0  0  0  0  0  0  0  0  0  0
    7.5282   10.1770   -4.4585 N   0  3  0  0  0  0  0  0  0  0  0  0
    7.6834   10.3700   -5.9147 C   0  0  0  0  0  0  0  0  0  0  0  0
    8.3968    8.9664   -1.7345 C   0  0  0  0  0  0  0  0  0  0  0  0
  1  8  1  0  0  0  0
  1  9  1  1  0  0  0
  1  2  1  0  0  0  0
  2  3  1  0  0  0  0
  3  5  1  0  0  0  0
  3  4  1  1  0  0  0
  5  7  1  0  0  0  0
  5  6  1  6  0  0  0
  7  8  1  0  0  0  0
  9 10  1  0  0  0  0
 11 12  1  0  0  0  0
 11 18  1  0  0  0  0
 11 19  1  1  0  0  0
 12 13  1  0  0  0  0
 13 15  1  0  0  0  0
 13 14  1  1  0  0  0
 15 16  1  0  0  0  0
 15 26  1  6  0  0  0
 16 18  1  0  0  0  0
 16 17  1  1  0  0  0
 18  4  1  6  0  0  0
 20 21  1  0  0  0  0
 20 27  1  0  0  0  0
 21 31  1  1  0  0  0
 21 23  1  0  0  0  0
 21 22  1  0  0  0  0
 23 24  1  0  0  0  0
 23 29  1  6  0  0  0
 24 25  1  0  0  0  0
 24 28  1  6  0  0  0
 25 27  1  0  0  0  0
 25 26  1  1  0  0  0
 29 30  1  0  0  0  0
M  CHG  5   6   1  10   1  14   1  19   1  29   1
M  END
>  <CHROM.1>
82.21975608,35.77209952,-126.70802579,-57.98632454,-171.92463390,58.71159823
-14.17342974,90.15884270,-61.98699320,-63.27425069,-60.18643609,60.63012349
127.09801335,7.76782547,4.82121620,-3.09459600,1.05580616,-0.50622949,2.67360316

>  <Name>
1byj cryst

>  <RI>
0

>  <Rbt.Current_Directory>
/home/itssahil/PROJECTS/Mol_Feturizer/New_Systems/rnas/1byj

>  <Rbt.Executable>
rbdock ($Id: //depot/dev/client3/rdock/2013.1/src/exe/rbdock.cxx#4 $)

>  <Rbt.Library>
libRbt.so (2013.1, Build901 2013/11/27)

>  <Rbt.Parameter_File>
/export/apps/rDock/src/rDock_2013.1_src/data/scripts/dock_solv.prm

>  <Rbt.Receptor>
prm/blind_docking_100.prm

>  <SCORE>
-13.5151

>  <SCORE.INTER>
-21.4829

>  <SCORE.INTER.CONST>
1

>  <SCORE.INTER.POLAR>
-2.91715

>  <SCORE.INTER.ROT>
6

>  <SCORE.INTER.SOLV>
34.2085

>  <SCORE.INTER.VDW>
-23.6009

>  <SCORE.INTER.norm>
-0.692997

>  <SCORE.INTRA>
1.74445

>  <SCORE.INTRA.DIHEDRAL>
6.84982

>  <SCORE.INTRA.DIHEDRAL.0>
18.4149

>  <SCORE.INTRA.POLAR>
-1.12255

>  <SCORE.INTRA.POLAR.0>
0

>  <SCORE.INTRA.REPUL>
0.0079329

>  <SCORE.INTRA.REPUL.0>
0.092687

>  <SCORE.INTRA.SOLV>
3.4218

>  <SCORE.INTRA.SOLV.lig_0>
-120.37

>  <SCORE.INTRA.VDW>
0.385646

>  <SCORE.INTRA.VDW.0>
-1.75542

>  <SCORE.INTRA.norm>
0.0562726

>  <SCORE.RESTR>
6.22333

>  <SCORE.RESTR.CAVITY>
6.22333

>  <SCORE.RESTR.norm>
0.200753

>  <SCORE.SYSTEM>
0

>  <SCORE.SYSTEM.CONST>
0

>  <SCORE.SYSTEM.DIHEDRAL>
0

>  <SCORE.SYSTEM.SOLV>
0

>  <SCORE.SYSTEM.norm>
0

>  <SCORE.heavy>
31

>  <SCORE.norm>
-0.435971

>  <RMSD>
5.821

$$$$
1byj cryst
 OpenBabel11021811383D
libRbt.so/2013.1/901 2013/11/27
 31 33  0  0  0  0  0  0  0  0999 V2000
    6.5433    0.9561    0.3657 C   0  0  1  0  0  0  0  0  0  0  0  0
    6.6579    2.3770    0.0341 O   0  0  0  0  0  0  0  0  0  0  0  0
    7.9265    3.0534    0.2828 C   0  0  2  0  0  0  0  0  0  0  0  0
    8.9735    2.5659   -0.6133 O   0  0  0  0  0  0  0  0  0  0  0  0
    8.3313    2.8568    1.7754 C   0  0  2  0  0  0  0  0  0  0  0  0
    9.6089    3.5095    2.1230 N   0  3  0  0  0  0  0  0  0  0  0  0
    8.3861    1.3454    2.1171 C   0  0  0  0  0  0  0  0  0  0  0  0
    7.0471    0.6604    1.8054 C   0  0  0  0  0  0  0  0  0  0  0  0
    5.0727    0.5198    0.2432 C   0  0  0  0  0  0  0  0  0  0  0  0
    4.2001    1.0740    1.2866 N   0  3  0  0  0  0  0  0  0  0  0  0
   10.1916    2.9154   -2.7263 C   0  0  1  0  0  0  0  0  0  0  0  0
   10.0606    3.1887   -4.2444 C   0  0  0  0  0  0  0  0  0  0  0  0
    9.2145    4.4657   -4.4958 C   0  0  1  0  0  0  0  0  0  0  0  0
    9.1633    4.7578   -5.9411 N   0  3  0  0  0  0  0  0  0  0  0  0
    7.7925    4.2986   -3.8862 C   0  0  1  0  0  0  0  0  0  0  0  0
    7.8553    3.9202   -2.3852 C   0  0  1  0  0  0  0  0  0  0  0  0
    6.5248    3.6288   -1.9843 O   0  0  0  0  0  0  0  0  0  0  0  0
    8.7928    2.7116   -2.0569 C   0  0  2  0  0  0  0  0  0  0  0  0
   11.0802    1.7630   -2.4947 N   0  3  0  0  0  0  0  0  0  0  0  0
    5.8013    8.2232   -4.7561 C   0  0  0  0  0  0  0  0  0  0  0  0
    6.4409    9.2627   -3.8032 C   0  0  2  0  0  0  0  0  0  0  0  0
    7.1416   10.2004   -4.6191 O   0  0  0  0  0  0  0  0  0  0  0  0
    7.4258    8.5317   -2.8147 C   0  0  1  0  0  0  0  0  0  0  0  0
    8.4102    7.5565   -3.5455 C   0  0  2  0  0  0  0  0  0  0  0  0
    7.7203    6.6654   -4.6094 C   0  0  1  0  0  0  0  0  0  0  0  0
    7.0435    5.5435   -3.9841 O   0  0  0  0  0  0  0  0  0  0  0  0
    6.8198    7.4482   -5.4431 O   0  0  0  0  0  0  0  0  0  0  0  0
    9.0976    6.7191   -2.6196 O   0  0  0  0  0  0  0  0  0  0  0  0
    8.1827    9.5439   -2.0142 N   0  3  0  0  0  0  0  0  0  0  0  0
    8.7094    9.1062   -0.7054 C   0  0  0  0  0  0  0  0  0  0  0  0
    5.3091   10.0355   -3.0822 C   0  0  0  0  0  0  0  0  0  0  0  0
  1  8  1  0  0  0  0
  1  9  1  1  0  0  0
  1  2  1  0  0  0  0
  2  3  1  0  0  0  0
  3  5  1  0  0  0  0
  3  4  1  6  0  0  0
  5  7  1  0  0  0  0
  5  6  1  6  0  0  0
  7  8  1  0  0  0  0
  9 10  1  0  0  0  0
 11 12  1  0  0  0  0
 11 18  1  0  0  0  0
 11 19  1  6  0  0  0
 12 13  1  0  0  0  0
 13 15  1  0  0  0  0
 13 14  1  6  0  0  0
 15 16  1  0  0  0  0
 15 26  1  1  0  0  0
 16 18  1  0  0  0  0
 16 17  1  6  0  0  0
 18  4  1  1  0  0  0
 20 21  1  0  0  0  0
 20 27  1  0  0  0  0
 21 31  1  1  0  0  0
 21 23  1  0  0  0  0
 21 22  1  0  0  0  0
 23 24  1  0  0  0  0
 23 29  1  6  0  0  0
 24 25  1  0  0  0  0
 24 28  1  1  0  0  0
 25 27  1  0  0  0  0
 25 26  1  1  0  0  0
 29 30  1  0  0  0  0
M  CHG  5   6   1  10   1  14   1  19   1  29   1
M  END
>  <CHROM.1>
-70.14699009,60.19286539,148.03376922,-142.51872887,-65.86008728,-176.21880029
-13.66784439,0.29947885,64.62298044,-84.61712584,-83.44149213,-154.98499083
-93.86869237,7.79859646,4.83275233,-2.02449673,1.54680525,-0.89959372,2.53313006

>  <Name>
1byj cryst

>  <RI>
0

>  <Rbt.Current_Directory>
/home/itssahil/PROJECTS/Mol_Feturizer/New_Systems/rnas/1byj

>  <Rbt.Executable>
rbdock ($Id: //depot/dev/client3/rdock/2013.1/src/exe/rbdock.cxx#4 $)

>  <Rbt.Library>
libRbt.so (2013.1, Build901 2013/11/27)

>  <Rbt.Parameter_File>
/export/apps/rDock/src/rDock_2013.1_src/data/scripts/dock_solv.prm

>  <Rbt.Receptor>
prm/blind_docking_60.prm

>  <SCORE>
-11.2468

>  <SCORE.INTER>
-25.4796

>  <SCORE.INTER.CONST>
1

>  <SCORE.INTER.POLAR>
-5.91906

>  <SCORE.INTER.ROT>
6

>  <SCORE.INTER.SOLV>
32.9686

>  <SCORE.INTER.VDW>
-15.8457

>  <SCORE.INTER.norm>
-0.821922

>  <SCORE.INTRA>
10.1322

>  <SCORE.INTRA.DIHEDRAL>
9.84732

>  <SCORE.INTRA.DIHEDRAL.0>
18.4149

>  <SCORE.INTRA.POLAR>
-0.00915947

>  <SCORE.INTRA.POLAR.0>
0

>  <SCORE.INTRA.REPUL>
-0.092687

>  <SCORE.INTRA.REPUL.0>
0.092687

>  <SCORE.INTRA.SOLV>
0.143418

>  <SCORE.INTRA.SOLV.lig_0>
-120.37

>  <SCORE.INTRA.VDW>
5.63146

>  <SCORE.INTRA.VDW.0>
-1.75542

>  <SCORE.INTRA.norm>
0.326847

>  <SCORE.RESTR>
4.10048

>  <SCORE.RESTR.CAVITY>
4.10048

>  <SCORE.RESTR.norm>
0.132274

>  <SCORE.SYSTEM>
0

>  <SCORE.SYSTEM.CONST>
0

>  <SCORE.SYSTEM.DIHEDRAL>
0

>  <SCORE.SYSTEM.SOLV>
0

>  <SCORE.SYSTEM.norm>
0

>  <SCORE.heavy>
31

>  <SCORE.norm>
-0.362802

>  <RMSD>
5.822

$$$$
1byj cryst
 OpenBabel11021811383D
libRbt.so/2013.1/901 2013/11/27
 31 33  0  0  0  0  0  0  0  0999 V2000
    6.4036    1.0566    0.4608 C   0  0  1  0  0  0  0  0  0  0  0  0
    6.6293    2.4441    0.0535 O   0  0  0  0  0  0  0  0  0  0  0  0
    7.9663    3.0087    0.2031 C   0  0  2  0  0  0  0  0  0  0  0  0
    8.9129    2.3851   -0.7199 O   0  0  0  0  0  0  0  0  0  0  0  0
    8.4336    2.8419    1.6810 C   0  0  2  0  0  0  0  0  0  0  0  0
    9.7829    3.3864    1.9301 N   0  3  0  0  0  0  0  0  0  0  0  0
    8.3687    1.3489    2.0944 C   0  0  0  0  0  0  0  0  0  0  0  0
    6.9573    0.7796    1.8858 C   0  0  0  0  0  0  0  0  0  0  0  0
    4.8947    0.7556    0.4354 C   0  0  0  0  0  0  0  0  0  0  0  0
    4.1572    1.3214    1.5726 N   0  3  0  0  0  0  0  0  0  0  0  0
   10.1641    2.7368   -2.8130 C   0  0  1  0  0  0  0  0  0  0  0  0
   10.0613    3.0858   -4.3178 C   0  0  0  0  0  0  0  0  0  0  0  0
    9.3127    4.4315   -4.5138 C   0  0  1  0  0  0  0  0  0  0  0  0
    9.2903    4.7900   -5.9448 N   0  3  0  0  0  0  0  0  0  0  0  0
    7.8792    4.3428   -3.9148 C   0  0  1  0  0  0  0  0  0  0  0  0
    7.9064    3.8949   -2.4319 C   0  0  1  0  0  0  0  0  0  0  0  0
    6.5560    3.6851   -2.0467 O   0  0  0  0  0  0  0  0  0  0  0  0
    8.7508    2.6073   -2.1559 C   0  0  2  0  0  0  0  0  0  0  0  0
   10.9645    1.5130   -2.6313 N   0  3  0  0  0  0  0  0  0  0  0  0
    6.1634    8.2170   -5.2106 C   0  0  0  0  0  0  0  0  0  0  0  0
    6.4962    9.3363   -4.1937 C   0  0  2  0  0  0  0  0  0  0  0  0
    7.3647   10.2554   -4.8549 O   0  0  0  0  0  0  0  0  0  0  0  0
    7.1992    8.7068   -2.9324 C   0  0  1  0  0  0  0  0  0  0  0  0
    8.3691    7.7352   -3.3083 C   0  0  2  0  0  0  0  0  0  0  0  0
    8.0137    6.7553   -4.4551 C   0  0  1  0  0  0  0  0  0  0  0  0
    7.2242    5.6427   -3.9586 O   0  0  0  0  0  0  0  0  0  0  0  0
    7.3491    7.4490   -5.5487 O   0  0  0  0  0  0  0  0  0  0  0  0
    8.8052    6.9829   -2.1790 O   0  0  0  0  0  0  0  0  0  0  0  0
    7.6865    9.7952   -2.0290 N   0  3  0  0  0  0  0  0  0  0  0  0
    7.8110    9.4700   -0.5935 C   0  0  0  0  0  0  0  0  0  0  0  0
    5.1923   10.0991   -3.8530 C   0  0  0  0  0  0  0  0  0  0  0  0
  1  8  1  0  0  0  0
  1  9  1  1  0  0  0
  1  2  1  0  0  0  0
  2  3  1  0  0  0  0
  3  5  1  0  0  0  0
  3  4  1  6  0  0  0
  5  7  1  0  0  0  0
  5  6  1  6  0  0  0
  7  8  1  0  0  0  0
  9 10  1  0  0  0  0
 11 12  1  0  0  0  0
 11 18  1  0  0  0  0
 11 19  1  6  0  0  0
 12 13  1  0  0  0  0
 13 15  1  0  0  0  0
 13 14  1  6  0  0  0
 15 16  1  0  0  0  0
 15 26  1  1  0  0  0
 16 18  1  0  0  0  0
 16 17  1  6  0  0  0
 18  4  1  1  0  0  0
 20 21  1  0  0  0  0
 20 27  1  0  0  0  0
 21 31  1  1  0  0  0
 21 23  1  0  0  0  0
 21 22  1  0  0  0  0
 23 24  1  0  0  0  0
 23 29  1  1  0  0  0
 24 25  1  0  0  0  0
 24 28  1  1  0  0  0
 25 27  1  0  0  0  0
 25 26  1  1  0  0  0
 29 30  1  0  0  0  0
M  CHG  5   6   1  10   1  14   1  19   1  29   1
M  END
>  <CHROM.1>
-76.15407038,66.94236988,142.64228779,-31.67311895,52.65599802,-54.27480444
100.78037307,-3.42190224,65.39274130,-77.68937074,-85.45380398,-64.86447998
-109.51436554,7.78205545,4.88255288,-2.06791675,1.53890049,-0.91330229,2.52211279

>  <Name>
1byj cryst

>  <RI>
0

>  <Rbt.Current_Directory>
/home/itssahil/PROJECTS/Mol_Feturizer/New_Systems/rnas/1byj

>  <Rbt.Executable>
rbdock ($Id: //depot/dev/client3/rdock/2013.1/src/exe/rbdock.cxx#4 $)

>  <Rbt.Library>
libRbt.so (2013.1, Build901 2013/11/27)

>  <Rbt.Parameter_File>
/export/apps/rDock/src/rDock_2013.1_src/data/scripts/dock_solv.prm

>  <Rbt.Receptor>
prm/blind_docking_80.prm

>  <SCORE>
-11.4118

>  <SCORE.INTER>
-26.0566

>  <SCORE.INTER.CONST>
1

>  <SCORE.INTER.POLAR>
-5.23576

>  <SCORE.INTER.ROT>
6

>  <SCORE.INTER.SOLV>
32.5892

>  <SCORE.INTER.VDW>
-18.3816

>  <SCORE.INTER.norm>
-0.840534

>  <SCORE.INTRA>
9.81007

>  <SCORE.INTRA.DIHEDRAL>
9.31496

>  <SCORE.INTRA.DIHEDRAL.0>
18.4149

>  <SCORE.INTRA.POLAR>
-0.00926246

>  <SCORE.INTRA.POLAR.0>
0

>  <SCORE.INTRA.REPUL>
-0.092687

>  <SCORE.INTRA.REPUL.0>
0.092687

>  <SCORE.INTRA.SOLV>
-0.158245

>  <SCORE.INTRA.SOLV.lig_0>
-120.37

>  <SCORE.INTRA.VDW>
5.72663

>  <SCORE.INTRA.VDW.0>
-1.75542

>  <SCORE.INTRA.norm>
0.316454

>  <SCORE.RESTR>
4.83469

>  <SCORE.RESTR.CAVITY>
4.83469

>  <SCORE.RESTR.norm>
0.155958

>  <SCORE.SYSTEM>
0

>  <SCORE.SYSTEM.CONST>
0

>  <SCORE.SYSTEM.DIHEDRAL>
0

>  <SCORE.SYSTEM.SOLV>
0

>  <SCORE.SYSTEM.norm>
0

>  <SCORE.heavy>
31

>  <SCORE.norm>
-0.368123

>  <RMSD>
5.852

$$$$
1byj cryst
 OpenBabel11021811383D
libRbt.so/2013.1/901 2013/11/27
 31 33  0  0  0  0  0  0  0  0999 V2000
    7.3263    7.0942   -1.6037 C   0  0  1  0  0  0  0  0  0  0  0  0
    6.3394    6.3699   -2.4059 O   0  0  0  0  0  0  0  0  0  0  0  0
    6.8066    5.3389   -3.3264 C   0  0  2  0  0  0  0  0  0  0  0  0
    7.3451    4.1869   -2.6054 O   0  0  0  0  0  0  0  0  0  0  0  0
    7.8749    5.9488   -4.2840 C   0  0  2  0  0  0  0  0  0  0  0  0
    8.4088    4.9751   -5.2566 N   0  3  0  0  0  0  0  0  0  0  0  0
    9.0285    6.5791   -3.4618 C   0  0  0  0  0  0  0  0  0  0  0  0
    8.4940    7.6301   -2.4772 C   0  0  0  0  0  0  0  0  0  0  0  0
    6.6405    8.2747   -0.8936 C   0  0  0  0  0  0  0  0  0  0  0  0
    5.8237    9.1097   -1.7841 N   0  3  0  0  0  0  0  0  0  0  0  0
    7.3924    2.4690   -0.8399 C   0  0  1  0  0  0  0  0  0  0  0  0
    6.5652    1.7161    0.2304 C   0  0  0  0  0  0  0  0  0  0  0  0
    5.3198    1.0503   -0.4142 C   0  0  1  0  0  0  0  0  0  0  0  0
    4.5840    0.2726    0.6010 N   0  3  0  0  0  0  0  0  0  0  0  0
    4.4197    2.1277   -1.0855 C   0  0  1  0  0  0  0  0  0  0  0  0
    5.2169    2.9885   -2.0973 C   0  0  1  0  0  0  0  0  0  0  0  0
    4.3495    4.0328   -2.5133 O   0  0  0  0  0  0  0  0  0  0  0  0
    6.5488    3.5870   -1.5359 C   0  0  2  0  0  0  0  0  0  0  0  0
    8.6244    3.0097   -0.2389 N   0  3  0  0  0  0  0  0  0  0  0  0
    1.2382    3.4826   -0.8152 C   0  0  0  0  0  0  0  0  0  0  0  0
   -0.0381    3.1874   -1.6407 C   0  0  2  0  0  0  0  0  0  0  0  0
   -1.0514    2.7952   -0.7157 O   0  0  0  0  0  0  0  0  0  0  0  0
    0.2591    2.0336   -2.6712 C   0  0  1  0  0  0  0  0  0  0  0  0
    0.9676    0.7993   -2.0166 C   0  0  2  0  0  0  0  0  0  0  0  0
    2.1298    1.1863   -1.0671 C   0  0  1  0  0  0  0  0  0  0  0  0
    3.3305    1.4998   -1.8205 O   0  0  0  0  0  0  0  0  0  0  0  0
    1.7422    2.2758   -0.1830 O   0  0  0  0  0  0  0  0  0  0  0  0
    1.4610   -0.1026   -3.0036 O   0  0  0  0  0  0  0  0  0  0  0  0
   -1.0104    1.6176   -3.3448 N   0  3  0  0  0  0  0  0  0  0  0  0
   -1.3277    2.2629   -4.6351 C   0  0  0  0  0  0  0  0  0  0  0  0
   -0.5098    4.5018   -2.3100 C   0  0  0  0  0  0  0  0  0  0  0  0
  1  8  1  0  0  0  0
  1  9  1  6  0  0  0
  1  2  1  0  0  0  0
  2  3  1  0  0  0  0
  3  5  1  0  0  0  0
  3  4  1  1  0  0  0
  5  7  1  0  0  0  0
  5  6  1  6  0  0  0
  7  8  1  0  0  0  0
  9 10  1  0  0  0  0
 11 12  1  0  0  0  0
 11 18  1  0  0  0  0
 11 19  1  1  0  0  0
 12 13  1  0  0  0  0
 13 15  1  0  0  0  0
 13 14  1  1  0  0  0
 15 16  1  0  0  0  0
 15 26  1  6  0  0  0
 16 18  1  0  0  0  0
 16 17  1  1  0  0  0
 18  4  1  6  0  0  0
 20 21  1  0  0  0  0
 20 27  1  0  0  0  0
 21 31  1  6  0  0  0
 21 23  1  0  0  0  0
 21 22  1  0  0  0  0
 23 24  1  0  0  0  0
 23 29  1  1  0  0  0
 24 25  1  0  0  0  0
 24 28  1  6  0  0  0
 25 27  1  0  0  0  0
 25 26  1  6  0  0  0
 29 30  1  0  0  0  0
M  CHG  5   6   1  10   1  14   1  19   1  29   1
M  END
>  <CHROM.1>
-49.50972046,50.22141609,-174.77829170,172.10577584,170.24464405,66.24506129
93.72915890,86.35218697,-163.28286468,-62.54974144,-145.00396331,-179.14461433
168.39648100,4.31028696,3.61250912,-1.94901603,0.49930533,-0.15251028,-0.37100421

>  <Name>
1byj cryst

>  <RI>
0

>  <Rbt.Current_Directory>
/home/itssahil/PROJECTS/Mol_Feturizer/New_Systems/rnas/1byj

>  <Rbt.Executable>
rbdock ($Id: //depot/dev/client3/rdock/2013.1/src/exe/rbdock.cxx#4 $)

>  <Rbt.Library>
libRbt.so (2013.1, Build901 2013/11/27)

>  <Rbt.Parameter_File>
/export/apps/rDock/src/rDock_2013.1_src/data/scripts/dock_solv.prm

>  <Rbt.Receptor>
prm/pocket_docking_7.prm

>  <SCORE>
-36.4534

>  <SCORE.INTER>
-30.586

>  <SCORE.INTER.CONST>
1

>  <SCORE.INTER.POLAR>
-4.65211

>  <SCORE.INTER.ROT>
6

>  <SCORE.INTER.SOLV>
18.865

>  <SCORE.INTER.VDW>
-18.772

>  <SCORE.INTER.norm>
-0.986644

>  <SCORE.INTRA>
-5.86744

>  <SCORE.INTRA.DIHEDRAL>
-7.45907

>  <SCORE.INTRA.DIHEDRAL.0>
18.4149

>  <SCORE.INTRA.POLAR>
-0.0264653

>  <SCORE.INTRA.POLAR.0>
0

>  <SCORE.INTRA.REPUL>
-0.092687

>  <SCORE.INTRA.REPUL.0>
0.092687

>  <SCORE.INTRA.SOLV>
-2.50535

>  <SCORE.INTRA.SOLV.lig_0>
-120.37

>  <SCORE.INTRA.VDW>
-0.331813

>  <SCORE.INTRA.VDW.0>
-1.75542

>  <SCORE.INTRA.norm>
-0.189272

>  <SCORE.RESTR>
0

>  <SCORE.RESTR.CAVITY>
0

>  <SCORE.RESTR.norm>
0

>  <SCORE.SYSTEM>
0

>  <SCORE.SYSTEM.CONST>
0

>  <SCORE.SYSTEM.DIHEDRAL>
0

>  <SCORE.SYSTEM.SOLV>
0

>  <SCORE.SYSTEM.norm>
0

>  <SCORE.heavy>
31

>  <SCORE.norm>
-1.17592

>  <RMSD>
5.854

$$$$
1byj cryst
 OpenBabel11021811383D
libRbt.so/2013.1/901 2013/11/27
 31 33  0  0  0  0  0  0  0  0999 V2000
    6.3627    1.3471    0.7593 C   0  0  1  0  0  0  0  0  0  0  0  0
    6.6266    2.7039    0.2782 O   0  0  0  0  0  0  0  0  0  0  0  0
    7.9800    3.2363    0.3933 C   0  0  2  0  0  0  0  0  0  0  0  0
    8.9038    2.5373   -0.4983 O   0  0  0  0  0  0  0  0  0  0  0  0
    8.4493    3.1345    1.8765 C   0  0  2  0  0  0  0  0  0  0  0  0
    9.8150    3.6517    2.0920 N   0  3  0  0  0  0  0  0  0  0  0  0
    8.3431    1.6680    2.3687 C   0  0  0  0  0  0  0  0  0  0  0  0
    6.9148    1.1299    2.1952 C   0  0  0  0  0  0  0  0  0  0  0  0
    4.8455    1.0894    0.7547 C   0  0  0  0  0  0  0  0  0  0  0  0
    4.4848   -0.3335    0.8059 N   0  3  0  0  0  0  0  0  0  0  0  0
   10.1535    2.7946   -2.6060 C   0  0  1  0  0  0  0  0  0  0  0  0
   10.0490    3.0681   -4.1261 C   0  0  0  0  0  0  0  0  0  0  0  0
    9.2905    4.3968   -4.3885 C   0  0  1  0  0  0  0  0  0  0  0  0
    9.2663    4.6841   -5.8355 N   0  3  0  0  0  0  0  0  0  0  0  0
    7.8573    4.3271   -3.7862 C   0  0  1  0  0  0  0  0  0  0  0  0
    7.8870    3.9532   -2.2830 C   0  0  1  0  0  0  0  0  0  0  0  0
    6.5380    3.7524   -1.8882 O   0  0  0  0  0  0  0  0  0  0  0  0
    8.7409    2.6871   -1.9436 C   0  0  2  0  0  0  0  0  0  0  0  0
   10.9629    1.5873   -2.3638 N   0  3  0  0  0  0  0  0  0  0  0  0
    6.0887    8.1667   -5.1617 C   0  0  0  0  0  0  0  0  0  0  0  0
    6.4976    9.3127   -4.2040 C   0  0  2  0  0  0  0  0  0  0  0  0
    7.3349   10.1978   -4.9466 O   0  0  0  0  0  0  0  0  0  0  0  0
    7.2693    8.7133   -2.9684 C   0  0  1  0  0  0  0  0  0  0  0  0
    8.4016    7.7135   -3.3837 C   0  0  2  0  0  0  0  0  0  0  0  0
    7.9638    6.7031   -4.4742 C   0  0  1  0  0  0  0  0  0  0  0  0
    7.1927    5.6182   -3.8943 O   0  0  0  0  0  0  0  0  0  0  0  0
    7.2415    7.3714   -5.5468 O   0  0  0  0  0  0  0  0  0  0  0  0
    8.8972    6.9911   -2.2595 O   0  0  0  0  0  0  0  0  0  0  0  0
    7.8250    9.8226   -2.1324 N   0  3  0  0  0  0  0  0  0  0  0  0
    8.3034    9.4687   -0.7805 C   0  0  0  0  0  0  0  0  0  0  0  0
    5.2269   10.1046   -3.8087 C   0  0  0  0  0  0  0  0  0  0  0  0
  1  8  1  0  0  0  0
  1  9  1  1  0  0  0
  1  2  1  0  0  0  0
  2  3  1  0  0  0  0
  3  5  1  0  0  0  0
  3  4  1  6  0  0  0
  5  7  1  0  0  0  0
  5  6  1  6  0  0  0
  7  8  1  0  0  0  0
  9 10  1  0  0  0  0
 11 12  1  0  0  0  0
 11 18  1  0  0  0  0
 11 19  1  6  0  0  0
 12 13  1  0  0  0  0
 13 15  1  0  0  0  0
 13 14  1  6  0  0  0
 15 16  1  0  0  0  0
 15 26  1  1  0  0  0
 16 18  1  0  0  0  0
 16 17  1  6  0  0  0
 18  4  1  1  0  0  0
 20 21  1  0  0  0  0
 20 27  1  0  0  0  0
 21 31  1  1  0  0  0
 21 23  1  0  0  0  0
 21 22  1  0  0  0  0
 23 24  1  0  0  0  0
 23 29  1  6  0  0  0
 24 25  1  0  0  0  0
 24 28  1  1  0  0  0
 25 27  1  0  0  0  0
 25 26  1  1  0  0  0
 29 30  1  0  0  0  0
M  CHG  5   6   1  10   1  14   1  19   1  29   1
M  END
>  <CHROM.1>
161.79710825,66.90576410,140.53704336,-15.33800391,59.64965059,66.06260827
-141.46540562,-2.00963788,63.20988184,-78.12986676,-72.75659773,59.25903350
-106.47774199,7.80340336,4.89015501,-1.99508599,1.55368545,-0.98605413,2.52272409

>  <Name>
1byj cryst

>  <RI>
0

>  <Rbt.Current_Directory>
/home/itssahil/PROJECTS/Mol_Feturizer/New_Systems/rnas/1byj

>  <Rbt.Executable>
rbdock ($Id: //depot/dev/client3/rdock/2013.1/src/exe/rbdock.cxx#4 $)

>  <Rbt.Library>
libRbt.so (2013.1, Build901 2013/11/27)

>  <Rbt.Parameter_File>
/export/apps/rDock/src/rDock_2013.1_src/data/scripts/dock_solv.prm

>  <Rbt.Receptor>
prm/blind_docking_60.prm

>  <SCORE>
-21.8069

>  <SCORE.INTER>
-34.8672

>  <SCORE.INTER.CONST>
1

>  <SCORE.INTER.POLAR>
-6.76477

>  <SCORE.INTER.ROT>
6

>  <SCORE.INTER.SOLV>
36.2329

>  <SCORE.INTER.VDW>
-20.3732

>  <SCORE.INTER.norm>
-1.12475

>  <SCORE.INTRA>
9.14851

>  <SCORE.INTRA.DIHEDRAL>
9.55058

>  <SCORE.INTRA.DIHEDRAL.0>
18.4149

>  <SCORE.INTRA.POLAR>
0

>  <SCORE.INTRA.POLAR.0>
0

>  <SCORE.INTRA.REPUL>
-0.092687

>  <SCORE.INTRA.REPUL.0>
0.092687

>  <SCORE.INTRA.SOLV>
-1.83389

>  <SCORE.INTRA.SOLV.lig_0>
-120.37

>  <SCORE.INTRA.VDW>
5.7536

>  <SCORE.INTRA.VDW.0>
-1.75542

>  <SCORE.INTRA.norm>
0.295113

>  <SCORE.RESTR>
3.91174

>  <SCORE.RESTR.CAVITY>
3.91174

>  <SCORE.RESTR.norm>
0.126185

>  <SCORE.SYSTEM>
0

>  <SCORE.SYSTEM.CONST>
0

>  <SCORE.SYSTEM.DIHEDRAL>
0

>  <SCORE.SYSTEM.SOLV>
0

>  <SCORE.SYSTEM.norm>
0

>  <SCORE.heavy>
31

>  <SCORE.norm>
-0.703449

>  <RMSD>
5.862

$$$$
1byj cryst
 OpenBabel11021811383D
libRbt.so/2013.1/901 2013/11/27
 31 33  0  0  0  0  0  0  0  0999 V2000
    6.1442    1.5875    1.0091 C   0  0  1  0  0  0  0  0  0  0  0  0
    6.5588    2.8324    0.3607 O   0  0  0  0  0  0  0  0  0  0  0  0
    7.9845    3.1190    0.2431 C   0  0  2  0  0  0  0  0  0  0  0  0
    8.6373    2.1970   -0.6846 O   0  0  0  0  0  0  0  0  0  0  0  0
    8.6419    3.0508    1.6550 C   0  0  2  0  0  0  0  0  0  0  0  0
   10.0916    3.3283    1.6364 N   0  3  0  0  0  0  0  0  0  0  0  0
    8.3642    1.6709    2.3051 C   0  0  0  0  0  0  0  0  0  0  0  0
    6.8562    1.3875    2.3755 C   0  0  0  0  0  0  0  0  0  0  0  0
    4.6212    1.6084    1.2288 C   0  0  0  0  0  0  0  0  0  0  0  0
    4.0051    0.2752    1.2429 N   0  3  0  0  0  0  0  0  0  0  0  0
   10.0035    2.5882   -2.6973 C   0  0  1  0  0  0  0  0  0  0  0  0
    9.9863    2.9814   -4.1945 C   0  0  0  0  0  0  0  0  0  0  0  0
    9.2686    4.3439   -4.3905 C   0  0  1  0  0  0  0  0  0  0  0  0
    9.3279    4.7433   -5.8096 N   0  3  0  0  0  0  0  0  0  0  0  0
    7.8040    4.2610   -3.8711 C   0  0  1  0  0  0  0  0  0  0  0  0
    7.7455    3.7707   -2.4027 C   0  0  1  0  0  0  0  0  0  0  0  0
    6.3735    3.5715   -2.0959 O   0  0  0  0  0  0  0  0  0  0  0  0
    8.5554    2.4625   -2.1201 C   0  0  2  0  0  0  0  0  0  0  0  0
   10.7753    1.3471   -2.5092 N   0  3  0  0  0  0  0  0  0  0  0  0
    6.1394    8.1310   -5.2177 C   0  0  0  0  0  0  0  0  0  0  0  0
    6.4750    9.2662   -4.2196 C   0  0  2  0  0  0  0  0  0  0  0  0
    7.3552   10.1658   -4.8921 O   0  0  0  0  0  0  0  0  0  0  0  0
    7.1650    8.6545   -2.9424 C   0  0  1  0  0  0  0  0  0  0  0  0
    8.3292    7.6666   -3.2928 C   0  0  2  0  0  0  0  0  0  0  0  0
    7.9728    6.6685   -4.4236 C   0  0  1  0  0  0  0  0  0  0  0  0
    7.1711    5.5718   -3.9116 O   0  0  0  0  0  0  0  0  0  0  0  0
    7.3207    7.3473   -5.5340 O   0  0  0  0  0  0  0  0  0  0  0  0
    8.7520    6.9319   -2.1471 O   0  0  0  0  0  0  0  0  0  0  0  0
    7.6557    9.7555   -2.0562 N   0  3  0  0  0  0  0  0  0  0  0  0
    7.8633    9.4273   -0.6311 C   0  0  0  0  0  0  0  0  0  0  0  0
    5.1754   10.0458   -3.9012 C   0  0  0  0  0  0  0  0  0  0  0  0
  1  8  1  0  0  0  0
  1  9  1  1  0  0  0
  1  2  1  0  0  0  0
  2  3  1  0  0  0  0
  3  5  1  0  0  0  0
  3  4  1  6  0  0  0
  5  7  1  0  0  0  0
  5  6  1  6  0  0  0
  7  8  1  0  0  0  0
  9 10  1  0  0  0  0
 11 12  1  0  0  0  0
 11 18  1  0  0  0  0
 11 19  1  6  0  0  0
 12 13  1  0  0  0  0
 13 15  1  0  0  0  0
 13 14  1  6  0  0  0
 15 16  1  0  0  0  0
 15 26  1  1  0  0  0
 16 18  1  0  0  0  0
 16 17  1  6  0  0  0
 18  4  1  1  0  0  0
 20 21  1  0  0  0  0
 20 27  1  0  0  0  0
 21 31  1  1  0  0  0
 21 23  1  0  0  0  0
 21 22  1  0  0  0  0
 23 24  1  0  0  0  0
 23 29  1  1  0  0  0
 24 25  1  0  0  0  0
 24 28  1  1  0  0  0
 25 27  1  0  0  0  0
 25 26  1  1  0  0  0
 29 30  1  0  0  0  0
M  CHG  5   6   1  10   1  14   1  19   1  29   1
M  END
>  <CHROM.1>
151.87973671,81.83509982,122.09727388,83.87867080,-178.50600230,-57.58317930
-140.87237407,0.85573612,-59.91203081,59.01055791,-81.08592126,-67.66115270
-111.01515642,7.71753599,4.87080369,-2.00010012,1.55830199,-0.89246508,2.51225349

>  <Name>
1byj cryst

>  <RI>
0

>  <Rbt.Current_Directory>
/home/itssahil/PROJECTS/Mol_Feturizer/New_Systems/rnas/1byj

>  <Rbt.Executable>
rbdock ($Id: //depot/dev/client3/rdock/2013.1/src/exe/rbdock.cxx#4 $)

>  <Rbt.Library>
libRbt.so (2013.1, Build901 2013/11/27)

>  <Rbt.Parameter_File>
/export/apps/rDock/src/rDock_2013.1_src/data/scripts/dock_solv.prm

>  <Rbt.Receptor>
prm/blind_docking_80.prm

>  <SCORE>
-13.7132

>  <SCORE.INTER>
-29.7757

>  <SCORE.INTER.CONST>
1

>  <SCORE.INTER.POLAR>
-4.71129

>  <SCORE.INTER.ROT>
6

>  <SCORE.INTER.SOLV>
34.3849

>  <SCORE.INTER.VDW>
-23.2078

>  <SCORE.INTER.norm>
-0.960506

>  <SCORE.INTRA>
11.2167

>  <SCORE.INTRA.DIHEDRAL>
12.6995

>  <SCORE.INTRA.DIHEDRAL.0>
18.4149

>  <SCORE.INTRA.POLAR>
-0.0162609

>  <SCORE.INTRA.POLAR.0>
0

>  <SCORE.INTRA.REPUL>
-0.092687

>  <SCORE.INTRA.REPUL.0>
0.092687

>  <SCORE.INTRA.SOLV>
-1.54372

>  <SCORE.INTRA.SOLV.lig_0>
-120.37

>  <SCORE.INTRA.VDW>
6.15755

>  <SCORE.INTRA.VDW.0>
-1.75542

>  <SCORE.INTRA.norm>
0.36183

>  <SCORE.RESTR>
4.84576

>  <SCORE.RESTR.CAVITY>
4.84576

>  <SCORE.RESTR.norm>
0.156315

>  <SCORE.SYSTEM>
0

>  <SCORE.SYSTEM.CONST>
0

>  <SCORE.SYSTEM.DIHEDRAL>
0

>  <SCORE.SYSTEM.SOLV>
0

>  <SCORE.SYSTEM.norm>
0

>  <SCORE.heavy>
31

>  <SCORE.norm>
-0.442361

>  <RMSD>
5.873

$$$$
1byj cryst
 OpenBabel11021811383D
libRbt.so/2013.1/901 2013/11/27
 31 33  0  0  0  0  0  0  0  0999 V2000
    6.1673    1.7728    2.0083 C   0  0  1  0  0  0  0  0  0  0  0  0
    6.6201    2.9041    1.1976 O   0  0  0  0  0  0  0  0  0  0  0  0
    8.0481    3.1980    1.1420 C   0  0  2  0  0  0  0  0  0  0  0  0
    8.7788    2.1514    0.4297 O   0  0  0  0  0  0  0  0  0  0  0  0
    8.5946    3.3744    2.5914 C   0  0  2  0  0  0  0  0  0  0  0  0
   10.0389    3.6759    2.6364 N   0  3  0  0  0  0  0  0  0  0  0  0
    8.2793    2.1130    3.4361 C   0  0  0  0  0  0  0  0  0  0  0  0
    6.7728    1.8129    3.4385 C   0  0  0  0  0  0  0  0  0  0  0  0
    4.6317    1.7968    2.1066 C   0  0  0  0  0  0  0  0  0  0  0  0
    3.9750    0.6803    1.4142 N   0  3  0  0  0  0  0  0  0  0  0  0
   10.1737    2.1735   -1.6011 C   0  0  1  0  0  0  0  0  0  0  0  0
   10.1754    2.2529   -3.1472 C   0  0  0  0  0  0  0  0  0  0  0  0
    9.4185    3.5204   -3.6272 C   0  0  1  0  0  0  0  0  0  0  0  0
    9.4948    3.6245   -5.0969 N   0  3  0  0  0  0  0  0  0  0  0  0
    7.9467    3.4925   -3.1225 C   0  0  1  0  0  0  0  0  0  0  0  0
    7.8731    3.3096   -1.5858 C   0  0  1  0  0  0  0  0  0  0  0  0
    6.5021    3.1279   -1.2641 O   0  0  0  0  0  0  0  0  0  0  0  0
    8.7186    2.1161   -1.0308 C   0  0  2  0  0  0  0  0  0  0  0  0
   10.9810    1.0251   -1.1529 N   0  3  0  0  0  0  0  0  0  0  0  0
    8.5881    7.3846   -4.2247 C   0  0  0  0  0  0  0  0  0  0  0  0
    7.4723    8.4515   -4.1046 C   0  0  2  0  0  0  0  0  0  0  0  0
    7.8995    9.3923   -3.1205 O   0  0  0  0  0  0  0  0  0  0  0  0
    6.1268    7.7566   -3.6710 C   0  0  1  0  0  0  0  0  0  0  0  0
    6.3048    6.7926   -2.4491 C   0  0  2  0  0  0  0  0  0  0  0  0
    7.5456    5.8712   -2.5651 C   0  0  1  0  0  0  0  0  0  0  0  0
    7.2728    4.7441   -3.4386 O   0  0  0  0  0  0  0  0  0  0  0  0
    8.7162    6.6220   -2.9950 O   0  0  0  0  0  0  0  0  0  0  0  0
    5.1483    5.9839   -2.2502 O   0  0  0  0  0  0  0  0  0  0  0  0
    5.0923    8.7966   -3.3766 N   0  3  0  0  0  0  0  0  0  0  0  0
    4.6377    9.6296   -4.5085 C   0  0  0  0  0  0  0  0  0  0  0  0
    7.3657    9.2098   -5.4505 C   0  0  0  0  0  0  0  0  0  0  0  0
  1  8  1  0  0  0  0
  1  9  1  1  0  0  0
  1  2  1  0  0  0  0
  2  3  1  0  0  0  0
  3  5  1  0  0  0  0
  3  4  1  1  0  0  0
  5  7  1  0  0  0  0
  5  6  1  6  0  0  0
  7  8  1  0  0  0  0
  9 10  1  0  0  0  0
 11 12  1  0  0  0  0
 11 18  1  0  0  0  0
 11 19  1  6  0  0  0
 12 13  1  0  0  0  0
 13 15  1  0  0  0  0
 13 14  1  6  0  0  0
 15 16  1  0  0  0  0
 15 26  1  1  0  0  0
 16 18  1  0  0  0  0
 16 17  1  6  0  0  0
 18  4  1  1  0  0  0
 20 21  1  0  0  0  0
 20 27  1  0  0  0  0
 21 31  1  6  0  0  0
 21 23  1  0  0  0  0
 21 22  1  0  0  0  0
 23 24  1  0  0  0  0
 23 29  1  1  0  0  0
 24 25  1  0  0  0  0
 24 28  1  6  0  0  0
 25 27  1  0  0  0  0
 25 26  1  6  0  0  0
 29 30  1  0  0  0  0
M  CHG  5   6   1  10   1  14   1  19   1  29   1
M  END
>  <CHROM.1>
112.52780201,77.03421398,123.70738586,159.58676375,-176.70253887,-103.87802155
-158.22377563,-79.33480416,59.89284341,-178.23355693,-173.62231320,-60.53344616
-147.64715944,7.57535333,4.47882447,-1.40588447,1.46719071,-0.59048006,2.33824694

>  <Name>
1byj cryst

>  <RI>
0

>  <Rbt.Current_Directory>
/home/itssahil/PROJECTS/Mol_Feturizer/New_Systems/rnas/1byj

>  <Rbt.Executable>
rbdock ($Id: //depot/dev/client3/rdock/2013.1/src/exe/rbdock.cxx#4 $)

>  <Rbt.Library>
libRbt.so (2013.1, Build901 2013/11/27)

>  <Rbt.Parameter_File>
/export/apps/rDock/src/rDock_2013.1_src/data/scripts/dock_solv.prm

>  <Rbt.Receptor>
prm/blind_docking_60.prm

>  <SCORE>
-11.449

>  <SCORE.INTER>
-24.627

>  <SCORE.INTER.CONST>
1

>  <SCORE.INTER.POLAR>
-4.07911

>  <SCORE.INTER.ROT>
6

>  <SCORE.INTER.SOLV>
30.6667

>  <SCORE.INTER.VDW>
-20.6432

>  <SCORE.INTER.norm>
-0.794421

>  <SCORE.INTRA>
6.83853

>  <SCORE.INTRA.DIHEDRAL>
6.21327

>  <SCORE.INTRA.DIHEDRAL.0>
18.4149

>  <SCORE.INTRA.POLAR>
0

>  <SCORE.INTRA.POLAR.0>
0

>  <SCORE.INTRA.REPUL>
-0.092687

>  <SCORE.INTRA.REPUL.0>
0.092687

>  <SCORE.INTRA.SOLV>
-3.70864

>  <SCORE.INTRA.SOLV.lig_0>
-120.37

>  <SCORE.INTRA.VDW>
6.04964

>  <SCORE.INTRA.VDW.0>
-1.75542

>  <SCORE.INTRA.norm>
0.220598

>  <SCORE.RESTR>
6.33948

>  <SCORE.RESTR.CAVITY>
6.33948

>  <SCORE.RESTR.norm>
0.204499

>  <SCORE.SYSTEM>
0

>  <SCORE.SYSTEM.CONST>
0

>  <SCORE.SYSTEM.DIHEDRAL>
0

>  <SCORE.SYSTEM.SOLV>
0

>  <SCORE.SYSTEM.norm>
0

>  <SCORE.heavy>
31

>  <SCORE.norm>
-0.369324

>  <RMSD>
5.882

$$$$
1byj cryst
 OpenBabel11021811383D
libRbt.so/2013.1/901 2013/11/27
 31 33  0  0  0  0  0  0  0  0999 V2000
    7.1012    4.4691    0.1597 C   0  0  1  0  0  0  0  0  0  0  0  0
    8.4509    3.9426   -0.0481 O   0  0  0  0  0  0  0  0  0  0  0  0
    8.6886    2.5199    0.1714 C   0  0  2  0  0  0  0  0  0  0  0  0
    8.0118    1.7061   -0.8367 O   0  0  0  0  0  0  0  0  0  0  0  0
    8.2203    2.1350    1.6077 C   0  0  2  0  0  0  0  0  0  0  0  0
    8.4221    0.7070    1.9228 N   0  3  0  0  0  0  0  0  0  0  0  0
    6.7333    2.5271    1.8055 C   0  0  0  0  0  0  0  0  0  0  0  0
    6.5153    4.0220    1.5274 C   0  0  0  0  0  0  0  0  0  0  0  0
    7.1379    6.0064    0.1015 C   0  0  0  0  0  0  0  0  0  0  0  0
    5.8380    6.6203   -0.1996 N   0  3  0  0  0  0  0  0  0  0  0  0
    9.6157    2.2223   -2.6343 C   0  0  1  0  0  0  0  0  0  0  0  0
    9.7856    2.7446   -4.0817 C   0  0  0  0  0  0  0  0  0  0  0  0
    9.1304    4.1435   -4.2351 C   0  0  1  0  0  0  0  0  0  0  0  0
    9.3671    4.6626   -5.5958 N   0  3  0  0  0  0  0  0  0  0  0  0
    7.6130    4.0677   -3.8982 C   0  0  1  0  0  0  0  0  0  0  0  0
    7.3690    3.4539   -2.4968 C   0  0  1  0  0  0  0  0  0  0  0  0
    5.9658    3.2774   -2.3700 O   0  0  0  0  0  0  0  0  0  0  0  0
    8.1068    2.0982   -2.2421 C   0  0  2  0  0  0  0  0  0  0  0  0
   10.3287    0.9431   -2.4714 N   0  3  0  0  0  0  0  0  0  0  0  0
    5.9757    7.9890   -5.1235 C   0  0  0  0  0  0  0  0  0  0  0  0
    6.4245    9.1135   -4.1583 C   0  0  2  0  0  0  0  0  0  0  0  0
    7.2784    9.9833   -4.9001 O   0  0  0  0  0  0  0  0  0  0  0  0
    7.1913    8.4807   -2.9364 C   0  0  1  0  0  0  0  0  0  0  0  0
    8.2921    7.4552   -3.3727 C   0  0  2  0  0  0  0  0  0  0  0  0
    7.8169    6.4682   -4.4691 C   0  0  1  0  0  0  0  0  0  0  0  0
    7.0222    5.3987   -3.8927 O   0  0  0  0  0  0  0  0  0  0  0  0
    7.1029    7.1669   -5.5278 O   0  0  0  0  0  0  0  0  0  0  0  0
    8.7786    6.7080   -2.2608 O   0  0  0  0  0  0  0  0  0  0  0  0
    7.7848    9.5660   -2.0947 N   0  3  0  0  0  0  0  0  0  0  0  0
    8.4344    9.1566   -0.8329 C   0  0  0  0  0  0  0  0  0  0  0  0
    5.1794    9.9353   -3.7427 C   0  0  0  0  0  0  0  0  0  0  0  0
  1  8  1  0  0  0  0
  1  9  1  1  0  0  0
  1  2  1  0  0  0  0
  2  3  1  0  0  0  0
  3  5  1  0  0  0  0
  3  4  1  6  0  0  0
  5  7  1  0  0  0  0
  5  6  1  6  0  0  0
  7  8  1  0  0  0  0
  9 10  1  0  0  0  0
 11 12  1  0  0  0  0
 11 18  1  0  0  0  0
 11 19  1  6  0  0  0
 12 13  1  0  0  0  0
 13 15  1  0  0  0  0
 13 14  1  6  0  0  0
 15 16  1  0  0  0  0
 15 26  1  1  0  0  0
 16 18  1  0  0  0  0
 16 17  1  6  0  0  0
 18  4  1  1  0  0  0
 20 21  1  0  0  0  0
 20 27  1  0  0  0  0
 21 31  1  1  0  0  0
 21 23  1  0  0  0  0
 21 22  1  0  0  0  0
 23 24  1  0  0  0  0
 23 29  1  6  0  0  0
 24 25  1  0  0  0  0
 24 28  1  1  0  0  0
 25 27  1  0  0  0  0
 25 26  1  1  0  0  0
 29 30  1  0  0  0  0
M  CHG  5   6   1  10   1  14   1  19   1  29   1
M  END
>  <CHROM.1>
158.57866073,45.51821342,54.97147813,-141.95178097,56.61371418,65.23489804
-137.82487097,13.22185142,-177.65306968,-78.99760255,-64.50857295,165.73218011
-111.07411178,7.73767901,5.15815122,-2.16870918,1.15847972,-1.16203520,2.23331344

>  <Name>
1byj cryst

>  <RI>
0

>  <Rbt.Current_Directory>
/home/itssahil/PROJECTS/Mol_Feturizer/New_Systems/rnas/1byj

>  <Rbt.Executable>
rbdock ($Id: //depot/dev/client3/rdock/2013.1/src/exe/rbdock.cxx#4 $)

>  <Rbt.Library>
libRbt.so (2013.1, Build901 2013/11/27)

>  <Rbt.Parameter_File>
/export/apps/rDock/src/rDock_2013.1_src/data/scripts/dock_solv.prm

>  <Rbt.Receptor>
prm/blind_docking_60.prm

>  <SCORE>
-16.3564

>  <SCORE.INTER>
-31.4015

>  <SCORE.INTER.CONST>
1

>  <SCORE.INTER.POLAR>
-4.67609

>  <SCORE.INTER.ROT>
6

>  <SCORE.INTER.SOLV>
32.4387

>  <SCORE.INTER.VDW>
-23.7603

>  <SCORE.INTER.norm>
-1.01295

>  <SCORE.INTRA>
8.72428

>  <SCORE.INTRA.DIHEDRAL>
5.62744

>  <SCORE.INTRA.DIHEDRAL.0>
18.4149

>  <SCORE.INTRA.POLAR>
-0.00875686

>  <SCORE.INTRA.POLAR.0>
0

>  <SCORE.INTRA.REPUL>
0.0426056

>  <SCORE.INTRA.REPUL.0>
0.092687

>  <SCORE.INTRA.SOLV>
3.76269

>  <SCORE.INTRA.SOLV.lig_0>
-120.37

>  <SCORE.INTRA.VDW>
3.84596

>  <SCORE.INTRA.VDW.0>
-1.75542

>  <SCORE.INTRA.norm>
0.281428

>  <SCORE.RESTR>
6.32078

>  <SCORE.RESTR.CAVITY>
6.32078

>  <SCORE.RESTR.norm>
0.203896

>  <SCORE.SYSTEM>
0

>  <SCORE.SYSTEM.CONST>
0

>  <SCORE.SYSTEM.DIHEDRAL>
0

>  <SCORE.SYSTEM.SOLV>
0

>  <SCORE.SYSTEM.norm>
0

>  <SCORE.heavy>
31

>  <SCORE.norm>
-0.527626

>  <RMSD>
5.904

$$$$
1byj cryst
 OpenBabel11021811383D
libRbt.so/2013.1/901 2013/11/27
 31 33  0  0  0  0  0  0  0  0999 V2000
    9.1198    1.7887   -1.7012 C   0  0  1  0  0  0  0  0  0  0  0  0
   10.0033    2.8143   -2.2575 O   0  0  0  0  0  0  0  0  0  0  0  0
   10.2881    2.7915   -3.6883 C   0  0  2  0  0  0  0  0  0  0  0  0
    9.0993    3.1218   -4.4722 O   0  0  0  0  0  0  0  0  0  0  0  0
   10.8450    1.3892   -4.0805 C   0  0  2  0  0  0  0  0  0  0  0  0
   11.1636    1.2701   -5.5169 N   0  3  0  0  0  0  0  0  0  0  0  0
    9.8464    0.2821   -3.6550 C   0  0  0  0  0  0  0  0  0  0  0  0
    9.5408    0.3627   -2.1517 C   0  0  0  0  0  0  0  0  0  0  0  0
    9.1518    1.8655   -0.1646 C   0  0  0  0  0  0  0  0  0  0  0  0
   10.2325    2.7073    0.3654 N   0  3  0  0  0  0  0  0  0  0  0  0
    9.1597    5.4758   -3.7474 C   0  0  1  0  0  0  0  0  0  0  0  0
    8.3371    6.6570   -3.1776 C   0  0  0  0  0  0  0  0  0  0  0  0
    7.6394    6.2447   -1.8535 C   0  0  1  0  0  0  0  0  0  0  0  0
    6.9235    7.4012   -1.2818 N   0  3  0  0  0  0  0  0  0  0  0  0
    6.6895    5.0367   -2.0985 C   0  0  1  0  0  0  0  0  0  0  0  0
    7.4321    3.8522   -2.7661 C   0  0  1  0  0  0  0  0  0  0  0  0
    6.4438    2.8870   -3.0942 O   0  0  0  0  0  0  0  0  0  0  0  0
    8.2546    4.2345   -4.0407 C   0  0  2  0  0  0  0  0  0  0  0  0
    9.8996    5.9069   -4.9466 N   0  3  0  0  0  0  0  0  0  0  0  0
    6.3597    4.2559    2.1927 C   0  0  0  0  0  0  0  0  0  0  0  0
    5.6783    2.9057    2.5246 C   0  0  2  0  0  0  0  0  0  0  0  0
    6.6707    2.0742    3.1245 O   0  0  0  0  0  0  0  0  0  0  0  0
    5.1275    2.2565    1.1992 C   0  0  1  0  0  0  0  0  0  0  0  0
    6.1854    2.2388    0.0440 C   0  0  2  0  0  0  0  0  0  0  0  0
    6.9489    3.5781   -0.1148 C   0  0  1  0  0  0  0  0  0  0  0  0
    6.1469    4.5479   -0.8386 O   0  0  0  0  0  0  0  0  0  0  0  0
    7.3846    4.0880    1.1771 O   0  0  0  0  0  0  0  0  0  0  0  0
    5.5881    1.8990   -1.2046 O   0  0  0  0  0  0  0  0  0  0  0  0
    4.6310    0.8737    1.4816 N   0  3  0  0  0  0  0  0  0  0  0  0
    4.3196    0.0218    0.3158 C   0  0  0  0  0  0  0  0  0  0  0  0
    4.5809    3.1535    3.5889 C   0  0  0  0  0  0  0  0  0  0  0  0
  1  8  1  0  0  0  0
  1  9  1  1  0  0  0
  1  2  1  0  0  0  0
  2  3  1  0  0  0  0
  3  5  1  0  0  0  0
  3  4  1  6  0  0  0
  5  7  1  0  0  0  0
  5  6  1  6  0  0  0
  7  8  1  0  0  0  0
  9 10  1  0  0  0  0
 11 12  1  0  0  0  0
 11 18  1  0  0  0  0
 11 19  1  6  0  0  0
 12 13  1  0  0  0  0
 13 15  1  0  0  0  0
 13 14  1  6  0  0  0
 15 16  1  0  0  0  0
 15 26  1  1  0  0  0
 16 18  1  0  0  0  0
 16 17  1  6  0  0  0
 18  4  1  1  0  0  0
 20 21  1  0  0  0  0
 20 27  1  0  0  0  0
 21 31  1  1  0  0  0
 21 23  1  0  0  0  0
 21 22  1  0  0  0  0
 23 24  1  0  0  0  0
 23 29  1  1  0  0  0
 24 25  1  0  0  0  0
 24 28  1  6  0  0  0
 25 27  1  0  0  0  0
 25 26  1  1  0  0  0
 29 30  1  0  0  0  0
M  CHG  5   6   1  10   1  14   1  19   1  29   1
M  END
>  <CHROM.1>
-12.34183343,43.66608206,48.45204751,-69.21703383,159.73673575,-40.90878441
-169.02474389,-86.19964475,45.68257489,-54.41959909,-47.51469577,70.02049481
-118.80267098,7.73383671,3.16266763,-1.31891735,-0.36008651,-0.90159013,2.82530785

>  <Name>
1byj cryst

>  <RI>
0

>  <Rbt.Current_Directory>
/home/itssahil/PROJECTS/Mol_Feturizer/New_Systems/rnas/1byj

>  <Rbt.Executable>
rbdock ($Id: //depot/dev/client3/rdock/2013.1/src/exe/rbdock.cxx#4 $)

>  <Rbt.Library>
libRbt.so (2013.1, Build901 2013/11/27)

>  <Rbt.Parameter_File>
/export/apps/rDock/src/rDock_2013.1_src/data/scripts/dock_solv.prm

>  <Rbt.Receptor>
prm/blind_docking_60.prm

>  <SCORE>
-16.0616

>  <SCORE.INTER>
-30.1216

>  <SCORE.INTER.CONST>
1

>  <SCORE.INTER.POLAR>
-5.27705

>  <SCORE.INTER.ROT>
6

>  <SCORE.INTER.SOLV>
39.1004

>  <SCORE.INTER.VDW>
-23.1244

>  <SCORE.INTER.norm>
-0.971665

>  <SCORE.INTRA>
7.08582

>  <SCORE.INTRA.DIHEDRAL>
2.69265

>  <SCORE.INTRA.DIHEDRAL.0>
18.4149

>  <SCORE.INTRA.POLAR>
-0.119795

>  <SCORE.INTRA.POLAR.0>
0

>  <SCORE.INTRA.REPUL>
-0.092687

>  <SCORE.INTRA.REPUL.0>
0.092687

>  <SCORE.INTRA.SOLV>
0.983015

>  <SCORE.INTRA.SOLV.lig_0>
-120.37

>  <SCORE.INTRA.VDW>
6.11872

>  <SCORE.INTRA.VDW.0>
-1.75542

>  <SCORE.INTRA.norm>
0.228575

>  <SCORE.RESTR>
6.97421

>  <SCORE.RESTR.CAVITY>
6.97421

>  <SCORE.RESTR.norm>
0.224975

>  <SCORE.SYSTEM>
0

>  <SCORE.SYSTEM.CONST>
0

>  <SCORE.SYSTEM.DIHEDRAL>
0

>  <SCORE.SYSTEM.SOLV>
0

>  <SCORE.SYSTEM.norm>
0

>  <SCORE.heavy>
31

>  <SCORE.norm>
-0.518115

>  <RMSD>
5.914

$$$$
1byj cryst
 OpenBabel11021811383D
libRbt.so/2013.1/901 2013/11/27
 31 33  0  0  0  0  0  0  0  0999 V2000
    5.4325    1.7938   -0.1258 C   0  0  1  0  0  0  0  0  0  0  0  0
    6.4773    2.7604   -0.4665 O   0  0  0  0  0  0  0  0  0  0  0  0
    7.8619    2.3039   -0.5217 C   0  0  2  0  0  0  0  0  0  0  0  0
    8.0765    1.3915   -1.6434 O   0  0  0  0  0  0  0  0  0  0  0  0
    8.2347    1.6248    0.8311 C   0  0  2  0  0  0  0  0  0  0  0  0
    9.6243    1.1282    0.8699 N   0  3  0  0  0  0  0  0  0  0  0  0
    7.2413    0.4753    1.1410 C   0  0  0  0  0  0  0  0  0  0  0  0
    5.7927    0.9859    1.1515 C   0  0  0  0  0  0  0  0  0  0  0  0
    4.1038    2.5362    0.1012 C   0  0  0  0  0  0  0  0  0  0  0  0
    3.8358    3.5893   -0.8870 N   0  3  0  0  0  0  0  0  0  0  0  0
    9.6906    2.1030   -3.3635 C   0  0  1  0  0  0  0  0  0  0  0  0
    9.8692    2.7883   -4.7401 C   0  0  0  0  0  0  0  0  0  0  0  0
    9.2221    4.1993   -4.7329 C   0  0  1  0  0  0  0  0  0  0  0  0
    9.4672    4.8709   -6.0235 N   0  3  0  0  0  0  0  0  0  0  0  0
    7.7030    4.0938   -4.4122 C   0  0  1  0  0  0  0  0  0  0  0  0
    7.4500    3.3234   -3.0922 C   0  0  1  0  0  0  0  0  0  0  0  0
    6.0454    3.1416   -2.9915 O   0  0  0  0  0  0  0  0  0  0  0  0
    8.1795    1.9430   -2.9936 C   0  0  2  0  0  0  0  0  0  0  0  0
   10.3960    0.8093   -3.3474 N   0  3  0  0  0  0  0  0  0  0  0  0
    6.0772    8.1135   -5.2405 C   0  0  0  0  0  0  0  0  0  0  0  0
    6.5079    9.1396   -4.1639 C   0  0  2  0  0  0  0  0  0  0  0  0
    7.3676   10.0807   -4.8053 O   0  0  0  0  0  0  0  0  0  0  0  0
    7.2614    8.3929   -2.9994 C   0  0  1  0  0  0  0  0  0  0  0  0
    8.3727    7.4186   -3.5188 C   0  0  2  0  0  0  0  0  0  0  0  0
    7.9167    6.5421   -4.7128 C   0  0  1  0  0  0  0  0  0  0  0  0
    7.1193    5.4186   -4.2548 O   0  0  0  0  0  0  0  0  0  0  0  0
    7.2135    7.3386   -5.7078 O   0  0  0  0  0  0  0  0  0  0  0  0
    8.8478    6.5679   -2.4787 O   0  0  0  0  0  0  0  0  0  0  0  0
    7.8385    9.3925   -2.0476 N   0  3  0  0  0  0  0  0  0  0  0  0
    6.8832   10.2207   -1.2839 C   0  0  0  0  0  0  0  0  0  0  0  0
    5.2537    9.9127   -3.6871 C   0  0  0  0  0  0  0  0  0  0  0  0
  1  8  1  0  0  0  0
  1  9  1  1  0  0  0
  1  2  1  0  0  0  0
  2  3  1  0  0  0  0
  3  5  1  0  0  0  0
  3  4  1  6  0  0  0
  5  7  1  0  0  0  0
  5  6  1  6  0  0  0
  7  8  1  0  0  0  0
  9 10  1  0  0  0  0
 11 12  1  0  0  0  0
 11 18  1  0  0  0  0
 11 19  1  6  0  0  0
 12 13  1  0  0  0  0
 13 15  1  0  0  0  0
 13 14  1  6  0  0  0
 15 16  1  0  0  0  0
 15 26  1  1  0  0  0
 16 18  1  0  0  0  0
 16 17  1  6  0  0  0
 18  4  1  1  0  0  0
 20 21  1  0  0  0  0
 20 27  1  0  0  0  0
 21 31  1  1  0  0  0
 21 23  1  0  0  0  0
 21 22  1  0  0  0  0
 23 24  1  0  0  0  0
 23 29  1  1  0  0  0
 24 25  1  0  0  0  0
 24 28  1  1  0  0  0
 25 27  1  0  0  0  0
 25 26  1  1  0  0  0
 29 30  1  0  0  0  0
M  CHG  5   6   1  10   1  14   1  19   1  29   1
M  END
>  <CHROM.1>
42.69618756,76.37139635,97.10594654,178.37757768,-49.05479028,-171.37293802
-13.52714754,13.81168452,-158.60572768,176.35380783,-173.33276087,-52.96882834
-112.52359781,7.47561521,4.67838809,-2.58861840,1.50424604,-0.82167516,2.64551611

>  <Name>
1byj cryst

>  <RI>
0

>  <Rbt.Current_Directory>
/home/itssahil/PROJECTS/Mol_Feturizer/New_Systems/rnas/1byj

>  <Rbt.Executable>
rbdock ($Id: //depot/dev/client3/rdock/2013.1/src/exe/rbdock.cxx#4 $)

>  <Rbt.Library>
libRbt.so (2013.1, Build901 2013/11/27)

>  <Rbt.Parameter_File>
/export/apps/rDock/src/rDock_2013.1_src/data/scripts/dock_solv.prm

>  <Rbt.Receptor>
prm/blind_docking_100.prm

>  <SCORE>
14.4164

>  <SCORE.INTER>
-10.0441

>  <SCORE.INTER.CONST>
1

>  <SCORE.INTER.POLAR>
-2.12631

>  <SCORE.INTER.ROT>
6

>  <SCORE.INTER.SOLV>
31.8454

>  <SCORE.INTER.VDW>
-17.8235

>  <SCORE.INTER.norm>
-0.324004

>  <SCORE.INTRA>
10.793

>  <SCORE.INTRA.DIHEDRAL>
8.20467

>  <SCORE.INTRA.DIHEDRAL.0>
18.4149

>  <SCORE.INTRA.POLAR>
-0.742437

>  <SCORE.INTRA.POLAR.0>
0

>  <SCORE.INTRA.REPUL>
-0.0769083

>  <SCORE.INTRA.REPUL.0>
0.092687

>  <SCORE.INTRA.SOLV>
2.53441

>  <SCORE.INTRA.SOLV.lig_0>
-120.37

>  <SCORE.INTRA.VDW>
8.33224

>  <SCORE.INTRA.VDW.0>
-1.75542

>  <SCORE.INTRA.norm>
0.34816

>  <SCORE.RESTR>
13.6676

>  <SCORE.RESTR.CAVITY>
13.6676

>  <SCORE.RESTR.norm>
0.440891

>  <SCORE.SYSTEM>
0

>  <SCORE.SYSTEM.CONST>
0

>  <SCORE.SYSTEM.DIHEDRAL>
0

>  <SCORE.SYSTEM.SOLV>
0

>  <SCORE.SYSTEM.norm>
0

>  <SCORE.heavy>
31

>  <SCORE.norm>
0.465046

>  <RMSD>
5.926

$$$$
1byj cryst
 OpenBabel11021811383D
libRbt.so/2013.1/901 2013/11/27
 31 33  0  0  0  0  0  0  0  0999 V2000
    6.2401    8.6320   -3.5890 C   0  0  1  0  0  0  0  0  0  0  0  0
    5.6109    7.3926   -4.0472 O   0  0  0  0  0  0  0  0  0  0  0  0
    5.5860    6.2457   -3.1458 C   0  0  2  0  0  0  0  0  0  0  0  0
    4.7111    6.4886   -2.0003 O   0  0  0  0  0  0  0  0  0  0  0  0
    7.0390    5.9237   -2.6816 C   0  0  2  0  0  0  0  0  0  0  0  0
    7.1146    4.7718   -1.7615 N   0  3  0  0  0  0  0  0  0  0  0  0
    7.6801    7.1771   -2.0319 C   0  0  0  0  0  0  0  0  0  0  0  0
    7.6522    8.3732   -2.9952 C   0  0  0  0  0  0  0  0  0  0  0  0
    6.3578    9.6121   -4.7696 C   0  0  0  0  0  0  0  0  0  0  0  0
    7.0541   10.8617   -4.4366 N   0  3  0  0  0  0  0  0  0  0  0  0
    2.6159    7.6835   -2.5032 C   0  0  1  0  0  0  0  0  0  0  0  0
    1.0730    7.5788   -2.5751 C   0  0  0  0  0  0  0  0  0  0  0  0
    0.4971    7.0963   -1.2167 C   0  0  1  0  0  0  0  0  0  0  0  0
   -0.9771    7.0759   -1.2749 N   0  3  0  0  0  0  0  0  0  0  0  0
    1.0831    5.7028   -0.8475 C   0  0  1  0  0  0  0  0  0  0  0  0
    2.6323    5.7131   -0.8597 C   0  0  1  0  0  0  0  0  0  0  0  0
    3.0484    4.3674   -0.6807 O   0  0  0  0  0  0  0  0  0  0  0  0
    3.2694    6.3046   -2.1603 C   0  0  2  0  0  0  0  0  0  0  0  0
    3.1441    8.2397   -3.7614 N   0  3  0  0  0  0  0  0  0  0  0  0
    0.7081    2.3053   -0.0453 C   0  0  0  0  0  0  0  0  0  0  0  0
    0.4716    1.6383    1.3320 C   0  0  2  0  0  0  0  0  0  0  0  0
   -0.7353    0.8841    1.2280 O   0  0  0  0  0  0  0  0  0  0  0  0
    0.3449    2.7517    2.4390 C   0  0  1  0  0  0  0  0  0  0  0  0
   -0.6451    3.8982    2.0398 C   0  0  2  0  0  0  0  0  0  0  0  0
   -0.4578    4.3970    0.5845 C   0  0  1  0  0  0  0  0  0  0  0  0
    0.6670    5.3103    0.4916 O   0  0  0  0  0  0  0  0  0  0  0  0
   -0.3288    3.2792   -0.3389 O   0  0  0  0  0  0  0  0  0  0  0  0
   -0.5387    5.0105    2.9246 O   0  0  0  0  0  0  0  0  0  0  0  0
   -0.0632    2.1301    3.7373 N   0  3  0  0  0  0  0  0  0  0  0  0
    1.0190    1.6475    4.6193 C   0  0  0  0  0  0  0  0  0  0  0  0
    1.6199    0.6344    1.5995 C   0  0  0  0  0  0  0  0  0  0  0  0
  1  8  1  0  0  0  0
  1  9  1  6  0  0  0
  1  2  1  0  0  0  0
  2  3  1  0  0  0  0
  3  5  1  0  0  0  0
  3  4  1  1  0  0  0
  5  7  1  0  0  0  0
  5  6  1  1  0  0  0
  7  8  1  0  0  0  0
  9 10  1  0  0  0  0
 11 12  1  0  0  0  0
 11 18  1  0  0  0  0
 11 19  1  6  0  0  0
 12 13  1  0  0  0  0
 13 15  1  0  0  0  0
 13 14  1  6  0  0  0
 15 16  1  0  0  0  0
 15 26  1  1  0  0  0
 16 18  1  0  0  0  0
 16 17  1  6  0  0  0
 18  4  1  1  0  0  0
 20 21  1  0  0  0  0
 20 27  1  0  0  0  0
 21 31  1  1  0  0  0
 21 23  1  0  0  0  0
 21 22  1  0  0  0  0
 23 24  1  0  0  0  0
 23 29  1  1  0  0  0
 24 25  1  0  0  0  0
 24 28  1  1  0  0  0
 25 27  1  0  0  0  0
 25 26  1  1  0  0  0
 29 30  1  0  0  0  0
M  CHG  5   6   1  10   1  14   1  19   1  29   1
M  END
>  <CHROM.1>
-176.39885569,80.98990658,-94.69081311,61.16910858,58.11971894,-13.80110706
-50.09732714,98.83895631,-64.60470994,61.28269038,-150.54793342,179.46488709
171.15664769,2.67861416,5.45247864,-0.85057659,-0.88966737,-0.19429009,2.52170559

>  <Name>
1byj cryst

>  <RI>
0

>  <Rbt.Current_Directory>
/home/itssahil/PROJECTS/Mol_Feturizer/New_Systems/rnas/1byj

>  <Rbt.Executable>
rbdock ($Id: //depot/dev/client3/rdock/2013.1/src/exe/rbdock.cxx#4 $)

>  <Rbt.Library>
libRbt.so (2013.1, Build901 2013/11/27)

>  <Rbt.Parameter_File>
/export/apps/rDock/src/rDock_2013.1_src/data/scripts/dock_solv.prm

>  <Rbt.Receptor>
prm/pocket_docking_7.prm

>  <SCORE>
-33.5778

>  <SCORE.INTER>
-29.66

>  <SCORE.INTER.CONST>
1

>  <SCORE.INTER.POLAR>
-5.62421

>  <SCORE.INTER.ROT>
6

>  <SCORE.INTER.SOLV>
13.5069

>  <SCORE.INTER.VDW>
-13.1283

>  <SCORE.INTER.norm>
-0.956775

>  <SCORE.INTRA>
-3.91782

>  <SCORE.INTRA.DIHEDRAL>
-0.869155

>  <SCORE.INTRA.DIHEDRAL.0>
18.4149

>  <SCORE.INTRA.POLAR>
-1.0705

>  <SCORE.INTRA.POLAR.0>
0

>  <SCORE.INTRA.REPUL>
-0.092687

>  <SCORE.INTRA.REPUL.0>
0.092687

>  <SCORE.INTRA.SOLV>
0.409643

>  <SCORE.INTRA.SOLV.lig_0>
-120.37

>  <SCORE.INTRA.VDW>
0.415057

>  <SCORE.INTRA.VDW.0>
-1.75542

>  <SCORE.INTRA.norm>
-0.126381

>  <SCORE.RESTR>
0

>  <SCORE.RESTR.CAVITY>
0

>  <SCORE.RESTR.norm>
0

>  <SCORE.SYSTEM>
0

>  <SCORE.SYSTEM.CONST>
0

>  <SCORE.SYSTEM.DIHEDRAL>
0

>  <SCORE.SYSTEM.SOLV>
0

>  <SCORE.SYSTEM.norm>
0

>  <SCORE.heavy>
31

>  <SCORE.norm>
-1.08316

>  <RMSD>
5.938

$$$$
1byj cryst
 OpenBabel11021811383D
libRbt.so/2013.1/901 2013/11/27
 31 33  0  0  0  0  0  0  0  0999 V2000
    6.4552    1.7681    0.9653 C   0  0  1  0  0  0  0  0  0  0  0  0
    6.8549    3.1212    0.5762 O   0  0  0  0  0  0  0  0  0  0  0  0
    8.1954    3.5816    0.9224 C   0  0  2  0  0  0  0  0  0  0  0  0
    9.2172    2.8589    0.1672 O   0  0  0  0  0  0  0  0  0  0  0  0
    8.4152    3.4201    2.4573 C   0  0  2  0  0  0  0  0  0  0  0  0
    9.7509    3.8624    2.9040 N   0  3  0  0  0  0  0  0  0  0  0  0
    8.1641    1.9493    2.8789 C   0  0  0  0  0  0  0  0  0  0  0  0
    6.7591    1.4884    2.4630 C   0  0  0  0  0  0  0  0  0  0  0  0
    4.9483    1.5875    0.7110 C   0  0  0  0  0  0  0  0  0  0  0  0
    4.5380    0.1871    0.5439 N   0  3  0  0  0  0  0  0  0  0  0  0
    9.9861    1.4464   -1.6994 C   0  0  1  0  0  0  0  0  0  0  0  0
    9.8421    1.1381   -3.2096 C   0  0  0  0  0  0  0  0  0  0  0  0
   10.0839    2.4197   -4.0515 C   0  0  1  0  0  0  0  0  0  0  0  0
   10.0208    2.0955   -5.4894 N   0  3  0  0  0  0  0  0  0  0  0  0
    9.0592    3.5232   -3.6593 C   0  0  1  0  0  0  0  0  0  0  0  0
    9.0798    3.8068   -2.1364 C   0  0  1  0  0  0  0  0  0  0  0  0
    8.0012    4.6922   -1.8739 O   0  0  0  0  0  0  0  0  0  0  0  0
    8.9619    2.5335   -1.2352 C   0  0  2  0  0  0  0  0  0  0  0  0
    9.8571    0.2054   -0.9154 N   0  3  0  0  0  0  0  0  0  0  0  0
    6.3695    4.6661   -3.7912 C   0  0  0  0  0  0  0  0  0  0  0  0
    5.9593    6.1205   -3.4536 C   0  0  2  0  0  0  0  0  0  0  0  0
    5.0097    6.5251   -4.4388 O   0  0  0  0  0  0  0  0  0  0  0  0
    7.2335    7.0460   -3.4876 C   0  0  1  0  0  0  0  0  0  0  0  0
    8.0973    6.8467   -4.7792 C   0  0  2  0  0  0  0  0  0  0  0  0
    8.3213    5.3583   -5.1486 C   0  0  1  0  0  0  0  0  0  0  0  0
    9.3718    4.7756   -4.3334 O   0  0  0  0  0  0  0  0  0  0  0  0
    7.0797    4.6040   -5.0568 O   0  0  0  0  0  0  0  0  0  0  0  0
    9.3649    7.4875   -4.6627 O   0  0  0  0  0  0  0  0  0  0  0  0
    6.8230    8.4774   -3.3428 N   0  3  0  0  0  0  0  0  0  0  0  0
    6.2681    9.1405   -4.5404 C   0  0  0  0  0  0  0  0  0  0  0  0
    5.2335    6.1252   -2.0856 C   0  0  0  0  0  0  0  0  0  0  0  0
  1  8  1  0  0  0  0
  1  9  1  1  0  0  0
  1  2  1  0  0  0  0
  2  3  1  0  0  0  0
  3  5  1  0  0  0  0
  3  4  1  6  0  0  0
  5  7  1  0  0  0  0
  5  6  1  6  0  0  0
  7  8  1  0  0  0  0
  9 10  1  0  0  0  0
 11 12  1  0  0  0  0
 11 18  1  0  0  0  0
 11 19  1  1  0  0  0
 12 13  1  0  0  0  0
 13 15  1  0  0  0  0
 13 14  1  6  0  0  0
 15 16  1  0  0  0  0
 15 26  1  6  0  0  0
 16 18  1  0  0  0  0
 16 17  1  6  0  0  0
 18  4  1  1  0  0  0
 20 21  1  0  0  0  0
 20 27  1  0  0  0  0
 21 31  1  1  0  0  0
 21 23  1  0  0  0  0
 21 22  1  0  0  0  0
 23 24  1  0  0  0  0
 23 29  1  6  0  0  0
 24 25  1  0  0  0  0
 24 28  1  1  0  0  0
 25 27  1  0  0  0  0
 25 26  1  1  0  0  0
 29 30  1  0  0  0  0
M  CHG  5   6   1  10   1  14   1  19   1  29   1
M  END
>  <CHROM.1>
156.84982954,38.95749588,-164.46368376,146.01665164,-172.55165411,38.58350537
-158.64030973,123.49387127,-165.10322782,-81.17031883,43.20309499,67.04980723
128.92515178,7.84624034,3.97144147,-1.90568824,1.50171328,-0.79456586,2.22312293

>  <Name>
1byj cryst

>  <RI>
0

>  <Rbt.Current_Directory>
/home/itssahil/PROJECTS/Mol_Feturizer/New_Systems/rnas/1byj

>  <Rbt.Executable>
rbdock ($Id: //depot/dev/client3/rdock/2013.1/src/exe/rbdock.cxx#4 $)

>  <Rbt.Library>
libRbt.so (2013.1, Build901 2013/11/27)

>  <Rbt.Parameter_File>
/export/apps/rDock/src/rDock_2013.1_src/data/scripts/dock_solv.prm

>  <Rbt.Receptor>
prm/blind_docking_60.prm

>  <SCORE>
5.54822

>  <SCORE.INTER>
-2.18585

>  <SCORE.INTER.CONST>
1

>  <SCORE.INTER.POLAR>
-5.0201

>  <SCORE.INTER.ROT>
6

>  <SCORE.INTER.SOLV>
36.597

>  <SCORE.INTER.VDW>
-4.52257

>  <SCORE.INTER.norm>
-0.0705112

>  <SCORE.INTRA>
6.22262

>  <SCORE.INTRA.DIHEDRAL>
8.71406

>  <SCORE.INTRA.DIHEDRAL.0>
18.4149

>  <SCORE.INTRA.POLAR>
-0.0234047

>  <SCORE.INTRA.POLAR.0>
0

>  <SCORE.INTRA.REPUL>
-0.092687

>  <SCORE.INTRA.REPUL.0>
0.092687

>  <SCORE.INTRA.SOLV>
-4.20492

>  <SCORE.INTRA.SOLV.lig_0>
-120.37

>  <SCORE.INTRA.VDW>
4.51106

>  <SCORE.INTRA.VDW.0>
-1.75542

>  <SCORE.INTRA.norm>
0.20073

>  <SCORE.RESTR>
1.51145

>  <SCORE.RESTR.CAVITY>
1.51145

>  <SCORE.RESTR.norm>
0.0487564

>  <SCORE.SYSTEM>
0

>  <SCORE.SYSTEM.CONST>
0

>  <SCORE.SYSTEM.DIHEDRAL>
0

>  <SCORE.SYSTEM.SOLV>
0

>  <SCORE.SYSTEM.norm>
0

>  <SCORE.heavy>
31

>  <SCORE.norm>
0.178975

>  <RMSD>
5.949

$$$$
1byj cryst
 OpenBabel11021811383D
libRbt.so/2013.1/901 2013/11/27
 31 33  0  0  0  0  0  0  0  0999 V2000
    7.1267    7.5056   -3.1525 C   0  0  1  0  0  0  0  0  0  0  0  0
    6.1558    6.9631   -2.2011 O   0  0  0  0  0  0  0  0  0  0  0  0
    5.0393    7.8047   -1.7842 C   0  0  2  0  0  0  0  0  0  0  0  0
    4.1101    8.0402   -2.8878 O   0  0  0  0  0  0  0  0  0  0  0  0
    5.5903    9.1495   -1.2202 C   0  0  2  0  0  0  0  0  0  0  0  0
    4.5284   10.0712   -0.7708 N   0  3  0  0  0  0  0  0  0  0  0  0
    6.4932    9.8389   -2.2754 C   0  0  0  0  0  0  0  0  0  0  0  0
    7.6327    8.9090   -2.7186 C   0  0  0  0  0  0  0  0  0  0  0  0
    8.3248    6.5461   -3.2630 C   0  0  0  0  0  0  0  0  0  0  0  0
    9.4345    7.0723   -4.0685 N   0  3  0  0  0  0  0  0  0  0  0  0
    1.6841    8.3421   -2.5816 C   0  0  1  0  0  0  0  0  0  0  0  0
    0.3140    7.6304   -2.4685 C   0  0  0  0  0  0  0  0  0  0  0  0
    0.3459    6.5660   -1.3390 C   0  0  1  0  0  0  0  0  0  0  0  0
   -0.9870    5.9510   -1.1905 N   0  3  0  0  0  0  0  0  0  0  0  0
    1.4461    5.5046   -1.6299 C   0  0  1  0  0  0  0  0  0  0  0  0
    2.8298    6.1635   -1.8571 C   0  0  1  0  0  0  0  0  0  0  0  0
    3.7072    5.1296   -2.2782 O   0  0  0  0  0  0  0  0  0  0  0  0
    2.8325    7.3293   -2.9003 C   0  0  2  0  0  0  0  0  0  0  0  0
    1.6131    9.4194   -3.5844 N   0  3  0  0  0  0  0  0  0  0  0  0
   -0.1082    4.6808    2.0326 C   0  0  0  0  0  0  0  0  0  0  0  0
    0.6064    3.7445    3.0377 C   0  0  2  0  0  0  0  0  0  0  0  0
    0.9846    4.5451    4.1567 O   0  0  0  0  0  0  0  0  0  0  0  0
    1.8717    3.1055    2.3506 C   0  0  1  0  0  0  0  0  0  0  0  0
    2.7693    4.1631    1.6227 C   0  0  2  0  0  0  0  0  0  0  0  0
    1.9631    5.1743    0.7687 C   0  0  1  0  0  0  0  0  0  0  0  0
    1.5857    4.5898   -0.5055 O   0  0  0  0  0  0  0  0  0  0  0  0
    0.8088    5.6742    1.5012 O   0  0  0  0  0  0  0  0  0  0  0  0
    3.7454    3.5367    0.7944 O   0  0  0  0  0  0  0  0  0  0  0  0
    2.6678    2.3453    3.3639 N   0  3  0  0  0  0  0  0  0  0  0  0
    2.4980    0.8781    3.3868 C   0  0  0  0  0  0  0  0  0  0  0  0
   -0.4119    2.6945    3.5462 C   0  0  0  0  0  0  0  0  0  0  0  0
  1  8  1  0  0  0  0
  1  9  1  1  0  0  0
  1  2  1  0  0  0  0
  2  3  1  0  0  0  0
  3  5  1  0  0  0  0
  3  4  1  6  0  0  0
  5  7  1  0  0  0  0
  5  6  1  6  0  0  0
  7  8  1  0  0  0  0
  9 10  1  0  0  0  0
 11 12  1  0  0  0  0
 11 18  1  0  0  0  0
 11 19  1  6  0  0  0
 12 13  1  0  0  0  0
 13 15  1  0  0  0  0
 13 14  1  6  0  0  0
 15 16  1  0  0  0  0
 15 26  1  1  0  0  0
 16 18  1  0  0  0  0
 16 17  1  6  0  0  0
 18  4  1  1  0  0  0
 20 21  1  0  0  0  0
 20 27  1  0  0  0  0
 21 31  1  1  0  0  0
 21 23  1  0  0  0  0
 21 22  1  0  0  0  0
 23 24  1  0  0  0  0
 23 29  1  1  0  0  0
 24 25  1  0  0  0  0
 24 28  1  6  0  0  0
 25 27  1  0  0  0  0
 25 26  1  6  0  0  0
 29 30  1  0  0  0  0
M  CHG  5   6   1  10   1  14   1  19   1  29   1
M  END
>  <CHROM.1>
-172.98272779,104.92487516,108.31166221,-51.51978312,29.28910326,38.33300807
-94.83278781,-60.38331589,-174.88130925,60.17415959,-138.59930720,70.53393103
-150.31100337,3.14413552,6.09448091,-0.58128077,-0.93543470,-0.12559613,2.38128114

>  <Name>
1byj cryst

>  <RI>
0

>  <Rbt.Current_Directory>
/home/itssahil/PROJECTS/Mol_Feturizer/New_Systems/rnas/1byj

>  <Rbt.Executable>
rbdock ($Id: //depot/dev/client3/rdock/2013.1/src/exe/rbdock.cxx#4 $)

>  <Rbt.Library>
libRbt.so (2013.1, Build901 2013/11/27)

>  <Rbt.Parameter_File>
/export/apps/rDock/src/rDock_2013.1_src/data/scripts/dock_solv.prm

>  <Rbt.Receptor>
prm/pocket_docking_5.prm

>  <SCORE>
-26.3994

>  <SCORE.INTER>
-28.4789

>  <SCORE.INTER.CONST>
1

>  <SCORE.INTER.POLAR>
-5.68214

>  <SCORE.INTER.ROT>
6

>  <SCORE.INTER.SOLV>
18.8343

>  <SCORE.INTER.VDW>
-13.9236

>  <SCORE.INTER.norm>
-0.918675

>  <SCORE.INTRA>
2.01317

>  <SCORE.INTRA.DIHEDRAL>
6.9154

>  <SCORE.INTRA.DIHEDRAL.0>
18.4149

>  <SCORE.INTRA.POLAR>
-1.14244

>  <SCORE.INTRA.POLAR.0>
0

>  <SCORE.INTRA.REPUL>
0.0181515

>  <SCORE.INTRA.REPUL.0>
0.092687

>  <SCORE.INTRA.SOLV>
-0.536905

>  <SCORE.INTRA.SOLV.lig_0>
-120.37

>  <SCORE.INTRA.VDW>
2.61747

>  <SCORE.INTRA.VDW.0>
-1.75542

>  <SCORE.INTRA.norm>
0.0649411

>  <SCORE.RESTR>
0.0663146

>  <SCORE.RESTR.CAVITY>
0.0663146

>  <SCORE.RESTR.norm>
0.00213918

>  <SCORE.SYSTEM>
0

>  <SCORE.SYSTEM.CONST>
0

>  <SCORE.SYSTEM.DIHEDRAL>
0

>  <SCORE.SYSTEM.SOLV>
0

>  <SCORE.SYSTEM.norm>
0

>  <SCORE.heavy>
31

>  <SCORE.norm>
-0.851594

>  <RMSD>
5.951

$$$$
1byj cryst
 OpenBabel11021811383D
libRbt.so/2013.1/901 2013/11/27
 31 33  0  0  0  0  0  0  0  0999 V2000
    5.8468    1.9649    1.3553 C   0  0  1  0  0  0  0  0  0  0  0  0
    6.3433    3.0719    0.5366 O   0  0  0  0  0  0  0  0  0  0  0  0
    7.7528    3.0865    0.1602 C   0  0  2  0  0  0  0  0  0  0  0  0
    8.0646    2.0066   -0.7743 O   0  0  0  0  0  0  0  0  0  0  0  0
    8.6302    2.9855    1.4448 C   0  0  2  0  0  0  0  0  0  0  0  0
   10.0791    2.9928    1.1624 N   0  3  0  0  0  0  0  0  0  0  0  0
    8.2440    1.7212    2.2549 C   0  0  0  0  0  0  0  0  0  0  0  0
    6.7468    1.7219    2.5982 C   0  0  0  0  0  0  0  0  0  0  0  0
    4.4131    2.2760    1.8199 C   0  0  0  0  0  0  0  0  0  0  0  0
    3.9570    1.4403    2.9383 N   0  3  0  0  0  0  0  0  0  0  0  0
    9.6806    2.4797   -2.5730 C   0  0  1  0  0  0  0  0  0  0  0  0
    9.8568    2.9175   -4.0474 C   0  0  0  0  0  0  0  0  0  0  0  0
    9.1453    4.2738   -4.3004 C   0  0  1  0  0  0  0  0  0  0  0  0
    9.3867    4.7167   -5.6869 N   0  3  0  0  0  0  0  0  0  0  0  0
    7.6261    4.1523   -3.9856 C   0  0  1  0  0  0  0  0  0  0  0  0
    7.3807    3.6172   -2.5526 C   0  0  1  0  0  0  0  0  0  0  0  0
    5.9842    3.3872   -2.4390 O   0  0  0  0  0  0  0  0  0  0  0  0
    8.1709    2.3139   -2.1998 C   0  0  2  0  0  0  0  0  0  0  0  0
   10.4444    1.2458   -2.3172 N   0  3  0  0  0  0  0  0  0  0  0  0
    5.9196    8.1449   -5.0520 C   0  0  0  0  0  0  0  0  0  0  0  0
    6.4948    9.1945   -4.0696 C   0  0  2  0  0  0  0  0  0  0  0  0
    7.3089   10.0808   -4.8364 O   0  0  0  0  0  0  0  0  0  0  0  0
    7.3460    8.4655   -2.9627 C   0  0  1  0  0  0  0  0  0  0  0  0
    8.3646    7.4347   -3.5575 C   0  0  2  0  0  0  0  0  0  0  0  0
    7.7561    6.5311   -4.6598 C   0  0  1  0  0  0  0  0  0  0  0  0
    6.9787    5.4537   -4.0745 O   0  0  0  0  0  0  0  0  0  0  0  0
    6.9747    7.3143   -5.6058 O   0  0  0  0  0  0  0  0  0  0  0  0
    8.9227    6.6069   -2.5403 O   0  0  0  0  0  0  0  0  0  0  0  0
    8.0526    9.4789   -2.1188 N   0  3  0  0  0  0  0  0  0  0  0  0
    8.5099    9.0394   -0.7848 C   0  0  0  0  0  0  0  0  0  0  0  0
    5.3235   10.0277   -3.4937 C   0  0  0  0  0  0  0  0  0  0  0  0
  1  8  1  0  0  0  0
  1  9  1  1  0  0  0
  1  2  1  0  0  0  0
  2  3  1  0  0  0  0
  3  5  1  0  0  0  0
  3  4  1  6  0  0  0
  5  7  1  0  0  0  0
  5  6  1  6  0  0  0
  7  8  1  0  0  0  0
  9 10  1  0  0  0  0
 11 12  1  0  0  0  0
 11 18  1  0  0  0  0
 11 19  1  6  0  0  0
 12 13  1  0  0  0  0
 13 15  1  0  0  0  0
 13 14  1  6  0  0  0
 15 16  1  0  0  0  0
 15 26  1  1  0  0  0
 16 18  1  0  0  0  0
 16 17  1  6  0  0  0
 18  4  1  1  0  0  0
 20 21  1  0  0  0  0
 20 27  1  0  0  0  0
 21 31  1  1  0  0  0
 21 23  1  0  0  0  0
 21 22  1  0  0  0  0
 23 24  1  0  0  0  0
 23 29  1  6  0  0  0
 24 25  1  0  0  0  0
 24 28  1  1  0  0  0
 25 27  1  0  0  0  0
 25 26  1  1  0  0  0
 29 30  1  0  0  0  0
M  CHG  5   6   1  10   1  14   1  19   1  29   1
M  END
>  <CHROM.1>
-163.53941272,100.45980791,98.54344253,-61.74478275,87.06509821,-43.98490313
105.95197034,11.06365871,-56.46829456,-143.89926710,-79.28432049,58.09338517
-99.85284461,7.61074138,4.85016180,-1.94314560,1.62363412,-0.88317837,2.48632589

>  <Name>
1byj cryst

>  <RI>
0

>  <Rbt.Current_Directory>
/home/itssahil/PROJECTS/Mol_Feturizer/New_Systems/rnas/1byj

>  <Rbt.Executable>
rbdock ($Id: //depot/dev/client3/rdock/2013.1/src/exe/rbdock.cxx#4 $)

>  <Rbt.Library>
libRbt.so (2013.1, Build901 2013/11/27)

>  <Rbt.Parameter_File>
/export/apps/rDock/src/rDock_2013.1_src/data/scripts/dock_solv.prm

>  <Rbt.Receptor>
prm/blind_docking_60.prm

>  <SCORE>
-13.4711

>  <SCORE.INTER>
-32.742

>  <SCORE.INTER.CONST>
1

>  <SCORE.INTER.POLAR>
-4.87566

>  <SCORE.INTER.ROT>
6

>  <SCORE.INTER.SOLV>
32.979

>  <SCORE.INTER.VDW>
-24.1688

>  <SCORE.INTER.norm>
-1.05619

>  <SCORE.INTRA>
13.3889

>  <SCORE.INTRA.DIHEDRAL>
16.4847

>  <SCORE.INTRA.DIHEDRAL.0>
18.4149

>  <SCORE.INTRA.POLAR>
-0.0398845

>  <SCORE.INTRA.POLAR.0>
0

>  <SCORE.INTRA.REPUL>
-0.092687

>  <SCORE.INTRA.REPUL.0>
0.092687

>  <SCORE.INTRA.SOLV>
1.95336

>  <SCORE.INTRA.SOLV.lig_0>
-120.37

>  <SCORE.INTRA.VDW>
4.76893

>  <SCORE.INTRA.VDW.0>
-1.75542

>  <SCORE.INTRA.norm>
0.431901

>  <SCORE.RESTR>
5.88198

>  <SCORE.RESTR.CAVITY>
5.88198

>  <SCORE.RESTR.norm>
0.189741

>  <SCORE.SYSTEM>
0

>  <SCORE.SYSTEM.CONST>
0

>  <SCORE.SYSTEM.DIHEDRAL>
0

>  <SCORE.SYSTEM.SOLV>
0

>  <SCORE.SYSTEM.norm>
0

>  <SCORE.heavy>
31

>  <SCORE.norm>
-0.434552

>  <RMSD>
5.966

$$$$
1byj cryst
 OpenBabel11021811383D
libRbt.so/2013.1/901 2013/11/27
 31 33  0  0  0  0  0  0  0  0999 V2000
    6.8592    1.7098    2.8951 C   0  0  1  0  0  0  0  0  0  0  0  0
    6.2005    2.9404    2.4547 O   0  0  0  0  0  0  0  0  0  0  0  0
    5.5298    2.9499    1.1591 C   0  0  2  0  0  0  0  0  0  0  0  0
    4.3444    2.0947    1.1679 O   0  0  0  0  0  0  0  0  0  0  0  0
    6.5351    2.5014    0.0552 C   0  0  2  0  0  0  0  0  0  0  0  0
    5.9435    2.4797   -1.2971 N   0  3  0  0  0  0  0  0  0  0  0  0
    7.1279    1.1128    0.4079 C   0  0  0  0  0  0  0  0  0  0  0  0
    7.7900    1.1314    1.7938 C   0  0  0  0  0  0  0  0  0  0  0  0
    7.6875    1.9980    4.1596 C   0  0  0  0  0  0  0  0  0  0  0  0
    6.9117    1.9332    5.4051 N   0  3  0  0  0  0  0  0  0  0  0  0
    1.9474    1.6447    1.5176 C   0  0  1  0  0  0  0  0  0  0  0  0
    0.6508    2.1127    2.2222 C   0  0  0  0  0  0  0  0  0  0  0  0
    0.3435    3.5925    1.8681 C   0  0  1  0  0  0  0  0  0  0  0  0
   -0.9341    4.0011    2.4826 N   0  3  0  0  0  0  0  0  0  0  0  0
    1.5206    4.5084    2.3120 C   0  0  1  0  0  0  0  0  0  0  0  0
    2.8707    4.0300    1.7214 C   0  0  1  0  0  0  0  0  0  0  0  0
    3.8813    4.8252    2.3234 O   0  0  0  0  0  0  0  0  0  0  0  0
    3.1772    2.5121    1.9433 C   0  0  2  0  0  0  0  0  0  0  0  0
    2.1746    0.2119    1.7763 N   0  3  0  0  0  0  0  0  0  0  0  0
    3.2638    7.3626    3.6628 C   0  0  0  0  0  0  0  0  0  0  0  0
    3.2127    8.8387    3.1977 C   0  0  2  0  0  0  0  0  0  0  0  0
    2.7575    9.6102    4.3083 O   0  0  0  0  0  0  0  0  0  0  0  0
    2.2236    8.9704    1.9788 C   0  0  1  0  0  0  0  0  0  0  0  0
    0.8452    8.2712    2.2342 C   0  0  2  0  0  0  0  0  0  0  0  0
    0.9754    6.8601    2.8616 C   0  0  1  0  0  0  0  0  0  0  0  0
    1.3099    5.8734    1.8506 O   0  0  0  0  0  0  0  0  0  0  0  0
    1.9328    6.8617    3.9582 O   0  0  0  0  0  0  0  0  0  0  0  0
    0.0806    8.1728    1.0355 O   0  0  0  0  0  0  0  0  0  0  0  0
    2.0283   10.4144    1.6396 N   0  3  0  0  0  0  0  0  0  0  0  0
    1.4070   10.7187    0.3345 C   0  0  0  0  0  0  0  0  0  0  0  0
    4.6531    9.3053    2.8726 C   0  0  0  0  0  0  0  0  0  0  0  0
  1  8  1  0  0  0  0
  1  9  1  1  0  0  0
  1  2  1  0  0  0  0
  2  3  1  0  0  0  0
  3  5  1  0  0  0  0
  3  4  1  1  0  0  0
  5  7  1  0  0  0  0
  5  6  1  6  0  0  0
  7  8  1  0  0  0  0
  9 10  1  0  0  0  0
 11 12  1  0  0  0  0
 11 18  1  0  0  0  0
 11 19  1  1  0  0  0
 12 13  1  0  0  0  0
 13 15  1  0  0  0  0
 13 14  1  1  0  0  0
 15 16  1  0  0  0  0
 15 26  1  6  0  0  0
 16 18  1  0  0  0  0
 16 17  1  1  0  0  0
 18  4  1  6  0  0  0
 20 21  1  0  0  0  0
 20 27  1  0  0  0  0
 21 31  1  6  0  0  0
 21 23  1  0  0  0  0
 21 22  1  0  0  0  0
 23 24  1  0  0  0  0
 23 29  1  1  0  0  0
 24 25  1  0  0  0  0
 24 28  1  6  0  0  0
 25 27  1  0  0  0  0
 25 26  1  6  0  0  0
 29 30  1  0  0  0  0
M  CHG  5   6   1  10   1  14   1  19   1  29   1
M  END
>  <CHROM.1>
84.70470810,70.07096086,166.04424631,-62.46841433,78.35096198,175.55377214
-175.12581048,108.56025718,63.48988928,-71.11221139,-73.51555233,-175.31121824
177.41424018,3.37305901,4.84095507,2.15258883,-1.02779970,-0.13267237,0.13717786

>  <Name>
1byj cryst

>  <RI>
0

>  <Rbt.Current_Directory>
/home/itssahil/PROJECTS/Mol_Feturizer/New_Systems/rnas/1byj

>  <Rbt.Executable>
rbdock ($Id: //depot/dev/client3/rdock/2013.1/src/exe/rbdock.cxx#4 $)

>  <Rbt.Library>
libRbt.so (2013.1, Build901 2013/11/27)

>  <Rbt.Parameter_File>
/export/apps/rDock/src/rDock_2013.1_src/data/scripts/dock_solv.prm

>  <Rbt.Receptor>
prm/pocket_docking_8.prm

>  <SCORE>
-30.7387

>  <SCORE.INTER>
-24.2463

>  <SCORE.INTER.CONST>
1

>  <SCORE.INTER.POLAR>
-4.21048

>  <SCORE.INTER.ROT>
6

>  <SCORE.INTER.SOLV>
11.5906

>  <SCORE.INTER.VDW>
-13.5928

>  <SCORE.INTER.norm>
-0.782139

>  <SCORE.INTRA>
-6.49243

>  <SCORE.INTRA.DIHEDRAL>
-6.05539

>  <SCORE.INTRA.DIHEDRAL.0>
18.4149

>  <SCORE.INTRA.POLAR>
0

>  <SCORE.INTRA.POLAR.0>
0

>  <SCORE.INTRA.REPUL>
-0.092687

>  <SCORE.INTRA.REPUL.0>
0.092687

>  <SCORE.INTRA.SOLV>
-4.55229

>  <SCORE.INTRA.SOLV.lig_0>
-120.37

>  <SCORE.INTRA.VDW>
-0.725156

>  <SCORE.INTRA.VDW.0>
-1.75542

>  <SCORE.INTRA.norm>
-0.209433

>  <SCORE.RESTR>
0

>  <SCORE.RESTR.CAVITY>
0

>  <SCORE.RESTR.norm>
0

>  <SCORE.SYSTEM>
0

>  <SCORE.SYSTEM.CONST>
0

>  <SCORE.SYSTEM.DIHEDRAL>
0

>  <SCORE.SYSTEM.SOLV>
0

>  <SCORE.SYSTEM.norm>
0

>  <SCORE.heavy>
31

>  <SCORE.norm>
-0.991573

>  <RMSD>
6.014

$$$$
1byj cryst
 OpenBabel11021811383D
libRbt.so/2013.1/901 2013/11/27
 31 33  0  0  0  0  0  0  0  0999 V2000
    6.5108    1.4787    1.4661 C   0  0  1  0  0  0  0  0  0  0  0  0
    6.8821    2.7346    0.8126 O   0  0  0  0  0  0  0  0  0  0  0  0
    8.2301    3.2556    1.0127 C   0  0  2  0  0  0  0  0  0  0  0  0
    9.2296    2.4055    0.3685 O   0  0  0  0  0  0  0  0  0  0  0  0
    8.5096    3.3884    2.5406 C   0  0  2  0  0  0  0  0  0  0  0  0
    9.8568    3.9106    2.8429 N   0  3  0  0  0  0  0  0  0  0  0  0
    8.2893    2.0235    3.2424 C   0  0  0  0  0  0  0  0  0  0  0  0
    6.8741    1.4885    2.9766 C   0  0  0  0  0  0  0  0  0  0  0  0
    4.9972    1.2494    1.3097 C   0  0  0  0  0  0  0  0  0  0  0  0
    4.6268    0.5556    0.0692 N   0  3  0  0  0  0  0  0  0  0  0  0
   10.4501    1.6568   -1.6366 C   0  0  1  0  0  0  0  0  0  0  0  0
   10.3606    1.3876   -3.1584 C   0  0  0  0  0  0  0  0  0  0  0  0
    9.8658    2.6547   -3.9064 C   0  0  1  0  0  0  0  0  0  0  0  0
    9.8597    2.4089   -5.3612 N   0  3  0  0  0  0  0  0  0  0  0  0
    8.4623    3.0758   -3.3826 C   0  0  1  0  0  0  0  0  0  0  0  0
    8.4585    3.2612   -1.8445 C   0  0  1  0  0  0  0  0  0  0  0  0
    7.1069    3.4728   -1.4647 O   0  0  0  0  0  0  0  0  0  0  0  0
    9.0609    2.0607   -1.0424 C   0  0  2  0  0  0  0  0  0  0  0  0
   11.0177    0.4841   -0.9481 N   0  3  0  0  0  0  0  0  0  0  0  0
    8.7653    7.2964   -4.2995 C   0  0  0  0  0  0  0  0  0  0  0  0
    7.4146    8.0222   -4.5148 C   0  0  2  0  0  0  0  0  0  0  0  0
    7.2636    8.9489   -3.4403 O   0  0  0  0  0  0  0  0  0  0  0  0
    6.2459    6.9660   -4.5145 C   0  0  1  0  0  0  0  0  0  0  0  0
    6.3203    5.9751   -3.3034 C   0  0  2  0  0  0  0  0  0  0  0  0
    7.7445    5.4213   -3.0453 C   0  0  1  0  0  0  0  0  0  0  0  0
    8.0563    4.3455   -3.9689 O   0  0  0  0  0  0  0  0  0  0  0  0
    8.7364    6.4855   -3.0947 O   0  0  0  0  0  0  0  0  0  0  0  0
    5.4240    4.8797   -3.4704 O   0  0  0  0  0  0  0  0  0  0  0  0
    4.9267    7.6713   -4.5392 N   0  3  0  0  0  0  0  0  0  0  0  0
    4.6653    8.6429   -3.4578 C   0  0  0  0  0  0  0  0  0  0  0  0
    7.4980    8.8451   -5.8240 C   0  0  0  0  0  0  0  0  0  0  0  0
  1  8  1  0  0  0  0
  1  9  1  1  0  0  0
  1  2  1  0  0  0  0
  2  3  1  0  0  0  0
  3  5  1  0  0  0  0
  3  4  1  1  0  0  0
  5  7  1  0  0  0  0
  5  6  1  6  0  0  0
  7  8  1  0  0  0  0
  9 10  1  0  0  0  0
 11 12  1  0  0  0  0
 11 18  1  0  0  0  0
 11 19  1  1  0  0  0
 12 13  1  0  0  0  0
 13 15  1  0  0  0  0
 13 14  1  6  0  0  0
 15 16  1  0  0  0  0
 15 26  1  6  0  0  0
 16 18  1  0  0  0  0
 16 17  1  1  0  0  0
 18  4  1  1  0  0  0
 20 21  1  0  0  0  0
 20 27  1  0  0  0  0
 21 31  1  6  0  0  0
 21 23  1  0  0  0  0
 21 22  1  0  0  0  0
 23 24  1  0  0  0  0
 23 29  1  1  0  0  0
 24 25  1  0  0  0  0
 24 28  1  6  0  0  0
 25 27  1  0  0  0  0
 25 26  1  6  0  0  0
 29 30  1  0  0  0  0
M  CHG  5   6   1  10   1  14   1  19   1  29   1
M  END
>  <CHROM.1>
87.20888067,52.27254307,158.05820963,29.55536818,-77.28858663,132.10875190
-11.97889499,-122.57515977,61.92561842,-58.31231903,64.59658634,-58.93400429
-124.66144529,7.77844076,4.07828775,-1.74064272,1.37138355,-0.69644505,2.23140600

>  <Name>
1byj cryst

>  <RI>
0

>  <Rbt.Current_Directory>
/home/itssahil/PROJECTS/Mol_Feturizer/New_Systems/rnas/1byj

>  <Rbt.Executable>
rbdock ($Id: //depot/dev/client3/rdock/2013.1/src/exe/rbdock.cxx#4 $)

>  <Rbt.Library>
libRbt.so (2013.1, Build901 2013/11/27)

>  <Rbt.Parameter_File>
/export/apps/rDock/src/rDock_2013.1_src/data/scripts/dock_solv.prm

>  <Rbt.Receptor>
prm/blind_docking_60.prm

>  <SCORE>
-12.7843

>  <SCORE.INTER>
-27.9192

>  <SCORE.INTER.CONST>
1

>  <SCORE.INTER.POLAR>
-5.71934

>  <SCORE.INTER.ROT>
6

>  <SCORE.INTER.SOLV>
39.3139

>  <SCORE.INTER.VDW>
-20.253

>  <SCORE.INTER.norm>
-0.900619

>  <SCORE.INTRA>
12.6743

>  <SCORE.INTRA.DIHEDRAL>
9.7852

>  <SCORE.INTRA.DIHEDRAL.0>
18.4149

>  <SCORE.INTRA.POLAR>
0

>  <SCORE.INTRA.POLAR.0>
0

>  <SCORE.INTRA.REPUL>
-0.0618018

>  <SCORE.INTRA.REPUL.0>
0.092687

>  <SCORE.INTRA.SOLV>
-5.0661

>  <SCORE.INTRA.SOLV.lig_0>
-120.37

>  <SCORE.INTRA.VDW>
10.6238

>  <SCORE.INTRA.VDW.0>
-1.75542

>  <SCORE.INTRA.norm>
0.40885

>  <SCORE.RESTR>
2.46052

>  <SCORE.RESTR.CAVITY>
2.46052

>  <SCORE.RESTR.norm>
0.0793717

>  <SCORE.SYSTEM>
0

>  <SCORE.SYSTEM.CONST>
0

>  <SCORE.SYSTEM.DIHEDRAL>
0

>  <SCORE.SYSTEM.SOLV>
0

>  <SCORE.SYSTEM.norm>
0

>  <SCORE.heavy>
31

>  <SCORE.norm>
-0.412398

>  <RMSD>
6.053

$$$$
1byj cryst
 OpenBabel11021811383D
libRbt.so/2013.1/901 2013/11/27
 31 33  0  0  0  0  0  0  0  0999 V2000
    6.4749    1.5309    1.4389 C   0  0  1  0  0  0  0  0  0  0  0  0
    6.8733    2.7797    0.7878 O   0  0  0  0  0  0  0  0  0  0  0  0
    8.2272    3.2796    1.0020 C   0  0  2  0  0  0  0  0  0  0  0  0
    9.2201    2.4127    0.3700 O   0  0  0  0  0  0  0  0  0  0  0  0
    8.4920    3.4103    2.5327 C   0  0  2  0  0  0  0  0  0  0  0  0
    9.8439    3.9115    2.8491 N   0  3  0  0  0  0  0  0  0  0  0  0
    8.2422    2.0502    3.2339 C   0  0  0  0  0  0  0  0  0  0  0  0
    6.8217    1.5374    2.9533 C   0  0  0  0  0  0  0  0  0  0  0  0
    4.9597    1.3255    1.2661 C   0  0  0  0  0  0  0  0  0  0  0  0
    4.1654    2.5383    1.5018 N   0  3  0  0  0  0  0  0  0  0  0  0
   10.4473    1.6464   -1.6243 C   0  0  1  0  0  0  0  0  0  0  0  0
   10.3648    1.3705   -3.1454 C   0  0  0  0  0  0  0  0  0  0  0  0
    9.8825    2.6371   -3.9022 C   0  0  1  0  0  0  0  0  0  0  0  0
    9.8832    2.3844   -5.3558 N   0  3  0  0  0  0  0  0  0  0  0  0
    8.4787    3.0698   -3.3886 C   0  0  1  0  0  0  0  0  0  0  0  0
    8.4673    3.2626   -1.8514 C   0  0  1  0  0  0  0  0  0  0  0  0
    7.1149    3.4848   -1.4805 O   0  0  0  0  0  0  0  0  0  0  0  0
    9.0573    2.0622   -1.0401 C   0  0  2  0  0  0  0  0  0  0  0  0
   11.0033    0.4734   -0.9270 N   0  3  0  0  0  0  0  0  0  0  0  0
    8.7696    7.2873   -4.3826 C   0  0  0  0  0  0  0  0  0  0  0  0
    7.4095    8.0043   -4.5663 C   0  0  2  0  0  0  0  0  0  0  0  0
    7.2884    8.9473   -3.5023 O   0  0  0  0  0  0  0  0  0  0  0  0
    6.2461    6.9436   -4.5124 C   0  0  1  0  0  0  0  0  0  0  0  0
    6.3631    5.9724   -3.2889 C   0  0  2  0  0  0  0  0  0  0  0  0
    7.7972    5.4283   -3.0673 C   0  0  1  0  0  0  0  0  0  0  0  0
    8.0844    4.3392   -3.9834 O   0  0  0  0  0  0  0  0  0  0  0  0
    8.7823    6.4955   -3.1648 O   0  0  0  0  0  0  0  0  0  0  0  0
    5.4669    4.8709   -3.4102 O   0  0  0  0  0  0  0  0  0  0  0  0
    4.9236    7.6433   -4.5064 N   0  3  0  0  0  0  0  0  0  0  0  0
    4.6931    8.6327   -3.4341 C   0  0  0  0  0  0  0  0  0  0  0  0
    7.4478    8.8066   -5.8903 C   0  0  0  0  0  0  0  0  0  0  0  0
  1  8  1  0  0  0  0
  1  9  1  1  0  0  0
  1  2  1  0  0  0  0
  2  3  1  0  0  0  0
  3  5  1  0  0  0  0
  3  4  1  1  0  0  0
  5  7  1  0  0  0  0
  5  6  1  6  0  0  0
  7  8  1  0  0  0  0
  9 10  1  0  0  0  0
 11 12  1  0  0  0  0
 11 18  1  0  0  0  0
 11 19  1  1  0  0  0
 12 13  1  0  0  0  0
 13 15  1  0  0  0  0
 13 14  1  6  0  0  0
 15 16  1  0  0  0  0
 15 26  1  6  0  0  0
 16 18  1  0  0  0  0
 16 17  1  1  0  0  0
 18  4  1  1  0  0  0
 20 21  1  0  0  0  0
 20 27  1  0  0  0  0
 21 31  1  6  0  0  0
 21 23  1  0  0  0  0
 21 22  1  0  0  0  0
 23 24  1  0  0  0  0
 23 29  1  1  0  0  0
 24 25  1  0  0  0  0
 24 28  1  6  0  0  0
 25 27  1  0  0  0  0
 25 26  1  6  0  0  0
 29 30  1  0  0  0  0
M  CHG  5   6   1  10   1  14   1  19   1  29   1
M  END
>  <CHROM.1>
-44.04405592,51.92584359,157.65388772,151.20569410,-63.43798533,134.75348741
109.58687799,-121.51759668,69.53750079,57.19865343,64.70465163,176.05577547
-123.02136707,7.76626381,4.15855336,-1.69508984,1.38577571,-0.68937999,2.20359745

>  <Name>
1byj cryst

>  <RI>
0

>  <Rbt.Current_Directory>
/home/itssahil/PROJECTS/Mol_Feturizer/New_Systems/rnas/1byj

>  <Rbt.Executable>
rbdock ($Id: //depot/dev/client3/rdock/2013.1/src/exe/rbdock.cxx#4 $)

>  <Rbt.Library>
libRbt.so (2013.1, Build901 2013/11/27)

>  <Rbt.Parameter_File>
/export/apps/rDock/src/rDock_2013.1_src/data/scripts/dock_solv.prm

>  <Rbt.Receptor>
prm/blind_docking_60.prm

>  <SCORE>
-12.986

>  <SCORE.INTER>
-26.4924

>  <SCORE.INTER.CONST>
1

>  <SCORE.INTER.POLAR>
-5.55715

>  <SCORE.INTER.ROT>
6

>  <SCORE.INTER.SOLV>
37.0285

>  <SCORE.INTER.VDW>
-19.0806

>  <SCORE.INTER.norm>
-0.854595

>  <SCORE.INTRA>
9.79413

>  <SCORE.INTRA.DIHEDRAL>
8.16337

>  <SCORE.INTRA.DIHEDRAL.0>
18.4149

>  <SCORE.INTRA.POLAR>
-0.826923

>  <SCORE.INTRA.POLAR.0>
0

>  <SCORE.INTRA.REPUL>
-0.092687

>  <SCORE.INTRA.REPUL.0>
0.092687

>  <SCORE.INTRA.SOLV>
-4.06768

>  <SCORE.INTRA.SOLV.lig_0>
-120.37

>  <SCORE.INTRA.VDW>
11.0213

>  <SCORE.INTRA.VDW.0>
-1.75542

>  <SCORE.INTRA.norm>
0.31594

>  <SCORE.RESTR>
3.7123

>  <SCORE.RESTR.CAVITY>
3.7123

>  <SCORE.RESTR.norm>
0.119752

>  <SCORE.SYSTEM>
0

>  <SCORE.SYSTEM.CONST>
0

>  <SCORE.SYSTEM.DIHEDRAL>
0

>  <SCORE.SYSTEM.SOLV>
0

>  <SCORE.SYSTEM.norm>
0

>  <SCORE.heavy>
31

>  <SCORE.norm>
-0.418903

>  <RMSD>
6.111

$$$$
1byj cryst
 OpenBabel11021811383D
libRbt.so/2013.1/901 2013/11/27
 31 33  0  0  0  0  0  0  0  0999 V2000
    3.7749   10.6817   -3.2802 C   0  0  1  0  0  0  0  0  0  0  0  0
    4.1598    9.5031   -4.0578 O   0  0  0  0  0  0  0  0  0  0  0  0
    5.5622    9.3328   -4.4226 C   0  0  2  0  0  0  0  0  0  0  0  0
    6.3879    9.0609   -3.2475 O   0  0  0  0  0  0  0  0  0  0  0  0
    6.0579   10.6067   -5.1721 C   0  0  2  0  0  0  0  0  0  0  0  0
    7.4735   10.5268   -5.5829 N   0  3  0  0  0  0  0  0  0  0  0  0
    5.8192   11.8650   -4.2981 C   0  0  0  0  0  0  0  0  0  0  0  0
    4.3404   11.9887   -3.9014 C   0  0  0  0  0  0  0  0  0  0  0  0
    2.2401   10.7729   -3.2165 C   0  0  0  0  0  0  0  0  0  0  0  0
    1.5581    9.5001   -3.4850 N   0  3  0  0  0  0  0  0  0  0  0  0
    7.0326    6.7398   -3.7643 C   0  0  1  0  0  0  0  0  0  0  0  0
    6.9864    5.2669   -3.2899 C   0  0  0  0  0  0  0  0  0  0  0  0
    5.5210    4.8250   -3.0308 C   0  0  1  0  0  0  0  0  0  0  0  0
    5.4855    3.3987   -2.6551 N   0  3  0  0  0  0  0  0  0  0  0  0
    4.8700    5.7285   -1.9438 C   0  0  1  0  0  0  0  0  0  0  0  0
    4.9760    7.2300   -2.3105 C   0  0  1  0  0  0  0  0  0  0  0  0
    4.5106    7.9567   -1.1830 O   0  0  0  0  0  0  0  0  0  0  0  0
    6.4145    7.7052   -2.7004 C   0  0  2  0  0  0  0  0  0  0  0  0
    8.4153    7.1179   -4.1060 N   0  3  0  0  0  0  0  0  0  0  0  0
    2.1358    2.8618   -2.8207 C   0  0  0  0  0  0  0  0  0  0  0  0
    0.6118    3.1187   -2.7260 C   0  0  2  0  0  0  0  0  0  0  0  0
    0.0904    3.0267   -4.0511 O   0  0  0  0  0  0  0  0  0  0  0  0
    0.3580    4.5505   -2.1204 C   0  0  1  0  0  0  0  0  0  0  0  0
    1.2116    5.6658   -2.8142 C   0  0  2  0  0  0  0  0  0  0  0  0
    2.6933    5.2654   -3.0290 C   0  0  1  0  0  0  0  0  0  0  0  0
    3.4539    5.4201   -1.8021 O   0  0  0  0  0  0  0  0  0  0  0  0
    2.7979    3.9171   -3.5676 O   0  0  0  0  0  0  0  0  0  0  0  0
    1.1669    6.8878   -2.0820 O   0  0  0  0  0  0  0  0  0  0  0  0
   -1.0997    4.8795   -2.1933 N   0  3  0  0  0  0  0  0  0  0  0  0
   -1.6089    5.8853   -1.2388 C   0  0  0  0  0  0  0  0  0  0  0  0
   -0.0317    1.9791   -1.8981 C   0  0  0  0  0  0  0  0  0  0  0  0
  1  8  1  0  0  0  0
  1  9  1  6  0  0  0
  1  2  1  0  0  0  0
  2  3  1  0  0  0  0
  3  5  1  0  0  0  0
  3  4  1  1  0  0  0
  5  7  1  0  0  0  0
  5  6  1  1  0  0  0
  7  8  1  0  0  0  0
  9 10  1  0  0  0  0
 11 12  1  0  0  0  0
 11 18  1  0  0  0  0
 11 19  1  1  0  0  0
 12 13  1  0  0  0  0
 13 15  1  0  0  0  0
 13 14  1  1  0  0  0
 15 16  1  0  0  0  0
 15 26  1  6  0  0  0
 16 18  1  0  0  0  0
 16 17  1  1  0  0  0
 18  4  1  6  0  0  0
 20 21  1  0  0  0  0
 20 27  1  0  0  0  0
 21 31  1  1  0  0  0
 21 23  1  0  0  0  0
 21 22  1  0  0  0  0
 23 24  1  0  0  0  0
 23 29  1  6  0  0  0
 24 25  1  0  0  0  0
 24 28  1  1  0  0  0
 25 27  1  0  0  0  0
 25 26  1  1  0  0  0
 29 30  1  0  0  0  0
M  CHG  5   6   1  10   1  14   1  19   1  29   1
M  END
>  <CHROM.1>
20.69526886,79.85166489,63.76205665,61.49517214,-167.10235943,-153.57728343
-29.25400217,-44.98738401,-59.93236399,-179.46196405,-82.35277573,-69.15581423
-150.76862520,3.63710614,6.86785394,-3.09966069,0.83814456,0.15204072,-0.13163876

>  <Name>
1byj cryst

>  <RI>
0

>  <Rbt.Current_Directory>
/home/itssahil/PROJECTS/Mol_Feturizer/New_Systems/rnas/1byj

>  <Rbt.Executable>
rbdock ($Id: //depot/dev/client3/rdock/2013.1/src/exe/rbdock.cxx#4 $)

>  <Rbt.Library>
libRbt.so (2013.1, Build901 2013/11/27)

>  <Rbt.Parameter_File>
/export/apps/rDock/src/rDock_2013.1_src/data/scripts/dock_solv.prm

>  <Rbt.Receptor>
prm/pocket_docking_4.prm

>  <SCORE>
-36.0007

>  <SCORE.INTER>
-32.1257

>  <SCORE.INTER.CONST>
1

>  <SCORE.INTER.POLAR>
-5.30009

>  <SCORE.INTER.ROT>
6

>  <SCORE.INTER.SOLV>
23.0182

>  <SCORE.INTER.VDW>
-19.0229

>  <SCORE.INTER.norm>
-1.03631

>  <SCORE.INTRA>
-3.875

>  <SCORE.INTRA.DIHEDRAL>
-2.56185

>  <SCORE.INTRA.DIHEDRAL.0>
18.4149

>  <SCORE.INTRA.POLAR>
-1.4418

>  <SCORE.INTRA.POLAR.0>
0

>  <SCORE.INTRA.REPUL>
-0.092687

>  <SCORE.INTRA.REPUL.0>
0.092687

>  <SCORE.INTRA.SOLV>
6.12834

>  <SCORE.INTRA.SOLV.lig_0>
-120.37

>  <SCORE.INTRA.VDW>
-0.292675

>  <SCORE.INTRA.VDW.0>
-1.75542

>  <SCORE.INTRA.norm>
-0.125

>  <SCORE.RESTR>
0

>  <SCORE.RESTR.CAVITY>
0

>  <SCORE.RESTR.norm>
0

>  <SCORE.SYSTEM>
0

>  <SCORE.SYSTEM.CONST>
0

>  <SCORE.SYSTEM.DIHEDRAL>
0

>  <SCORE.SYSTEM.SOLV>
0

>  <SCORE.SYSTEM.norm>
0

>  <SCORE.heavy>
31

>  <SCORE.norm>
-1.16131

>  <RMSD>
6.183

$$$$
1byj cryst
 OpenBabel11021811383D
libRbt.so/2013.1/901 2013/11/27
 31 33  0  0  0  0  0  0  0  0999 V2000
    4.6384    6.8417   -3.1402 C   0  0  1  0  0  0  0  0  0  0  0  0
    5.4485    6.1804   -4.1640 O   0  0  0  0  0  0  0  0  0  0  0  0
    6.6850    6.8207   -4.5995 C   0  0  2  0  0  0  0  0  0  0  0  0
    7.6877    6.8190   -3.5358 O   0  0  0  0  0  0  0  0  0  0  0  0
    6.3741    8.2732   -5.0728 C   0  0  2  0  0  0  0  0  0  0  0  0
    7.5708    9.0041   -5.5341 N   0  3  0  0  0  0  0  0  0  0  0  0
    5.6627    9.0604   -3.9421 C   0  0  0  0  0  0  0  0  0  0  0  0
    4.3882    8.3362   -3.4832 C   0  0  0  0  0  0  0  0  0  0  0  0
    3.2867    6.1175   -3.0115 C   0  0  0  0  0  0  0  0  0  0  0  0
    2.4381    6.6319   -1.9287 N   0  3  0  0  0  0  0  0  0  0  0  0
    8.1311    4.4607   -4.0949 C   0  0  1  0  0  0  0  0  0  0  0  0
    8.4621    3.0566   -3.5332 C   0  0  0  0  0  0  0  0  0  0  0  0
    7.4060    2.6305   -2.4782 C   0  0  1  0  0  0  0  0  0  0  0  0
    7.6892    1.2607   -2.0089 N   0  3  0  0  0  0  0  0  0  0  0  0
    7.3744    3.6517   -1.3045 C   0  0  1  0  0  0  0  0  0  0  0  0
    7.1493    5.0982   -1.8117 C   0  0  1  0  0  0  0  0  0  0  0  0
    7.3090    5.9515   -0.6881 O   0  0  0  0  0  0  0  0  0  0  0  0
    8.1098    5.5411   -2.9643 C   0  0  2  0  0  0  0  0  0  0  0  0
    9.0782    4.8124   -5.1676 N   0  3  0  0  0  0  0  0  0  0  0  0
    4.5368    1.2036   -1.6820 C   0  0  0  0  0  0  0  0  0  0  0  0
    3.3847    0.9517   -0.6786 C   0  0  2  0  0  0  0  0  0  0  0  0
    2.1693    1.2874   -1.3466 O   0  0  0  0  0  0  0  0  0  0  0  0
    3.5930    1.8534    0.5961 C   0  0  1  0  0  0  0  0  0  0  0  0
    3.8951    3.3491    0.2418 C   0  0  2  0  0  0  0  0  0  0  0  0
    4.9366    3.5165   -0.8936 C   0  0  1  0  0  0  0  0  0  0  0  0
    6.2861    3.3443   -0.3870 O   0  0  0  0  0  0  0  0  0  0  0  0
    4.6521    2.6159   -2.0012 O   0  0  0  0  0  0  0  0  0  0  0  0
    4.3394    4.0760    1.3844 O   0  0  0  0  0  0  0  0  0  0  0  0
    2.3955    1.7536    1.4875 N   0  3  0  0  0  0  0  0  0  0  0  0
    2.3966    0.6720    2.4935 C   0  0  0  0  0  0  0  0  0  0  0  0
    3.3302   -0.5622   -0.3573 C   0  0  0  0  0  0  0  0  0  0  0  0
  1  8  1  0  0  0  0
  1  9  1  6  0  0  0
  1  2  1  0  0  0  0
  2  3  1  0  0  0  0
  3  5  1  0  0  0  0
  3  4  1  1  0  0  0
  5  7  1  0  0  0  0
  5  6  1  1  0  0  0
  7  8  1  0  0  0  0
  9 10  1  0  0  0  0
 11 12  1  0  0  0  0
 11 18  1  0  0  0  0
 11 19  1  6  0  0  0
 12 13  1  0  0  0  0
 13 15  1  0  0  0  0
 13 14  1  1  0  0  0
 15 16  1  0  0  0  0
 15 26  1  1  0  0  0
 16 18  1  0  0  0  0
 16 17  1  1  0  0  0
 18  4  1  6  0  0  0
 20 21  1  0  0  0  0
 20 27  1  0  0  0  0
 21 31  1  1  0  0  0
 21 23  1  0  0  0  0
 21 22  1  0  0  0  0
 23 24  1  0  0  0  0
 23 29  1  1  0  0  0
 24 25  1  0  0  0  0
 24 28  1  1  0  0  0
 25 27  1  0  0  0  0
 25 26  1  1  0  0  0
 29 30  1  0  0  0  0
M  CHG  5   6   1  10   1  14   1  19   1  29   1
M  END
>  <CHROM.1>
175.10562844,58.05534659,35.60345999,-71.55017730,-171.84247749,54.18790671
178.80187315,-67.14310978,66.55792372,-61.03938913,-150.39137508,-61.89319673
-171.97076053,5.50012211,4.34578586,-2.03513958,1.07262687,0.45782344,-0.43331400

>  <Name>
1byj cryst

>  <RI>
0

>  <Rbt.Current_Directory>
/home/itssahil/PROJECTS/Mol_Feturizer/New_Systems/rnas/1byj

>  <Rbt.Executable>
rbdock ($Id: //depot/dev/client3/rdock/2013.1/src/exe/rbdock.cxx#4 $)

>  <Rbt.Library>
libRbt.so (2013.1, Build901 2013/11/27)

>  <Rbt.Parameter_File>
/export/apps/rDock/src/rDock_2013.1_src/data/scripts/dock_solv.prm

>  <Rbt.Receptor>
prm/pocket_docking_6.prm

>  <SCORE>
-32.2562

>  <SCORE.INTER>
-24.8781

>  <SCORE.INTER.CONST>
1

>  <SCORE.INTER.POLAR>
-3.53407

>  <SCORE.INTER.ROT>
6

>  <SCORE.INTER.SOLV>
22.4298

>  <SCORE.INTER.VDW>
-19.8818

>  <SCORE.INTER.norm>
-0.80252

>  <SCORE.INTRA>
-7.37807

>  <SCORE.INTRA.DIHEDRAL>
-12.3497

>  <SCORE.INTRA.DIHEDRAL.0>
18.4149

>  <SCORE.INTRA.POLAR>
-0.00923225

>  <SCORE.INTRA.POLAR.0>
0

>  <SCORE.INTRA.REPUL>
-0.0718517

>  <SCORE.INTRA.REPUL.0>
0.092687

>  <SCORE.INTRA.SOLV>
-0.411756

>  <SCORE.INTRA.SOLV.lig_0>
-120.37

>  <SCORE.INTRA.VDW>
-0.606703

>  <SCORE.INTRA.VDW.0>
-1.75542

>  <SCORE.INTRA.norm>
-0.238002

>  <SCORE.RESTR>
0

>  <SCORE.RESTR.CAVITY>
0

>  <SCORE.RESTR.norm>
0

>  <SCORE.SYSTEM>
0

>  <SCORE.SYSTEM.CONST>
0

>  <SCORE.SYSTEM.DIHEDRAL>
0

>  <SCORE.SYSTEM.SOLV>
0

>  <SCORE.SYSTEM.norm>
0

>  <SCORE.heavy>
31

>  <SCORE.norm>
-1.04052

>  <RMSD>
6.360

$$$$
1byj cryst
 OpenBabel11021811383D
libRbt.so/2013.1/901 2013/11/27
 31 33  0  0  0  0  0  0  0  0999 V2000
    8.2719    3.8407   -3.1520 C   0  0  1  0  0  0  0  0  0  0  0  0
    7.6880    2.5176   -3.3773 O   0  0  0  0  0  0  0  0  0  0  0  0
    8.5344    1.3413   -3.2088 C   0  0  2  0  0  0  0  0  0  0  0  0
    8.9033    1.1481   -1.8076 O   0  0  0  0  0  0  0  0  0  0  0  0
    9.8011    1.4852   -4.1061 C   0  0  2  0  0  0  0  0  0  0  0  0
   10.7223    0.3365   -4.0017 N   0  3  0  0  0  0  0  0  0  0  0  0
   10.5431    2.8049   -3.7713 C   0  0  0  0  0  0  0  0  0  0  0  0
    9.6101    4.0158   -3.9215 C   0  0  0  0  0  0  0  0  0  0  0  0
    7.2779    4.9225   -3.6099 C   0  0  0  0  0  0  0  0  0  0  0  0
    6.6294    4.6276   -4.8943 N   0  3  0  0  0  0  0  0  0  0  0  0
    8.9095    1.7972    0.5692 C   0  0  1  0  0  0  0  0  0  0  0  0
    8.0704    2.3681    1.7382 C   0  0  0  0  0  0  0  0  0  0  0  0
    6.7871    1.5209    1.9506 C   0  0  1  0  0  0  0  0  0  0  0  0
    6.0373    2.0284    3.1155 N   0  3  0  0  0  0  0  0  0  0  0  0
    5.9213    1.5210    0.6575 C   0  0  1  0  0  0  0  0  0  0  0  0
    6.7360    1.0563   -0.5756 C   0  0  1  0  0  0  0  0  0  0  0  0
    5.9060    1.2585   -1.7098 O   0  0  0  0  0  0  0  0  0  0  0  0
    8.1015    1.7946   -0.7699 C   0  0  2  0  0  0  0  0  0  0  0  0
   10.1735    2.5439    0.4421 N   0  3  0  0  0  0  0  0  0  0  0  0
    3.1681    3.1878    0.6252 C   0  0  0  0  0  0  0  0  0  0  0  0
    1.7353    2.7456    0.2393 C   0  0  2  0  0  0  0  0  0  0  0  0
    0.8731    3.1534    1.3006 O   0  0  0  0  0  0  0  0  0  0  0  0
    1.7006    1.1814    0.0566 C   0  0  1  0  0  0  0  0  0  0  0  0
    2.3710    0.4138    1.2463 C   0  0  2  0  0  0  0  0  0  0  0  0
    3.7261    1.0222    1.6883 C   0  0  1  0  0  0  0  0  0  0  0  0
    4.7940    0.6095    0.7955 O   0  0  0  0  0  0  0  0  0  0  0  0
    3.6380    2.4711    1.7980 O   0  0  0  0  0  0  0  0  0  0  0  0
    2.5648   -0.9634    0.9350 O   0  0  0  0  0  0  0  0  0  0  0  0
    0.2886    0.7258   -0.1367 N   0  3  0  0  0  0  0  0  0  0  0  0
    0.0795   -0.4740   -0.9725 C   0  0  0  0  0  0  0  0  0  0  0  0
    1.3025    3.5215   -1.0291 C   0  0  0  0  0  0  0  0  0  0  0  0
  1  8  1  0  0  0  0
  1  9  1  6  0  0  0
  1  2  1  0  0  0  0
  2  3  1  0  0  0  0
  3  5  1  0  0  0  0
  3  4  1  1  0  0  0
  5  7  1  0  0  0  0
  5  6  1  1  0  0  0
  7  8  1  0  0  0  0
  9 10  1  0  0  0  0
 11 12  1  0  0  0  0
 11 18  1  0  0  0  0
 11 19  1  6  0  0  0
 12 13  1  0  0  0  0
 13 15  1  0  0  0  0
 13 14  1  1  0  0  0
 15 16  1  0  0  0  0
 15 26  1  1  0  0  0
 16 18  1  0  0  0  0
 16 17  1  6  0  0  0
 18  4  1  6  0  0  0
 20 21  1  0  0  0  0
 20 27  1  0  0  0  0
 21 31  1  6  0  0  0
 21 23  1  0  0  0  0
 21 22  1  0  0  0  0
 23 24  1  0  0  0  0
 23 29  1  1  0  0  0
 24 25  1  0  0  0  0
 24 28  1  6  0  0  0
 25 27  1  0  0  0  0
 25 26  1  6  0  0  0
 29 30  1  0  0  0  0
M  CHG  5   6   1  10   1  14   1  19   1  29   1
M  END
>  <CHROM.1>
-43.43630058,19.52402221,-163.50099550,-110.86009709,-144.61209495,131.64224306
-23.95030377,71.88597424,59.14830283,-60.28875803,-89.51656989,74.04073481
151.77829259,5.81289224,1.94443717,-0.77254386,0.47314672,0.01483773,-1.25788513

>  <Name>
1byj cryst

>  <RI>
0

>  <Rbt.Current_Directory>
/home/itssahil/PROJECTS/Mol_Feturizer/New_Systems/rnas/1byj

>  <Rbt.Executable>
rbdock ($Id: //depot/dev/client3/rdock/2013.1/src/exe/rbdock.cxx#4 $)

>  <Rbt.Library>
libRbt.so (2013.1, Build901 2013/11/27)

>  <Rbt.Parameter_File>
/export/apps/rDock/src/rDock_2013.1_src/data/scripts/dock_solv.prm

>  <Rbt.Receptor>
prm/pocket_docking_6.prm

>  <SCORE>
-33.1597

>  <SCORE.INTER>
-34.5314

>  <SCORE.INTER.CONST>
1

>  <SCORE.INTER.POLAR>
-4.71699

>  <SCORE.INTER.ROT>
6

>  <SCORE.INTER.SOLV>
38.564

>  <SCORE.INTER.VDW>
-27.7523

>  <SCORE.INTER.norm>
-1.11392

>  <SCORE.INTRA>
1.37174

>  <SCORE.INTRA.DIHEDRAL>
7.46012

>  <SCORE.INTRA.DIHEDRAL.0>
18.4149

>  <SCORE.INTRA.POLAR>
-0.90696

>  <SCORE.INTRA.POLAR.0>
0

>  <SCORE.INTRA.REPUL>
-0.092687

>  <SCORE.INTRA.REPUL.0>
0.092687

>  <SCORE.INTRA.SOLV>
0.275164

>  <SCORE.INTRA.SOLV.lig_0>
-120.37

>  <SCORE.INTRA.VDW>
1.0512

>  <SCORE.INTRA.VDW.0>
-1.75542

>  <SCORE.INTRA.norm>
0.0442497

>  <SCORE.RESTR>
0

>  <SCORE.RESTR.CAVITY>
0

>  <SCORE.RESTR.norm>
0

>  <SCORE.SYSTEM>
0

>  <SCORE.SYSTEM.CONST>
0

>  <SCORE.SYSTEM.DIHEDRAL>
0

>  <SCORE.SYSTEM.SOLV>
0

>  <SCORE.SYSTEM.norm>
0

>  <SCORE.heavy>
31

>  <SCORE.norm>
-1.06967

>  <RMSD>
6.362

$$$$
1byj cryst
 OpenBabel11021811383D
libRbt.so/2013.1/901 2013/11/27
 31 33  0  0  0  0  0  0  0  0999 V2000
    6.7110    7.3635   -1.9612 C   0  0  1  0  0  0  0  0  0  0  0  0
    5.8773    6.6434   -2.9248 O   0  0  0  0  0  0  0  0  0  0  0  0
    6.4819    5.5735   -3.7112 C   0  0  2  0  0  0  0  0  0  0  0  0
    6.8311    4.4289   -2.8718 O   0  0  0  0  0  0  0  0  0  0  0  0
    7.7364    6.1259   -4.4539 C   0  0  2  0  0  0  0  0  0  0  0  0
    8.4185    5.1100   -5.2796 N   0  3  0  0  0  0  0  0  0  0  0  0
    8.7264    6.7482   -3.4358 C   0  0  0  0  0  0  0  0  0  0  0  0
    8.0439    7.8416   -2.6003 C   0  0  0  0  0  0  0  0  0  0  0  0
    5.9381    8.5825   -1.4275 C   0  0  0  0  0  0  0  0  0  0  0  0
    6.5835    9.2405   -0.2839 N   0  3  0  0  0  0  0  0  0  0  0  0
    6.5934    2.9965   -0.8812 C   0  0  1  0  0  0  0  0  0  0  0  0
    5.6030    2.3810    0.1369 C   0  0  0  0  0  0  0  0  0  0  0  0
    4.4953    1.5797   -0.5985 C   0  0  1  0  0  0  0  0  0  0  0  0
    3.6047    0.9348    0.3852 N   0  3  0  0  0  0  0  0  0  0  0  0
    3.7118    2.5100   -1.5692 C   0  0  1  0  0  0  0  0  0  0  0  0
    4.6613    3.2398   -2.5520 C   0  0  1  0  0  0  0  0  0  0  0  0
    3.8665    4.1767   -3.2637 O   0  0  0  0  0  0  0  0  0  0  0  0
    5.8694    3.9654   -1.8727 C   0  0  2  0  0  0  0  0  0  0  0  0
    7.6969    3.6671   -0.1713 N   0  3  0  0  0  0  0  0  0  0  0  0
    2.3860    1.4989   -5.3908 C   0  0  0  0  0  0  0  0  0  0  0  0
    0.9773    0.8836   -5.5771 C   0  0  2  0  0  0  0  0  0  0  0  0
    0.2007    1.8334   -6.3057 O   0  0  0  0  0  0  0  0  0  0  0  0
    0.3383    0.5997   -4.1656 C   0  0  1  0  0  0  0  0  0  0  0  0
    0.4423    1.8227   -3.1923 C   0  0  2  0  0  0  0  0  0  0  0  0
    1.8399    2.4926   -3.1896 C   0  0  1  0  0  0  0  0  0  0  0  0
    2.7732    1.7387   -2.3722 O   0  0  0  0  0  0  0  0  0  0  0  0
    2.3328    2.6796   -4.5464 O   0  0  0  0  0  0  0  0  0  0  0  0
    0.1053    1.4564   -1.8568 O   0  0  0  0  0  0  0  0  0  0  0  0
   -1.0872    0.1769   -4.3314 N   0  3  0  0  0  0  0  0  0  0  0  0
   -1.5705   -0.9104   -3.4561 C   0  0  0  0  0  0  0  0  0  0  0  0
    1.1028   -0.3824   -6.4600 C   0  0  0  0  0  0  0  0  0  0  0  0
  1  8  1  0  0  0  0
  1  9  1  6  0  0  0
  1  2  1  0  0  0  0
  2  3  1  0  0  0  0
  3  5  1  0  0  0  0
  3  4  1  1  0  0  0
  5  7  1  0  0  0  0
  5  6  1  1  0  0  0
  7  8  1  0  0  0  0
  9 10  1  0  0  0  0
 11 12  1  0  0  0  0
 11 18  1  0  0  0  0
 11 19  1  1  0  0  0
 12 13  1  0  0  0  0
 13 15  1  0  0  0  0
 13 14  1  1  0  0  0
 15 16  1  0  0  0  0
 15 26  1  6  0  0  0
 16 18  1  0  0  0  0
 16 17  1  1  0  0  0
 18  4  1  6  0  0  0
 20 21  1  0  0  0  0
 20 27  1  0  0  0  0
 21 31  1  6  0  0  0
 21 23  1  0  0  0  0
 21 22  1  0  0  0  0
 23 24  1  0  0  0  0
 23 29  1  6  0  0  0
 24 25  1  0  0  0  0
 24 28  1  1  0  0  0
 25 27  1  0  0  0  0
 25 26  1  1  0  0  0
 29 30  1  0  0  0  0
M  CHG  5   6   1  10   1  14   1  19   1  29   1
M  END
>  <CHROM.1>
169.78640538,44.22753896,-165.81412861,45.29845619,66.63759930,-62.36861330
-52.71557347,171.62228883,63.44414003,177.32416755,-98.86633701,60.39867058
-141.25502164,4.08708283,3.45184888,-2.89892746,0.01491483,-0.73077694,-1.23361014

>  <Name>
1byj cryst

>  <RI>
0

>  <Rbt.Current_Directory>
/home/itssahil/PROJECTS/Mol_Feturizer/New_Systems/rnas/1byj

>  <Rbt.Executable>
rbdock ($Id: //depot/dev/client3/rdock/2013.1/src/exe/rbdock.cxx#4 $)

>  <Rbt.Library>
libRbt.so (2013.1, Build901 2013/11/27)

>  <Rbt.Parameter_File>
/export/apps/rDock/src/rDock_2013.1_src/data/scripts/dock_solv.prm

>  <Rbt.Receptor>
prm/pocket_docking_8.prm

>  <SCORE>
-38.8313

>  <SCORE.INTER>
-33.4729

>  <SCORE.INTER.CONST>
1

>  <SCORE.INTER.POLAR>
-5.78556

>  <SCORE.INTER.ROT>
6

>  <SCORE.INTER.SOLV>
16.9262

>  <SCORE.INTER.VDW>
-16.2722

>  <SCORE.INTER.norm>
-1.07977

>  <SCORE.INTRA>
-5.35838

>  <SCORE.INTRA.DIHEDRAL>
-6.61553

>  <SCORE.INTRA.DIHEDRAL.0>
18.4149

>  <SCORE.INTRA.POLAR>
0

>  <SCORE.INTRA.POLAR.0>
0

>  <SCORE.INTRA.REPUL>
-0.0822085

>  <SCORE.INTRA.REPUL.0>
0.092687

>  <SCORE.INTRA.SOLV>
-3.62112

>  <SCORE.INTRA.SOLV.lig_0>
-120.37

>  <SCORE.INTRA.VDW>
0.170983

>  <SCORE.INTRA.VDW.0>
-1.75542

>  <SCORE.INTRA.norm>
-0.172851

>  <SCORE.RESTR>
0

>  <SCORE.RESTR.CAVITY>
0

>  <SCORE.RESTR.norm>
0

>  <SCORE.SYSTEM>
0

>  <SCORE.SYSTEM.CONST>
0

>  <SCORE.SYSTEM.DIHEDRAL>
0

>  <SCORE.SYSTEM.SOLV>
0

>  <SCORE.SYSTEM.norm>
0

>  <SCORE.heavy>
31

>  <SCORE.norm>
-1.25262

>  <RMSD>
6.373

$$$$
1byj cryst
 OpenBabel11021811383D
libRbt.so/2013.1/901 2013/11/27
 31 33  0  0  0  0  0  0  0  0999 V2000
    5.9115    7.5322   -0.4313 C   0  0  1  0  0  0  0  0  0  0  0  0
    5.1450    6.4792   -1.0990 O   0  0  0  0  0  0  0  0  0  0  0  0
    3.7204    6.3592   -0.8082 C   0  0  2  0  0  0  0  0  0  0  0  0
    2.9725    7.4993   -1.3351 O   0  0  0  0  0  0  0  0  0  0  0  0
    3.5186    6.2211    0.7314 C   0  0  2  0  0  0  0  0  0  0  0  0
    2.1012    6.0936    1.1238 N   0  3  0  0  0  0  0  0  0  0  0  0
    4.1763    7.4190    1.4638 C   0  0  0  0  0  0  0  0  0  0  0  0
    5.6647    7.5368    1.1026 C   0  0  0  0  0  0  0  0  0  0  0  0
    7.4116    7.3229   -0.7032 C   0  0  0  0  0  0  0  0  0  0  0  0
    8.2650    8.3997   -0.1840 N   0  3  0  0  0  0  0  0  0  0  0  0
    0.5859    7.6298   -0.7372 C   0  0  1  0  0  0  0  0  0  0  0  0
   -0.8612    7.3122   -1.1862 C   0  0  0  0  0  0  0  0  0  0  0  0
   -1.0065    5.8043   -1.5256 C   0  0  1  0  0  0  0  0  0  0  0  0
   -2.4071    5.5011   -1.8763 N   0  3  0  0  0  0  0  0  0  0  0  0
   -0.0239    5.4118   -2.6666 C   0  0  1  0  0  0  0  0  0  0  0  0
    1.4359    5.7996   -2.3220 C   0  0  1  0  0  0  0  0  0  0  0  0
    2.2069    5.5550   -3.4890 O   0  0  0  0  0  0  0  0  0  0  0  0
    1.6232    7.2807   -1.8543 C   0  0  2  0  0  0  0  0  0  0  0  0
    0.6878    9.0391   -0.3192 N   0  3  0  0  0  0  0  0  0  0  0  0
    2.2728    2.0808   -3.4962 C   0  0  0  0  0  0  0  0  0  0  0  0
    1.6149    0.7765   -4.0097 C   0  0  2  0  0  0  0  0  0  0  0  0
    2.0793    0.5727   -5.3435 O   0  0  0  0  0  0  0  0  0  0  0  0
    0.0477    0.9319   -3.9779 C   0  0  1  0  0  0  0  0  0  0  0  0
   -0.4458    2.2668   -4.6324 C   0  0  2  0  0  0  0  0  0  0  0  0
    0.3748    3.5077   -4.1981 C   0  0  1  0  0  0  0  0  0  0  0  0
   -0.0448    3.9727   -2.8884 O   0  0  0  0  0  0  0  0  0  0  0  0
    1.8035    3.2329   -4.2460 O   0  0  0  0  0  0  0  0  0  0  0  0
   -1.8230    2.5058   -4.3542 O   0  0  0  0  0  0  0  0  0  0  0  0
   -0.5912   -0.2481   -4.6395 N   0  3  0  0  0  0  0  0  0  0  0  0
   -1.9229   -0.6541   -4.1461 C   0  0  0  0  0  0  0  0  0  0  0  0
    2.1319   -0.4079   -3.1564 C   0  0  0  0  0  0  0  0  0  0  0  0
  1  8  1  0  0  0  0
  1  9  1  1  0  0  0
  1  2  1  0  0  0  0
  2  3  1  0  0  0  0
  3  5  1  0  0  0  0
  3  4  1  1  0  0  0
  5  7  1  0  0  0  0
  5  6  1  6  0  0  0
  7  8  1  0  0  0  0
  9 10  1  0  0  0  0
 11 12  1  0  0  0  0
 11 18  1  0  0  0  0
 11 19  1  6  0  0  0
 12 13  1  0  0  0  0
 13 15  1  0  0  0  0
 13 14  1  6  0  0  0
 15 16  1  0  0  0  0
 15 26  1  1  0  0  0
 16 18  1  0  0  0  0
 16 17  1  6  0  0  0
 18  4  1  1  0  0  0
 20 21  1  0  0  0  0
 20 27  1  0  0  0  0
 21 31  1  1  0  0  0
 21 23  1  0  0  0  0
 21 22  1  0  0  0  0
 23 24  1  0  0  0  0
 23 29  1  6  0  0  0
 24 25  1  0  0  0  0
 24 28  1  1  0  0  0
 25 27  1  0  0  0  0
 25 26  1  1  0  0  0
 29 30  1  0  0  0  0
M  CHG  5   6   1  10   1  14   1  19   1  29   1
M  END
>  <CHROM.1>
174.48514727,144.85935276,96.85633818,152.42528652,-64.38462311,-49.90175343
57.83900146,156.47430357,-178.16878045,-56.91322741,-89.33734444,57.05107906
-144.72528791,1.81879612,4.79666944,-2.11638250,-0.98853363,0.09889167,-2.63113711

>  <Name>
1byj cryst

>  <RI>
0

>  <Rbt.Current_Directory>
/home/itssahil/PROJECTS/Mol_Feturizer/New_Systems/rnas/1byj

>  <Rbt.Executable>
rbdock ($Id: //depot/dev/client3/rdock/2013.1/src/exe/rbdock.cxx#4 $)

>  <Rbt.Library>
libRbt.so (2013.1, Build901 2013/11/27)

>  <Rbt.Parameter_File>
/export/apps/rDock/src/rDock_2013.1_src/data/scripts/dock_solv.prm

>  <Rbt.Receptor>
prm/pocket_docking_7.prm

>  <SCORE>
-29.8183

>  <SCORE.INTER>
-32.3758

>  <SCORE.INTER.CONST>
1

>  <SCORE.INTER.POLAR>
-4.97456

>  <SCORE.INTER.ROT>
6

>  <SCORE.INTER.SOLV>
20.0118

>  <SCORE.INTER.VDW>
-19.2726

>  <SCORE.INTER.norm>
-1.04438

>  <SCORE.INTRA>
2.55748

>  <SCORE.INTRA.DIHEDRAL>
2.20493

>  <SCORE.INTRA.DIHEDRAL.0>
18.4149

>  <SCORE.INTRA.POLAR>
-0.00245259

>  <SCORE.INTRA.POLAR.0>
0

>  <SCORE.INTRA.REPUL>
-0.0431174

>  <SCORE.INTRA.REPUL.0>
0.092687

>  <SCORE.INTRA.SOLV>
2.57286

>  <SCORE.INTRA.SOLV.lig_0>
-120.37

>  <SCORE.INTRA.VDW>
0.392512

>  <SCORE.INTRA.VDW.0>
-1.75542

>  <SCORE.INTRA.norm>
0.0824993

>  <SCORE.RESTR>
0

>  <SCORE.RESTR.CAVITY>
0

>  <SCORE.RESTR.norm>
0

>  <SCORE.SYSTEM>
0

>  <SCORE.SYSTEM.CONST>
0

>  <SCORE.SYSTEM.DIHEDRAL>
0

>  <SCORE.SYSTEM.SOLV>
0

>  <SCORE.SYSTEM.norm>
0

>  <SCORE.heavy>
31

>  <SCORE.norm>
-0.961882

>  <RMSD>
6.374

$$$$
1byj cryst
 OpenBabel11021811383D
libRbt.so/2013.1/901 2013/11/27
 31 33  0  0  0  0  0  0  0  0999 V2000
    4.6440    6.6627    0.8506 C   0  0  1  0  0  0  0  0  0  0  0  0
    4.9764    7.7683   -0.0490 O   0  0  0  0  0  0  0  0  0  0  0  0
    5.9249    8.7793    0.4057 C   0  0  2  0  0  0  0  0  0  0  0  0
    7.2723    8.2263    0.5303 O   0  0  0  0  0  0  0  0  0  0  0  0
    5.4358    9.3717    1.7623 C   0  0  2  0  0  0  0  0  0  0  0  0
    6.3366   10.4083    2.3037 N   0  3  0  0  0  0  0  0  0  0  0  0
    5.2357    8.2352    2.7979 C   0  0  0  0  0  0  0  0  0  0  0  0
    4.2627    7.1711    2.2683 C   0  0  0  0  0  0  0  0  0  0  0  0
    3.4667    5.8635    0.2645 C   0  0  0  0  0  0  0  0  0  0  0  0
    3.7605    5.2377   -1.0314 N   0  3  0  0  0  0  0  0  0  0  0  0
    7.6377    8.1704   -1.9057 C   0  0  1  0  0  0  0  0  0  0  0  0
    8.0757    7.3028   -3.1106 C   0  0  0  0  0  0  0  0  0  0  0  0
    7.2223    6.0083   -3.1872 C   0  0  1  0  0  0  0  0  0  0  0  0
    7.5970    5.2296   -4.3830 N   0  3  0  0  0  0  0  0  0  0  0  0
    7.3830    5.1790   -1.8802 C   0  0  1  0  0  0  0  0  0  0  0  0
    7.0582    6.0248   -0.6235 C   0  0  1  0  0  0  0  0  0  0  0  0
    7.4004    5.2283    0.5011 O   0  0  0  0  0  0  0  0  0  0  0  0
    7.8004    7.4001   -0.5543 C   0  0  2  0  0  0  0  0  0  0  0  0
    8.3815    9.4424   -1.9015 N   0  3  0  0  0  0  0  0  0  0  0  0
    6.1147    2.7485    0.8623 C   0  0  0  0  0  0  0  0  0  0  0  0
    5.2347    1.4986    0.6154 C   0  0  2  0  0  0  0  0  0  0  0  0
    6.0039    0.3630    1.0088 O   0  0  0  0  0  0  0  0  0  0  0  0
    4.8544    1.4183   -0.9111 C   0  0  1  0  0  0  0  0  0  0  0  0
    6.0897    1.5999   -1.8573 C   0  0  2  0  0  0  0  0  0  0  0  0
    7.0182    2.7695   -1.4430 C   0  0  1  0  0  0  0  0  0  0  0  0
    6.4729    4.0422   -1.8796 O   0  0  0  0  0  0  0  0  0  0  0  0
    7.2758    2.7506   -0.0105 O   0  0  0  0  0  0  0  0  0  0  0  0
    5.6860    1.7902   -3.2108 O   0  0  0  0  0  0  0  0  0  0  0  0
    4.1602    0.1231   -1.1920 N   0  3  0  0  0  0  0  0  0  0  0  0
    3.4537    0.0072   -2.4841 C   0  0  0  0  0  0  0  0  0  0  0  0
    4.0034    1.5673    1.5520 C   0  0  0  0  0  0  0  0  0  0  0  0
  1  8  1  0  0  0  0
  1  9  1  6  0  0  0
  1  2  1  0  0  0  0
  2  3  1  0  0  0  0
  3  5  1  0  0  0  0
  3  4  1  1  0  0  0
  5  7  1  0  0  0  0
  5  6  1  1  0  0  0
  7  8  1  0  0  0  0
  9 10  1  0  0  0  0
 11 12  1  0  0  0  0
 11 18  1  0  0  0  0
 11 19  1  1  0  0  0
 12 13  1  0  0  0  0
 13 15  1  0  0  0  0
 13 14  1  6  0  0  0
 15 16  1  0  0  0  0
 15 26  1  6  0  0  0
 16 18  1  0  0  0  0
 16 17  1  1  0  0  0
 18  4  1  1  0  0  0
 20 21  1  0  0  0  0
 20 27  1  0  0  0  0
 21 31  1  1  0  0  0
 21 23  1  0  0  0  0
 21 22  1  0  0  0  0
 23 24  1  0  0  0  0
 23 29  1  1  0  0  0
 24 25  1  0  0  0  0
 24 28  1  6  0  0  0
 25 27  1  0  0  0  0
 25 26  1  1  0  0  0
 29 30  1  0  0  0  0
M  CHG  5   6   1  10   1  14   1  19   1  29   1
M  END
>  <CHROM.1>
62.37627199,46.26143121,51.70276395,-177.20936367,-71.16076939,-93.02953872
46.97431330,135.88652581,62.62620813,-57.40781018,-72.92677433,61.81605474
-164.26143880,6.01723500,5.09248848,-0.53263420,1.24305602,0.98803764,0.45345474

>  <Name>
1byj cryst

>  <RI>
0

>  <Rbt.Current_Directory>
/home/itssahil/PROJECTS/Mol_Feturizer/New_Systems/rnas/1byj

>  <Rbt.Executable>
rbdock ($Id: //depot/dev/client3/rdock/2013.1/src/exe/rbdock.cxx#4 $)

>  <Rbt.Library>
libRbt.so (2013.1, Build901 2013/11/27)

>  <Rbt.Parameter_File>
/export/apps/rDock/src/rDock_2013.1_src/data/scripts/dock_solv.prm

>  <Rbt.Receptor>
prm/pocket_docking_8.prm

>  <SCORE>
-28.717

>  <SCORE.INTER>
-20.7284

>  <SCORE.INTER.CONST>
1

>  <SCORE.INTER.POLAR>
-3.81303

>  <SCORE.INTER.ROT>
6

>  <SCORE.INTER.SOLV>
14.319

>  <SCORE.INTER.VDW>
-13.4818

>  <SCORE.INTER.norm>
-0.668658

>  <SCORE.INTRA>
-7.98862

>  <SCORE.INTRA.DIHEDRAL>
-6.26738

>  <SCORE.INTRA.DIHEDRAL.0>
18.4149

>  <SCORE.INTRA.POLAR>
-1.12482

>  <SCORE.INTRA.POLAR.0>
0

>  <SCORE.INTRA.REPUL>
-0.092687

>  <SCORE.INTRA.REPUL.0>
0.092687

>  <SCORE.INTRA.SOLV>
2.48538

>  <SCORE.INTRA.SOLV.lig_0>
-120.37

>  <SCORE.INTRA.VDW>
-1.80979

>  <SCORE.INTRA.VDW.0>
-1.75542

>  <SCORE.INTRA.norm>
-0.257697

>  <SCORE.RESTR>
0

>  <SCORE.RESTR.CAVITY>
0

>  <SCORE.RESTR.norm>
0

>  <SCORE.SYSTEM>
0

>  <SCORE.SYSTEM.CONST>
0

>  <SCORE.SYSTEM.DIHEDRAL>
0

>  <SCORE.SYSTEM.SOLV>
0

>  <SCORE.SYSTEM.norm>
0

>  <SCORE.heavy>
31

>  <SCORE.norm>
-0.926355

>  <RMSD>
6.377

$$$$
1byj cryst
 OpenBabel11021811383D
libRbt.so/2013.1/901 2013/11/27
 31 33  0  0  0  0  0  0  0  0999 V2000
    2.5419   -0.2668   -3.0076 C   0  0  1  0  0  0  0  0  0  0  0  0
    3.0499    0.8539   -3.8001 O   0  0  0  0  0  0  0  0  0  0  0  0
    2.2379    1.3556   -4.9035 C   0  0  2  0  0  0  0  0  0  0  0  0
    1.0223    2.0051   -4.4166 O   0  0  0  0  0  0  0  0  0  0  0  0
    1.8959    0.1793   -5.8678 C   0  0  2  0  0  0  0  0  0  0  0  0
    1.0723    0.5924   -7.0211 N   0  3  0  0  0  0  0  0  0  0  0  0
    1.1971   -0.9632   -5.0864 C   0  0  0  0  0  0  0  0  0  0  0  0
    2.0636   -1.4375   -3.9101 C   0  0  0  0  0  0  0  0  0  0  0  0
    3.6504   -0.7714   -2.0670 C   0  0  0  0  0  0  0  0  0  0  0  0
    4.1473    0.2484   -1.1341 N   0  3  0  0  0  0  0  0  0  0  0  0
   -0.4506    2.8526   -2.6326 C   0  0  1  0  0  0  0  0  0  0  0  0
   -0.5137    3.5895   -1.2726 C   0  0  0  0  0  0  0  0  0  0  0  0
    0.2007    4.9646   -1.3657 C   0  0  1  0  0  0  0  0  0  0  0  0
    0.0655    5.6885   -0.0872 N   0  3  0  0  0  0  0  0  0  0  0  0
    1.6912    4.7711   -1.7689 C   0  0  1  0  0  0  0  0  0  0  0  0
    1.8278    3.9472   -3.0738 C   0  0  1  0  0  0  0  0  0  0  0  0
    3.2133    3.6904   -3.2483 O   0  0  0  0  0  0  0  0  0  0  0  0
    1.0264    2.6037   -3.0826 C   0  0  2  0  0  0  0  0  0  0  0  0
   -1.2188    1.5971   -2.5635 N   0  3  0  0  0  0  0  0  0  0  0  0
    1.3300    8.9333   -2.2430 C   0  0  0  0  0  0  0  0  0  0  0  0
    2.4638    9.7046   -2.9622 C   0  0  2  0  0  0  0  0  0  0  0  0
    1.9187   10.2047   -4.1825 O   0  0  0  0  0  0  0  0  0  0  0  0
    3.6668    8.7272   -3.2430 C   0  0  1  0  0  0  0  0  0  0  0  0
    3.2155    7.3780   -3.8990 C   0  0  2  0  0  0  0  0  0  0  0  0
    1.9665    6.7524   -3.2278 C   0  0  1  0  0  0  0  0  0  0  0  0
    2.3294    6.0585   -2.0053 O   0  0  0  0  0  0  0  0  0  0  0  0
    0.9378    7.7565   -2.9987 O   0  0  0  0  0  0  0  0  0  0  0  0
    4.2692    6.4183   -3.8949 O   0  0  0  0  0  0  0  0  0  0  0  0
    4.6875    9.4130   -4.0951 N   0  3  0  0  0  0  0  0  0  0  0  0
    6.1042    9.0776   -3.8455 C   0  0  0  0  0  0  0  0  0  0  0  0
    2.8559   10.9282   -2.0978 C   0  0  0  0  0  0  0  0  0  0  0  0
  1  8  1  0  0  0  0
  1  9  1  1  0  0  0
  1  2  1  0  0  0  0
  2  3  1  0  0  0  0
  3  5  1  0  0  0  0
  3  4  1  1  0  0  0
  5  7  1  0  0  0  0
  5  6  1  6  0  0  0
  7  8  1  0  0  0  0
  9 10  1  0  0  0  0
 11 12  1  0  0  0  0
 11 18  1  0  0  0  0
 11 19  1  1  0  0  0
 12 13  1  0  0  0  0
 13 15  1  0  0  0  0
 13 14  1  1  0  0  0
 15 16  1  0  0  0  0
 15 26  1  6  0  0  0
 16 18  1  0  0  0  0
 16 17  1  1  0  0  0
 18  4  1  6  0  0  0
 20 21  1  0  0  0  0
 20 27  1  0  0  0  0
 21 31  1  1  0  0  0
 21 23  1  0  0  0  0
 21 22  1  0  0  0  0
 23 24  1  0  0  0  0
 23 29  1  6  0  0  0
 24 25  1  0  0  0  0
 24 28  1  1  0  0  0
 25 27  1  0  0  0  0
 25 26  1  1  0  0  0
 29 30  1  0  0  0  0
M  CHG  5   6   1  10   1  14   1  19   1  29   1
M  END
>  <CHROM.1>
59.38368747,26.98136161,-163.76571025,165.42331416,-51.45772683,-58.16021872
62.11063931,-73.39249168,-49.15382267,-176.98241588,-93.58597507,-62.72750299
-137.99387130,2.09682108,4.43531607,-3.19812486,-1.73233588,0.59708032,0.17360275

>  <Name>
1byj cryst

>  <RI>
0

>  <Rbt.Current_Directory>
/home/itssahil/PROJECTS/Mol_Feturizer/New_Systems/rnas/1byj

>  <Rbt.Executable>
rbdock ($Id: //depot/dev/client3/rdock/2013.1/src/exe/rbdock.cxx#4 $)

>  <Rbt.Library>
libRbt.so (2013.1, Build901 2013/11/27)

>  <Rbt.Parameter_File>
/export/apps/rDock/src/rDock_2013.1_src/data/scripts/dock_solv.prm

>  <Rbt.Receptor>
prm/pocket_docking_8.prm

>  <SCORE>
-34.2571

>  <SCORE.INTER>
-27.5373

>  <SCORE.INTER.CONST>
1

>  <SCORE.INTER.POLAR>
-4.76488

>  <SCORE.INTER.ROT>
6

>  <SCORE.INTER.SOLV>
20.1971

>  <SCORE.INTER.VDW>
-16.8076

>  <SCORE.INTER.norm>
-0.888299

>  <SCORE.INTRA>
-6.71981

>  <SCORE.INTRA.DIHEDRAL>
-2.61176

>  <SCORE.INTRA.DIHEDRAL.0>
18.4149

>  <SCORE.INTRA.POLAR>
-0.995028

>  <SCORE.INTRA.POLAR.0>
0

>  <SCORE.INTRA.REPUL>
-0.092687

>  <SCORE.INTRA.REPUL.0>
0.092687

>  <SCORE.INTRA.SOLV>
-1.55855

>  <SCORE.INTRA.SOLV.lig_0>
-120.37

>  <SCORE.INTRA.VDW>
-0.788122

>  <SCORE.INTRA.VDW.0>
-1.75542

>  <SCORE.INTRA.norm>
-0.216768

>  <SCORE.RESTR>
0

>  <SCORE.RESTR.CAVITY>
0

>  <SCORE.RESTR.norm>
0

>  <SCORE.SYSTEM>
0

>  <SCORE.SYSTEM.CONST>
0

>  <SCORE.SYSTEM.DIHEDRAL>
0

>  <SCORE.SYSTEM.SOLV>
0

>  <SCORE.SYSTEM.norm>
0

>  <SCORE.heavy>
31

>  <SCORE.norm>
-1.10507

>  <RMSD>
6.462

$$$$
1byj cryst
 OpenBabel11021811383D
libRbt.so/2013.1/901 2013/11/27
 31 33  0  0  0  0  0  0  0  0999 V2000
    7.5685    3.6389   -3.1473 C   0  0  1  0  0  0  0  0  0  0  0  0
    7.3590    2.3267   -3.7607 O   0  0  0  0  0  0  0  0  0  0  0  0
    8.4915    1.4123   -3.8609 C   0  0  2  0  0  0  0  0  0  0  0  0
    8.9111    0.9393   -2.5430 O   0  0  0  0  0  0  0  0  0  0  0  0
    9.6652    2.1248   -4.5994 C   0  0  2  0  0  0  0  0  0  0  0  0
   10.8616    1.2732   -4.7488 N   0  3  0  0  0  0  0  0  0  0  0  0
   10.0288    3.4445   -3.8713 C   0  0  0  0  0  0  0  0  0  0  0  0
    8.8039    4.3633   -3.7498 C   0  0  0  0  0  0  0  0  0  0  0  0
    6.3167    4.5082   -3.3604 C   0  0  0  0  0  0  0  0  0  0  0  0
    6.5716    5.7408   -4.1174 N   0  3  0  0  0  0  0  0  0  0  0  0
    9.3132    1.3677   -0.1503 C   0  0  1  0  0  0  0  0  0  0  0  0
    8.7067    1.9027    1.1698 C   0  0  0  0  0  0  0  0  0  0  0  0
    7.3866    1.1570    1.5029 C   0  0  1  0  0  0  0  0  0  0  0  0
    6.8610    1.6216    2.8009 N   0  3  0  0  0  0  0  0  0  0  0  0
    6.3538    1.3508    0.3552 C   0  0  1  0  0  0  0  0  0  0  0  0
    6.9380    0.9291   -1.0163 C   0  0  1  0  0  0  0  0  0  0  0  0
    5.9831    1.3058   -1.9972 O   0  0  0  0  0  0  0  0  0  0  0  0
    8.3306    1.5579   -1.3521 C   0  0  2  0  0  0  0  0  0  0  0  0
   10.6159    2.0078   -0.4042 N   0  3  0  0  0  0  0  0  0  0  0  0
    3.2935    2.7066   -0.4504 C   0  0  0  0  0  0  0  0  0  0  0  0
    1.9067    2.0285   -0.5710 C   0  0  2  0  0  0  0  0  0  0  0  0
    1.0229    2.7286    0.3036 O   0  0  0  0  0  0  0  0  0  0  0  0
    2.0257    0.5138   -0.1552 C   0  0  1  0  0  0  0  0  0  0  0  0
    2.7857    0.3117    1.1996 C   0  0  2  0  0  0  0  0  0  0  0  0
    4.0793    1.1574    1.3141 C   0  0  1  0  0  0  0  0  0  0  0  0
    5.1706    0.5342    0.5871 O   0  0  0  0  0  0  0  0  0  0  0  0
    3.8486    2.5275    0.8798 O   0  0  0  0  0  0  0  0  0  0  0  0
    3.1116   -1.0589    1.4150 O   0  0  0  0  0  0  0  0  0  0  0  0
    0.6637   -0.1023   -0.0934 N   0  3  0  0  0  0  0  0  0  0  0  0
    0.1172   -0.6490   -1.3521 C   0  0  0  0  0  0  0  0  0  0  0  0
    1.3811    2.2296   -2.0138 C   0  0  0  0  0  0  0  0  0  0  0  0
  1  8  1  0  0  0  0
  1  9  1  6  0  0  0
  1  2  1  0  0  0  0
  2  3  1  0  0  0  0
  3  5  1  0  0  0  0
  3  4  1  1  0  0  0
  5  7  1  0  0  0  0
  5  6  1  1  0  0  0
  7  8  1  0  0  0  0
  9 10  1  0  0  0  0
 11 12  1  0  0  0  0
 11 18  1  0  0  0  0
 11 19  1  6  0  0  0
 12 13  1  0  0  0  0
 13 15  1  0  0  0  0
 13 14  1  1  0  0  0
 15 16  1  0  0  0  0
 15 26  1  1  0  0  0
 16 18  1  0  0  0  0
 16 17  1  6  0  0  0
 18  4  1  6  0  0  0
 20 21  1  0  0  0  0
 20 27  1  0  0  0  0
 21 31  1  6  0  0  0
 21 23  1  0  0  0  0
 21 22  1  0  0  0  0
 23 24  1  0  0  0  0
 23 29  1  1  0  0  0
 24 25  1  0  0  0  0
 24 28  1  6  0  0  0
 25 27  1  0  0  0  0
 25 26  1  6  0  0  0
 29 30  1  0  0  0  0
M  CHG  5   6   1  10   1  14   1  19   1  29   1
M  END
>  <CHROM.1>
-119.66637111,-9.12479276,-155.85078199,-179.29308334,-53.16176028,170.62609138
-50.98921284,91.69929860,174.05200774,170.35087344,-152.37836332,54.21628243
166.72036461,5.93688544,1.80220791,-1.15478898,0.47181941,-0.00205730,-1.10408686

>  <Name>
1byj cryst

>  <RI>
0

>  <Rbt.Current_Directory>
/home/itssahil/PROJECTS/Mol_Feturizer/New_Systems/rnas/1byj

>  <Rbt.Executable>
rbdock ($Id: //depot/dev/client3/rdock/2013.1/src/exe/rbdock.cxx#4 $)

>  <Rbt.Library>
libRbt.so (2013.1, Build901 2013/11/27)

>  <Rbt.Parameter_File>
/export/apps/rDock/src/rDock_2013.1_src/data/scripts/dock_solv.prm

>  <Rbt.Receptor>
prm/pocket_docking_7.prm

>  <SCORE>
-45.6675

>  <SCORE.INTER>
-48.7423

>  <SCORE.INTER.CONST>
1

>  <SCORE.INTER.POLAR>
-6.32205

>  <SCORE.INTER.ROT>
6

>  <SCORE.INTER.SOLV>
35.0156

>  <SCORE.INTER.VDW>
-30.6932

>  <SCORE.INTER.norm>
-1.57233

>  <SCORE.INTRA>
3.07477

>  <SCORE.INTRA.DIHEDRAL>
3.93714

>  <SCORE.INTRA.DIHEDRAL.0>
18.4149

>  <SCORE.INTRA.POLAR>
-0.472499

>  <SCORE.INTRA.POLAR.0>
0

>  <SCORE.INTRA.REPUL>
-0.092687

>  <SCORE.INTRA.REPUL.0>
0.092687

>  <SCORE.INTRA.SOLV>
0.216522

>  <SCORE.INTRA.SOLV.lig_0>
-120.37

>  <SCORE.INTRA.VDW>
3.06787

>  <SCORE.INTRA.VDW.0>
-1.75542

>  <SCORE.INTRA.norm>
0.0991862

>  <SCORE.RESTR>
0

>  <SCORE.RESTR.CAVITY>
0

>  <SCORE.RESTR.norm>
0

>  <SCORE.SYSTEM>
0

>  <SCORE.SYSTEM.CONST>
0

>  <SCORE.SYSTEM.DIHEDRAL>
0

>  <SCORE.SYSTEM.SOLV>
0

>  <SCORE.SYSTEM.norm>
0

>  <SCORE.heavy>
31

>  <SCORE.norm>
-1.47315

>  <RMSD>
6.543

$$$$
1byj cryst
 OpenBabel11021811383D
libRbt.so/2013.1/901 2013/11/27
 31 33  0  0  0  0  0  0  0  0999 V2000
    1.9419    4.3133   -0.2357 C   0  0  1  0  0  0  0  0  0  0  0  0
    2.3349    4.0712   -1.6246 O   0  0  0  0  0  0  0  0  0  0  0  0
    1.3311    4.2230   -2.6725 C   0  0  2  0  0  0  0  0  0  0  0  0
    0.9343    5.6210   -2.8300 O   0  0  0  0  0  0  0  0  0  0  0  0
    0.1000    3.3260   -2.3404 C   0  0  2  0  0  0  0  0  0  0  0  0
   -0.9736    3.4138   -3.3496 N   0  3  0  0  0  0  0  0  0  0  0  0
   -0.4503    3.6772   -0.9341 C   0  0  0  0  0  0  0  0  0  0  0  0
    0.6440    3.5444    0.1357 C   0  0  0  0  0  0  0  0  0  0  0  0
    3.0795    3.8711    0.7016 C   0  0  0  0  0  0  0  0  0  0  0  0
    2.8982    4.2949    2.0962 N   0  3  0  0  0  0  0  0  0  0  0  0
    1.2853    8.0570   -2.9443 C   0  0  1  0  0  0  0  0  0  0  0  0
    2.3312    9.1980   -2.9183 C   0  0  0  0  0  0  0  0  0  0  0  0
    3.4123    8.9693   -4.0085 C   0  0  1  0  0  0  0  0  0  0  0  0
    4.3573   10.1023   -4.0243 N   0  3  0  0  0  0  0  0  0  0  0  0
    4.1365    7.6122   -3.7728 C   0  0  1  0  0  0  0  0  0  0  0  0
    3.1317    6.4363   -3.6844 C   0  0  1  0  0  0  0  0  0  0  0  0
    3.8795    5.2917   -3.3016 O   0  0  0  0  0  0  0  0  0  0  0  0
    1.9486    6.6643   -2.6867 C   0  0  2  0  0  0  0  0  0  0  0  0
    0.2087    8.3357   -1.9775 N   0  3  0  0  0  0  0  0  0  0  0  0
    6.3452    8.6160   -2.4335 C   0  0  0  0  0  0  0  0  0  0  0  0
    6.9439    7.4457   -1.6153 C   0  0  2  0  0  0  0  0  0  0  0  0
    8.3529    7.6613   -1.5492 O   0  0  0  0  0  0  0  0  0  0  0  0
    6.6170    6.0825   -2.3337 C   0  0  1  0  0  0  0  0  0  0  0  0
    6.9491    6.1053   -3.8644 C   0  0  2  0  0  0  0  0  0  0  0  0
    6.4660    7.3911   -4.5820 C   0  0  1  0  0  0  0  0  0  0  0  0
    5.0453    7.3187   -4.8721 O   0  0  0  0  0  0  0  0  0  0  0  0
    6.8040    8.5787   -3.8112 O   0  0  0  0  0  0  0  0  0  0  0  0
    6.4022    4.9720   -4.5335 O   0  0  0  0  0  0  0  0  0  0  0  0
    7.3425    4.9652   -1.6527 N   0  3  0  0  0  0  0  0  0  0  0  0
    6.9121    3.5899   -1.9771 C   0  0  0  0  0  0  0  0  0  0  0  0
    6.3981    7.5233   -0.1681 C   0  0  0  0  0  0  0  0  0  0  0  0
  1  8  1  0  0  0  0
  1  9  1  1  0  0  0
  1  2  1  0  0  0  0
  2  3  1  0  0  0  0
  3  5  1  0  0  0  0
  3  4  1  1  0  0  0
  5  7  1  0  0  0  0
  5  6  1  6  0  0  0
  7  8  1  0  0  0  0
  9 10  1  0  0  0  0
 11 12  1  0  0  0  0
 11 18  1  0  0  0  0
 11 19  1  1  0  0  0
 12 13  1  0  0  0  0
 13 15  1  0  0  0  0
 13 14  1  1  0  0  0
 15 16  1  0  0  0  0
 15 26  1  6  0  0  0
 16 18  1  0  0  0  0
 16 17  1  1  0  0  0
 18  4  1  6  0  0  0
 20 21  1  0  0  0  0
 20 27  1  0  0  0  0
 21 31  1  1  0  0  0
 21 23  1  0  0  0  0
 21 22  1  0  0  0  0
 23 24  1  0  0  0  0
 23 29  1  1  0  0  0
 24 25  1  0  0  0  0
 24 28  1  6  0  0  0
 25 27  1  0  0  0  0
 25 26  1  1  0  0  0
 29 30  1  0  0  0  0
M  CHG  5   6   1  10   1  14   1  19   1  29   1
M  END
>  <CHROM.1>
169.26679573,37.22048243,178.20233928,-51.64893483,-45.48132290,-152.06446535
-76.36598682,109.84852279,61.50768193,-58.97499089,-73.13425596,-176.03414794
79.79110451,3.79453041,6.16710246,-2.37241110,-2.61823318,-0.08280001,-0.63001996

>  <Name>
1byj cryst

>  <RI>
0

>  <Rbt.Current_Directory>
/home/itssahil/PROJECTS/Mol_Feturizer/New_Systems/rnas/1byj

>  <Rbt.Executable>
rbdock ($Id: //depot/dev/client3/rdock/2013.1/src/exe/rbdock.cxx#4 $)

>  <Rbt.Library>
libRbt.so (2013.1, Build901 2013/11/27)

>  <Rbt.Parameter_File>
/export/apps/rDock/src/rDock_2013.1_src/data/scripts/dock_solv.prm

>  <Rbt.Receptor>
prm/pocket_docking_3.prm

>  <SCORE>
-28.91

>  <SCORE.INTER>
-26.5504

>  <SCORE.INTER.CONST>
1

>  <SCORE.INTER.POLAR>
-4.50528

>  <SCORE.INTER.ROT>
6

>  <SCORE.INTER.SOLV>
17.1281

>  <SCORE.INTER.VDW>
-15.992

>  <SCORE.INTER.norm>
-0.856464

>  <SCORE.INTRA>
-2.36136

>  <SCORE.INTRA.DIHEDRAL>
-3.44355

>  <SCORE.INTRA.DIHEDRAL.0>
18.4149

>  <SCORE.INTRA.POLAR>
-0.329893

>  <SCORE.INTRA.POLAR.0>
0

>  <SCORE.INTRA.REPUL>
-0.092687

>  <SCORE.INTRA.REPUL.0>
0.092687

>  <SCORE.INTRA.SOLV>
-0.026382

>  <SCORE.INTRA.SOLV.lig_0>
-120.37

>  <SCORE.INTRA.VDW>
0.958671

>  <SCORE.INTRA.VDW.0>
-1.75542

>  <SCORE.INTRA.norm>
-0.076173

>  <SCORE.RESTR>
0.0017548

>  <SCORE.RESTR.CAVITY>
0.0017548

>  <SCORE.RESTR.norm>
5.66065e-05

>  <SCORE.SYSTEM>
0

>  <SCORE.SYSTEM.CONST>
0

>  <SCORE.SYSTEM.DIHEDRAL>
0

>  <SCORE.SYSTEM.SOLV>
0

>  <SCORE.SYSTEM.norm>
0

>  <SCORE.heavy>
31

>  <SCORE.norm>
-0.93258

>  <RMSD>
6.597

$$$$
1byj cryst
 OpenBabel11021811383D
libRbt.so/2013.1/901 2013/11/27
 31 33  0  0  0  0  0  0  0  0999 V2000
    2.5581    3.6021    0.0121 C   0  0  1  0  0  0  0  0  0  0  0  0
    1.9519    4.9311    0.1036 O   0  0  0  0  0  0  0  0  0  0  0  0
    1.2323    5.2897    1.3211 C   0  0  2  0  0  0  0  0  0  0  0  0
    2.1423    5.4192    2.4577 O   0  0  0  0  0  0  0  0  0  0  0  0
    0.1330    4.2210    1.6036 C   0  0  2  0  0  0  0  0  0  0  0  0
   -0.6513    4.5006    2.8225 N   0  3  0  0  0  0  0  0  0  0  0  0
    0.7706    2.8099    1.6832 C   0  0  0  0  0  0  0  0  0  0  0  0
    1.5517    2.4843    0.4013 C   0  0  0  0  0  0  0  0  0  0  0  0
    3.0508    3.3631   -1.4260 C   0  0  0  0  0  0  0  0  0  0  0  0
    2.0141    3.5559   -2.4485 N   0  3  0  0  0  0  0  0  0  0  0  0
    2.5687    7.8325    2.2032 C   0  0  1  0  0  0  0  0  0  0  0  0
    3.6504    8.9249    2.0211 C   0  0  0  0  0  0  0  0  0  0  0  0
    4.5309    8.6165    0.7804 C   0  0  1  0  0  0  0  0  0  0  0  0
    5.5060    9.7043    0.5736 N   0  3  0  0  0  0  0  0  0  0  0  0
    5.2281    7.2349    0.9445 C   0  0  1  0  0  0  0  0  0  0  0  0
    4.2040    6.1091    1.2340 C   0  0  1  0  0  0  0  0  0  0  0  0
    4.9568    4.9427    1.5319 O   0  0  0  0  0  0  0  0  0  0  0  0
    3.2079    6.4187    2.3999 C   0  0  2  0  0  0  0  0  0  0  0  0
    1.6748    8.1871    3.3197 N   0  3  0  0  0  0  0  0  0  0  0  0
    5.5247    8.2479   -2.9683 C   0  0  0  0  0  0  0  0  0  0  0  0
    6.2354    7.3439   -4.0053 C   0  0  2  0  0  0  0  0  0  0  0  0
    5.2382    6.9003   -4.9244 O   0  0  0  0  0  0  0  0  0  0  0  0
    6.9021    6.1226   -3.2667 C   0  0  1  0  0  0  0  0  0  0  0  0
    5.9281    5.4079   -2.2695 C   0  0  2  0  0  0  0  0  0  0  0  0
    5.1241    6.3904   -1.3806 C   0  0  1  0  0  0  0  0  0  0  0  0
    5.9345    6.8694   -0.2754 O   0  0  0  0  0  0  0  0  0  0  0  0
    4.5801    7.4851   -2.1709 O   0  0  0  0  0  0  0  0  0  0  0  0
    6.6234    4.4908   -1.4288 O   0  0  0  0  0  0  0  0  0  0  0  0
    7.4333    5.1514   -4.2733 N   0  3  0  0  0  0  0  0  0  0  0  0
    8.8769    5.2233   -4.5777 C   0  0  0  0  0  0  0  0  0  0  0  0
    7.2458    8.2051   -4.8026 C   0  0  0  0  0  0  0  0  0  0  0  0
  1  8  1  0  0  0  0
  1  9  1  6  0  0  0
  1  2  1  0  0  0  0
  2  3  1  0  0  0  0
  3  5  1  0  0  0  0
  3  4  1  1  0  0  0
  5  7  1  0  0  0  0
  5  6  1  1  0  0  0
  7  8  1  0  0  0  0
  9 10  1  0  0  0  0
 11 12  1  0  0  0  0
 11 18  1  0  0  0  0
 11 19  1  1  0  0  0
 12 13  1  0  0  0  0
 13 15  1  0  0  0  0
 13 14  1  1  0  0  0
 15 16  1  0  0  0  0
 15 26  1  6  0  0  0
 16 18  1  0  0  0  0
 16 17  1  1  0  0  0
 18  4  1  6  0  0  0
 20 21  1  0  0  0  0
 20 27  1  0  0  0  0
 21 31  1  6  0  0  0
 21 23  1  0  0  0  0
 21 22  1  0  0  0  0
 23 24  1  0  0  0  0
 23 29  1  6  0  0  0
 24 25  1  0  0  0  0
 24 28  1  1  0  0  0
 25 27  1  0  0  0  0
 25 26  1  1  0  0  0
 29 30  1  0  0  0  0
M  CHG  5   6   1  10   1  14   1  19   1  29   1
M  END
>  <CHROM.1>
-54.39854352,60.60496663,58.76405916,-172.11200979,-56.68214057,50.72735667
-175.26991790,-76.46435077,60.36988893,57.54966602,-140.30069458,-60.26049318
-151.15477971,4.06128328,5.99704602,-0.48931765,2.82757886,0.77357158,0.68274168

>  <Name>
1byj cryst

>  <RI>
0

>  <Rbt.Current_Directory>
/home/itssahil/PROJECTS/Mol_Feturizer/New_Systems/rnas/1byj

>  <Rbt.Executable>
rbdock ($Id: //depot/dev/client3/rdock/2013.1/src/exe/rbdock.cxx#4 $)

>  <Rbt.Library>
libRbt.so (2013.1, Build901 2013/11/27)

>  <Rbt.Parameter_File>
/export/apps/rDock/src/rDock_2013.1_src/data/scripts/dock_solv.prm

>  <Rbt.Receptor>
prm/pocket_docking_6.prm

>  <SCORE>
-28.3458

>  <SCORE.INTER>
-21.0714

>  <SCORE.INTER.CONST>
1

>  <SCORE.INTER.POLAR>
-4.42591

>  <SCORE.INTER.ROT>
6

>  <SCORE.INTER.SOLV>
11.7706

>  <SCORE.INTER.VDW>
-10.8181

>  <SCORE.INTER.norm>
-0.679724

>  <SCORE.INTRA>
-7.27436

>  <SCORE.INTRA.DIHEDRAL>
-10.3177

>  <SCORE.INTRA.DIHEDRAL.0>
18.4149

>  <SCORE.INTRA.POLAR>
-0.104181

>  <SCORE.INTRA.POLAR.0>
0

>  <SCORE.INTRA.REPUL>
-0.092687

>  <SCORE.INTRA.REPUL.0>
0.092687

>  <SCORE.INTRA.SOLV>
-0.325478

>  <SCORE.INTRA.SOLV.lig_0>
-120.37

>  <SCORE.INTRA.VDW>
-1.1351

>  <SCORE.INTRA.VDW.0>
-1.75542

>  <SCORE.INTRA.norm>
-0.234657

>  <SCORE.RESTR>
0

>  <SCORE.RESTR.CAVITY>
0

>  <SCORE.RESTR.norm>
0

>  <SCORE.SYSTEM>
0

>  <SCORE.SYSTEM.CONST>
0

>  <SCORE.SYSTEM.DIHEDRAL>
0

>  <SCORE.SYSTEM.SOLV>
0

>  <SCORE.SYSTEM.norm>
0

>  <SCORE.heavy>
31

>  <SCORE.norm>
-0.91438

>  <RMSD>
6.653

$$$$
1byj cryst
 OpenBabel11021811383D
libRbt.so/2013.1/901 2013/11/27
 31 33  0  0  0  0  0  0  0  0999 V2000
    2.1761    2.5386    0.0453 C   0  0  1  0  0  0  0  0  0  0  0  0
    1.2429    2.9412   -1.0078 O   0  0  0  0  0  0  0  0  0  0  0  0
   -0.1776    3.0316   -0.6871 C   0  0  2  0  0  0  0  0  0  0  0  0
   -0.4455    4.1348    0.2338 O   0  0  0  0  0  0  0  0  0  0  0  0
   -0.6581    1.6744   -0.0891 C   0  0  2  0  0  0  0  0  0  0  0  0
   -2.0903    1.6700    0.2682 N   0  3  0  0  0  0  0  0  0  0  0  0
    0.2070    1.2994    1.1418 C   0  0  0  0  0  0  0  0  0  0  0  0
    1.6979    1.2529    0.7749 C   0  0  0  0  0  0  0  0  0  0  0  0
    3.5635    2.2862   -0.5705 C   0  0  0  0  0  0  0  0  0  0  0  0
    4.1240    3.4508   -1.2684 N   0  3  0  0  0  0  0  0  0  0  0  0
   -0.7754    5.7652   -1.5837 C   0  0  1  0  0  0  0  0  0  0  0  0
   -0.3818    7.1565   -2.1368 C   0  0  0  0  0  0  0  0  0  0  0  0
    1.1591    7.2641   -2.2909 C   0  0  1  0  0  0  0  0  0  0  0  0
    1.5144    8.5642   -2.8911 N   0  3  0  0  0  0  0  0  0  0  0  0
    1.8544    7.0501   -0.9152 C   0  0  1  0  0  0  0  0  0  0  0  0
    1.4203    5.7164   -0.2571 C   0  0  1  0  0  0  0  0  0  0  0  0
    1.9752    5.7095    1.0499 O   0  0  0  0  0  0  0  0  0  0  0  0
   -0.1272    5.4988   -0.1855 C   0  0  2  0  0  0  0  0  0  0  0  0
   -2.2426    5.6356   -1.5384 N   0  3  0  0  0  0  0  0  0  0  0  0
    4.9574    7.9223    1.3180 C   0  0  0  0  0  0  0  0  0  0  0  0
    6.4242    7.9355    0.8220 C   0  0  2  0  0  0  0  0  0  0  0  0
    6.8890    9.2802    0.9312 O   0  0  0  0  0  0  0  0  0  0  0  0
    6.4766    7.4425   -0.6732 C   0  0  1  0  0  0  0  0  0  0  0  0
    5.4244    8.1569   -1.5878 C   0  0  2  0  0  0  0  0  0  0  0  0
    4.0164    8.2562   -0.9479 C   0  0  1  0  0  0  0  0  0  0  0  0
    3.3010    6.9993   -1.0745 O   0  0  0  0  0  0  0  0  0  0  0  0
    4.1010    8.6970    0.4368 O   0  0  0  0  0  0  0  0  0  0  0  0
    5.3101    7.5115   -2.8533 O   0  0  0  0  0  0  0  0  0  0  0  0
    7.8585    7.6235   -1.2174 N   0  3  0  0  0  0  0  0  0  0  0  0
    8.1715    6.9459   -2.4920 C   0  0  0  0  0  0  0  0  0  0  0  0
    7.2794    7.0735    1.7830 C   0  0  0  0  0  0  0  0  0  0  0  0
  1  8  1  0  0  0  0
  1  9  1  6  0  0  0
  1  2  1  0  0  0  0
  2  3  1  0  0  0  0
  3  5  1  0  0  0  0
  3  4  1  1  0  0  0
  5  7  1  0  0  0  0
  5  6  1  1  0  0  0
  7  8  1  0  0  0  0
  9 10  1  0  0  0  0
 11 12  1  0  0  0  0
 11 18  1  0  0  0  0
 11 19  1  1  0  0  0
 12 13  1  0  0  0  0
 13 15  1  0  0  0  0
 13 14  1  1  0  0  0
 15 16  1  0  0  0  0
 15 26  1  6  0  0  0
 16 18  1  0  0  0  0
 16 17  1  1  0  0  0
 18  4  1  6  0  0  0
 20 21  1  0  0  0  0
 20 27  1  0  0  0  0
 21 31  1  1  0  0  0
 21 23  1  0  0  0  0
 21 22  1  0  0  0  0
 23 24  1  0  0  0  0
 23 29  1  6  0  0  0
 24 25  1  0  0  0  0
 24 28  1  6  0  0  0
 25 27  1  0  0  0  0
 25 26  1  1  0  0  0
 29 30  1  0  0  0  0
M  CHG  5   6   1  10   1  14   1  19   1  29   1
M  END
>  <CHROM.1>
58.49036051,61.18398377,51.45272055,-178.63451127,67.25146029,40.86833914
-67.89606808,91.36717391,178.69369477,-178.61376244,-72.17480567,-169.33306121
-161.13476635,2.72983882,5.71518599,-0.57794374,-2.54719994,-0.19481138,-0.33359616

>  <Name>
1byj cryst

>  <RI>
0

>  <Rbt.Current_Directory>
/home/itssahil/PROJECTS/Mol_Feturizer/New_Systems/rnas/1byj

>  <Rbt.Executable>
rbdock ($Id: //depot/dev/client3/rdock/2013.1/src/exe/rbdock.cxx#4 $)

>  <Rbt.Library>
libRbt.so (2013.1, Build901 2013/11/27)

>  <Rbt.Parameter_File>
/export/apps/rDock/src/rDock_2013.1_src/data/scripts/dock_solv.prm

>  <Rbt.Receptor>
prm/pocket_docking_6.prm

>  <SCORE>
-26.2743

>  <SCORE.INTER>
-19.3233

>  <SCORE.INTER.CONST>
1

>  <SCORE.INTER.POLAR>
-3.88776

>  <SCORE.INTER.ROT>
6

>  <SCORE.INTER.SOLV>
15.9486

>  <SCORE.INTER.VDW>
-12.8392

>  <SCORE.INTER.norm>
-0.623331

>  <SCORE.INTRA>
-6.95105

>  <SCORE.INTRA.DIHEDRAL>
-10.1004

>  <SCORE.INTRA.DIHEDRAL.0>
18.4149

>  <SCORE.INTRA.POLAR>
0

>  <SCORE.INTRA.POLAR.0>
0

>  <SCORE.INTRA.REPUL>
-0.0891806

>  <SCORE.INTRA.REPUL.0>
0.092687

>  <SCORE.INTRA.SOLV>
1.12273

>  <SCORE.INTRA.SOLV.lig_0>
-120.37

>  <SCORE.INTRA.VDW>
-2.01631

>  <SCORE.INTRA.VDW.0>
-1.75542

>  <SCORE.INTRA.norm>
-0.224227

>  <SCORE.RESTR>
0

>  <SCORE.RESTR.CAVITY>
0

>  <SCORE.RESTR.norm>
0

>  <SCORE.SYSTEM>
0

>  <SCORE.SYSTEM.CONST>
0

>  <SCORE.SYSTEM.DIHEDRAL>
0

>  <SCORE.SYSTEM.SOLV>
0

>  <SCORE.SYSTEM.norm>
0

>  <SCORE.heavy>
31

>  <SCORE.norm>
-0.847559

>  <RMSD>
6.684

$$$$
1byj cryst
 OpenBabel11021811383D
libRbt.so/2013.1/901 2013/11/27
 31 33  0  0  0  0  0  0  0  0999 V2000
    1.9819    4.9852   -0.4886 C   0  0  1  0  0  0  0  0  0  0  0  0
    2.7582    3.8092   -0.0931 O   0  0  0  0  0  0  0  0  0  0  0  0
    2.3089    2.4932   -0.5346 C   0  0  2  0  0  0  0  0  0  0  0  0
    2.4564    2.3387   -1.9807 O   0  0  0  0  0  0  0  0  0  0  0  0
    0.8275    2.2812   -0.0976 C   0  0  2  0  0  0  0  0  0  0  0  0
    0.2828    0.9704   -0.5025 N   0  3  0  0  0  0  0  0  0  0  0  0
   -0.0590    3.4281   -0.6480 C   0  0  0  0  0  0  0  0  0  0  0  0
    0.4676    4.7983   -0.1955 C   0  0  0  0  0  0  0  0  0  0  0  0
    2.4979    6.2182    0.2740 C   0  0  0  0  0  0  0  0  0  0  0  0
    2.4460    6.0773    1.7351 N   0  3  0  0  0  0  0  0  0  0  0  0
    4.7297    1.3969   -1.8557 C   0  0  1  0  0  0  0  0  0  0  0  0
    6.1900    1.5174   -2.3552 C   0  0  0  0  0  0  0  0  0  0  0  0
    6.7420    2.9424   -2.0823 C   0  0  1  0  0  0  0  0  0  0  0  0
    8.1574    3.0197   -2.4917 N   0  3  0  0  0  0  0  0  0  0  0  0
    5.8685    4.0066   -2.8076 C   0  0  1  0  0  0  0  0  0  0  0  0
    4.3724    3.8724   -2.4285 C   0  0  1  0  0  0  0  0  0  0  0  0
    3.6591    4.7678   -3.2684 O   0  0  0  0  0  0  0  0  0  0  0  0
    3.7924    2.4262   -2.5684 C   0  0  2  0  0  0  0  0  0  0  0  0
    4.2499    0.0140   -2.0249 N   0  3  0  0  0  0  0  0  0  0  0  0
    6.0788    7.2737   -4.7994 C   0  0  0  0  0  0  0  0  0  0  0  0
    6.6414    8.6210   -4.2839 C   0  0  2  0  0  0  0  0  0  0  0  0
    7.7762    8.9347   -5.0902 O   0  0  0  0  0  0  0  0  0  0  0  0
    7.0512    8.4733   -2.7701 C   0  0  1  0  0  0  0  0  0  0  0  0
    7.9247    7.2021   -2.4963 C   0  0  2  0  0  0  0  0  0  0  0  0
    7.3884    5.9236   -3.1890 C   0  0  1  0  0  0  0  0  0  0  0  0
    6.2863    5.3515   -2.4368 O   0  0  0  0  0  0  0  0  0  0  0  0
    7.0218    6.1925   -4.5718 O   0  0  0  0  0  0  0  0  0  0  0  0
    8.0535    6.9490   -1.0997 O   0  0  0  0  0  0  0  0  0  0  0  0
    7.7610    9.7094   -2.3153 N   0  3  0  0  0  0  0  0  0  0  0  0
    7.8044    9.9609   -0.8604 C   0  0  0  0  0  0  0  0  0  0  0  0
    5.5837    9.7252   -4.5286 C   0  0  0  0  0  0  0  0  0  0  0  0
  1  8  1  0  0  0  0
  1  9  1  1  0  0  0
  1  2  1  0  0  0  0
  2  3  1  0  0  0  0
  3  5  1  0  0  0  0
  3  4  1  6  0  0  0
  5  7  1  0  0  0  0
  5  6  1  6  0  0  0
  7  8  1  0  0  0  0
  9 10  1  0  0  0  0
 11 12  1  0  0  0  0
 11 18  1  0  0  0  0
 11 19  1  6  0  0  0
 12 13  1  0  0  0  0
 13 15  1  0  0  0  0
 13 14  1  6  0  0  0
 15 16  1  0  0  0  0
 15 26  1  1  0  0  0
 16 18  1  0  0  0  0
 16 17  1  6  0  0  0
 18  4  1  1  0  0  0
 20 21  1  0  0  0  0
 20 27  1  0  0  0  0
 21 31  1  6  0  0  0
 21 23  1  0  0  0  0
 21 22  1  0  0  0  0
 23 24  1  0  0  0  0
 23 29  1  6  0  0  0
 24 25  1  0  0  0  0
 24 28  1  1  0  0  0
 25 27  1  0  0  0  0
 25 26  1  1  0  0  0
 29 30  1  0  0  0  0
M  CHG  5   6   1  10   1  14   1  19   1  29   1
M  END
>  <CHROM.1>
-57.67200442,61.45660061,54.74226293,-179.49938288,56.32215820,61.08132574
-50.05718538,84.96542707,-178.10418948,60.17675835,-79.56015107,-82.96103777
-167.47394163,4.82617067,5.02727470,-2.02014627,2.41498951,-0.51354514,-3.04306631

>  <Name>
1byj cryst

>  <RI>
0

>  <Rbt.Current_Directory>
/home/itssahil/PROJECTS/Mol_Feturizer/New_Systems/rnas/1byj

>  <Rbt.Executable>
rbdock ($Id: //depot/dev/client3/rdock/2013.1/src/exe/rbdock.cxx#4 $)

>  <Rbt.Library>
libRbt.so (2013.1, Build901 2013/11/27)

>  <Rbt.Parameter_File>
/export/apps/rDock/src/rDock_2013.1_src/data/scripts/dock_solv.prm

>  <Rbt.Receptor>
prm/pocket_docking_5.prm

>  <SCORE>
-34.7705

>  <SCORE.INTER>
-27.4715

>  <SCORE.INTER.CONST>
1

>  <SCORE.INTER.POLAR>
-4.56487

>  <SCORE.INTER.ROT>
6

>  <SCORE.INTER.SOLV>
13.7611

>  <SCORE.INTER.VDW>
-15.2851

>  <SCORE.INTER.norm>
-0.886178

>  <SCORE.INTRA>
-7.29898

>  <SCORE.INTRA.DIHEDRAL>
-10.9644

>  <SCORE.INTRA.DIHEDRAL.0>
18.4149

>  <SCORE.INTRA.POLAR>
0

>  <SCORE.INTRA.POLAR.0>
0

>  <SCORE.INTRA.REPUL>
-0.092687

>  <SCORE.INTRA.REPUL.0>
0.092687

>  <SCORE.INTRA.SOLV>
-0.587886

>  <SCORE.INTRA.SOLV.lig_0>
-120.37

>  <SCORE.INTRA.VDW>
-1.05938

>  <SCORE.INTRA.VDW.0>
-1.75542

>  <SCORE.INTRA.norm>
-0.235451

>  <SCORE.RESTR>
0

>  <SCORE.RESTR.CAVITY>
0

>  <SCORE.RESTR.norm>
0

>  <SCORE.SYSTEM>
0

>  <SCORE.SYSTEM.CONST>
0

>  <SCORE.SYSTEM.DIHEDRAL>
0

>  <SCORE.SYSTEM.SOLV>
0

>  <SCORE.SYSTEM.norm>
0

>  <SCORE.heavy>
31

>  <SCORE.norm>
-1.12163

>  <RMSD>
6.794

$$$$
1byj cryst
 OpenBabel11021811383D
libRbt.so/2013.1/901 2013/11/27
 31 33  0  0  0  0  0  0  0  0999 V2000
    2.1431    3.9478   -1.6019 C   0  0  1  0  0  0  0  0  0  0  0  0
    1.5416    5.0814   -2.3056 O   0  0  0  0  0  0  0  0  0  0  0  0
    0.3073    5.6557   -1.7809 C   0  0  2  0  0  0  0  0  0  0  0  0
    0.5348    6.3270   -0.5025 O   0  0  0  0  0  0  0  0  0  0  0  0
   -0.7645    4.5323   -1.6399 C   0  0  2  0  0  0  0  0  0  0  0  0
   -2.0540    5.0207   -1.1131 N   0  3  0  0  0  0  0  0  0  0  0  0
   -0.2182    3.3842   -0.7525 C   0  0  0  0  0  0  0  0  0  0  0  0
    1.1006    2.8323   -1.3143 C   0  0  0  0  0  0  0  0  0  0  0  0
    3.2864    3.3668   -2.4524 C   0  0  0  0  0  0  0  0  0  0  0  0
    4.0089    2.2652   -1.8029 N   0  3  0  0  0  0  0  0  0  0  0  0
    0.0652    8.6814   -1.0565 C   0  0  1  0  0  0  0  0  0  0  0  0
    0.6603   10.1045   -1.1877 C   0  0  0  0  0  0  0  0  0  0  0  0
    1.8775   10.0980   -2.1512 C   0  0  1  0  0  0  0  0  0  0  0  0
    2.3858   11.4718   -2.3276 N   0  3  0  0  0  0  0  0  0  0  0  0
    2.9789    9.1347   -1.6215 C   0  0  1  0  0  0  0  0  0  0  0  0
    2.4202    7.7119   -1.3692 C   0  0  1  0  0  0  0  0  0  0  0  0
    3.4555    6.9763   -0.7342 O   0  0  0  0  0  0  0  0  0  0  0  0
    1.1190    7.6674   -0.5020 C   0  0  2  0  0  0  0  0  0  0  0  0
   -1.1495    8.7161   -0.2232 N   0  3  0  0  0  0  0  0  0  0  0  0
    6.0411    6.7082   -2.2728 C   0  0  0  0  0  0  0  0  0  0  0  0
    7.1576    6.9818   -3.3102 C   0  0  2  0  0  0  0  0  0  0  0  0
    8.3735    7.1436   -2.5810 O   0  0  0  0  0  0  0  0  0  0  0  0
    6.8111    8.2868   -4.1216 C   0  0  1  0  0  0  0  0  0  0  0  0
    6.4048    9.4872   -3.2008 C   0  0  2  0  0  0  0  0  0  0  0  0
    5.4121    9.0951   -2.0771 C   0  0  1  0  0  0  0  0  0  0  0  0
    4.0574    9.0067   -2.5915 O   0  0  0  0  0  0  0  0  0  0  0  0
    5.8260    7.8640   -1.4197 O   0  0  0  0  0  0  0  0  0  0  0  0
    5.8445   10.5577   -3.9566 O   0  0  0  0  0  0  0  0  0  0  0  0
    7.9658    8.6600   -4.9967 N   0  3  0  0  0  0  0  0  0  0  0  0
    7.7498    9.7588   -5.9598 C   0  0  0  0  0  0  0  0  0  0  0  0
    7.3206    5.7281   -4.2044 C   0  0  0  0  0  0  0  0  0  0  0  0
  1  8  1  0  0  0  0
  1  9  1  6  0  0  0
  1  2  1  0  0  0  0
  2  3  1  0  0  0  0
  3  5  1  0  0  0  0
  3  4  1  1  0  0  0
  5  7  1  0  0  0  0
  5  6  1  1  0  0  0
  7  8  1  0  0  0  0
  9 10  1  0  0  0  0
 11 12  1  0  0  0  0
 11 18  1  0  0  0  0
 11 19  1  1  0  0  0
 12 13  1  0  0  0  0
 13 15  1  0  0  0  0
 13 14  1  1  0  0  0
 15 16  1  0  0  0  0
 15 26  1  6  0  0  0
 16 18  1  0  0  0  0
 16 17  1  1  0  0  0
 18  4  1  6  0  0  0
 20 21  1  0  0  0  0
 20 27  1  0  0  0  0
 21 31  1  6  0  0  0
 21 23  1  0  0  0  0
 21 22  1  0  0  0  0
 23 24  1  0  0  0  0
 23 29  1  1  0  0  0
 24 25  1  0  0  0  0
 24 28  1  6  0  0  0
 25 27  1  0  0  0  0
 25 26  1  6  0  0  0
 29 30  1  0  0  0  0
M  CHG  5   6   1  10   1  14   1  19   1  29   1
M  END
>  <CHROM.1>
176.85200505,79.19549548,70.64434666,51.55989691,-170.23529062,-159.13715136
65.26642668,134.41796771,61.51731975,-63.75372408,-66.68915622,63.69688616
-158.20797607,3.32834432,7.18041066,-2.16260503,-2.72116456,0.35242440,-0.04630015

>  <Name>
1byj cryst

>  <RI>
0

>  <Rbt.Current_Directory>
/home/itssahil/PROJECTS/Mol_Feturizer/New_Systems/rnas/1byj

>  <Rbt.Executable>
rbdock ($Id: //depot/dev/client3/rdock/2013.1/src/exe/rbdock.cxx#4 $)

>  <Rbt.Library>
libRbt.so (2013.1, Build901 2013/11/27)

>  <Rbt.Parameter_File>
/export/apps/rDock/src/rDock_2013.1_src/data/scripts/dock_solv.prm

>  <Rbt.Receptor>
prm/pocket_docking_8.prm

>  <SCORE>
-38.6869

>  <SCORE.INTER>
-33.5922

>  <SCORE.INTER.CONST>
1

>  <SCORE.INTER.POLAR>
-5.44361

>  <SCORE.INTER.ROT>
6

>  <SCORE.INTER.SOLV>
23.7518

>  <SCORE.INTER.VDW>
-19.7667

>  <SCORE.INTER.norm>
-1.08362

>  <SCORE.INTRA>
-5.09471

>  <SCORE.INTRA.DIHEDRAL>
-5.78289

>  <SCORE.INTRA.DIHEDRAL.0>
18.4149

>  <SCORE.INTRA.POLAR>
-0.0131167

>  <SCORE.INTRA.POLAR.0>
0

>  <SCORE.INTRA.REPUL>
-0.092687

>  <SCORE.INTRA.REPUL.0>
0.092687

>  <SCORE.INTRA.SOLV>
-0.875901

>  <SCORE.INTRA.SOLV.lig_0>
-120.37

>  <SCORE.INTRA.VDW>
-1.25728

>  <SCORE.INTRA.VDW.0>
-1.75542

>  <SCORE.INTRA.norm>
-0.164345

>  <SCORE.RESTR>
0

>  <SCORE.RESTR.CAVITY>
0

>  <SCORE.RESTR.norm>
0

>  <SCORE.SYSTEM>
0

>  <SCORE.SYSTEM.CONST>
0

>  <SCORE.SYSTEM.DIHEDRAL>
0

>  <SCORE.SYSTEM.SOLV>
0

>  <SCORE.SYSTEM.norm>
0

>  <SCORE.heavy>
31

>  <SCORE.norm>
-1.24796

>  <RMSD>
6.846

$$$$
1byj cryst
 OpenBabel11021811383D
libRbt.so/2013.1/901 2013/11/27
 31 33  0  0  0  0  0  0  0  0999 V2000
    4.2669    7.3892   -3.1815 C   0  0  1  0  0  0  0  0  0  0  0  0
    5.2049    7.0413   -4.2497 O   0  0  0  0  0  0  0  0  0  0  0  0
    6.4291    7.8228   -4.3882 C   0  0  2  0  0  0  0  0  0  0  0  0
    7.3338    7.5974   -3.2624 O   0  0  0  0  0  0  0  0  0  0  0  0
    6.0642    9.3329   -4.5190 C   0  0  2  0  0  0  0  0  0  0  0  0
    7.2450   10.2068   -4.6641 N   0  3  0  0  0  0  0  0  0  0  0  0
    5.2069    9.7800   -3.3069 C   0  0  0  0  0  0  0  0  0  0  0  0
    3.9484    8.9099   -3.1703 C   0  0  0  0  0  0  0  0  0  0  0  0
    2.9604    6.5985   -3.3710 C   0  0  0  0  0  0  0  0  0  0  0  0
    1.9810    6.8036   -2.2959 N   0  3  0  0  0  0  0  0  0  0  0  0
    8.8291    5.9733   -4.3565 C   0  0  1  0  0  0  0  0  0  0  0  0
    9.4192    4.5432   -4.3006 C   0  0  0  0  0  0  0  0  0  0  0  0
    8.2822    3.4881   -4.2398 C   0  0  1  0  0  0  0  0  0  0  0  0
    8.8561    2.1291   -4.2656 N   0  3  0  0  0  0  0  0  0  0  0  0
    7.3975    3.7211   -2.9809 C   0  0  1  0  0  0  0  0  0  0  0  0
    6.8578    5.1722   -2.9227 C   0  0  1  0  0  0  0  0  0  0  0  0
    6.2169    5.3164   -1.6640 O   0  0  0  0  0  0  0  0  0  0  0  0
    7.9476    6.2801   -3.1015 C   0  0  2  0  0  0  0  0  0  0  0  0
    9.9109    6.9608   -4.5178 N   0  3  0  0  0  0  0  0  0  0  0  0
    6.3103    2.3609    0.0206 C   0  0  0  0  0  0  0  0  0  0  0  0
    5.0050    1.5940    0.3458 C   0  0  2  0  0  0  0  0  0  0  0  0
    5.3877    0.3330    0.8931 O   0  0  0  0  0  0  0  0  0  0  0  0
    4.1666    1.4026   -0.9740 C   0  0  1  0  0  0  0  0  0  0  0  0
    5.0219    0.8507   -2.1648 C   0  0  2  0  0  0  0  0  0  0  0  0
    6.3926    1.5571   -2.3200 C   0  0  1  0  0  0  0  0  0  0  0  0
    6.2429    2.8338   -2.9946 O   0  0  0  0  0  0  0  0  0  0  0  0
    7.0579    1.6965   -1.0328 O   0  0  0  0  0  0  0  0  0  0  0  0
    4.3157    0.9405   -3.3994 O   0  0  0  0  0  0  0  0  0  0  0  0
    2.9971    0.5090   -0.7053 N   0  3  0  0  0  0  0  0  0  0  0  0
    2.0421    0.3029   -1.8132 C   0  0  0  0  0  0  0  0  0  0  0  0
    4.2415    2.3631    1.4519 C   0  0  0  0  0  0  0  0  0  0  0  0
  1  8  1  0  0  0  0
  1  9  1  6  0  0  0
  1  2  1  0  0  0  0
  2  3  1  0  0  0  0
  3  5  1  0  0  0  0
  3  4  1  1  0  0  0
  5  7  1  0  0  0  0
  5  6  1  1  0  0  0
  7  8  1  0  0  0  0
  9 10  1  0  0  0  0
 11 12  1  0  0  0  0
 11 18  1  0  0  0  0
 11 19  1  1  0  0  0
 12 13  1  0  0  0  0
 13 15  1  0  0  0  0
 13 14  1  1  0  0  0
 15 16  1  0  0  0  0
 15 26  1  6  0  0  0
 16 18  1  0  0  0  0
 16 17  1  1  0  0  0
 18  4  1  6  0  0  0
 20 21  1  0  0  0  0
 20 27  1  0  0  0  0
 21 31  1  1  0  0  0
 21 23  1  0  0  0  0
 21 22  1  0  0  0  0
 23 24  1  0  0  0  0
 23 29  1  1  0  0  0
 24 25  1  0  0  0  0
 24 28  1  6  0  0  0
 25 27  1  0  0  0  0
 25 26  1  1  0  0  0
 29 30  1  0  0  0  0
M  CHG  5   6   1  10   1  14   1  19   1  29   1
M  END
>  <CHROM.1>
175.96608938,67.14814091,61.42004439,70.84572201,-54.35079716,78.64326517
-88.24696432,91.87383378,67.15956782,-70.09480528,-63.42194102,-144.41219738
168.50142982,5.91610516,4.55511111,-2.62000537,1.31632788,0.34801835,-0.32213510

>  <Name>
1byj cryst

>  <RI>
0

>  <Rbt.Current_Directory>
/home/itssahil/PROJECTS/Mol_Feturizer/New_Systems/rnas/1byj

>  <Rbt.Executable>
rbdock ($Id: //depot/dev/client3/rdock/2013.1/src/exe/rbdock.cxx#4 $)

>  <Rbt.Library>
libRbt.so (2013.1, Build901 2013/11/27)

>  <Rbt.Parameter_File>
/export/apps/rDock/src/rDock_2013.1_src/data/scripts/dock_solv.prm

>  <Rbt.Receptor>
prm/pocket_docking_7.prm

>  <SCORE>
-42.5584

>  <SCORE.INTER>
-38.6755

>  <SCORE.INTER.CONST>
1

>  <SCORE.INTER.POLAR>
-5.60926

>  <SCORE.INTER.ROT>
6

>  <SCORE.INTER.SOLV>
25.6474

>  <SCORE.INTER.VDW>
-23.2353

>  <SCORE.INTER.norm>
-1.2476

>  <SCORE.INTRA>
-3.8829

>  <SCORE.INTRA.DIHEDRAL>
-5.14642

>  <SCORE.INTRA.DIHEDRAL.0>
18.4149

>  <SCORE.INTRA.POLAR>
-0.00459289

>  <SCORE.INTRA.POLAR.0>
0

>  <SCORE.INTRA.REPUL>
-0.0924566

>  <SCORE.INTRA.REPUL.0>
0.092687

>  <SCORE.INTRA.SOLV>
-1.68705

>  <SCORE.INTRA.SOLV.lig_0>
-120.37

>  <SCORE.INTRA.VDW>
0.0117385

>  <SCORE.INTRA.VDW.0>
-1.75542

>  <SCORE.INTRA.norm>
-0.125255

>  <SCORE.RESTR>
0

>  <SCORE.RESTR.CAVITY>
0

>  <SCORE.RESTR.norm>
0

>  <SCORE.SYSTEM>
0

>  <SCORE.SYSTEM.CONST>
0

>  <SCORE.SYSTEM.DIHEDRAL>
0

>  <SCORE.SYSTEM.SOLV>
0

>  <SCORE.SYSTEM.norm>
0

>  <SCORE.heavy>
31

>  <SCORE.norm>
-1.37285

>  <RMSD>
6.913

$$$$
1byj cryst
 OpenBabel11021811383D
libRbt.so/2013.1/901 2013/11/27
 31 33  0  0  0  0  0  0  0  0999 V2000
    9.9134    9.9589   -0.9517 C   0  0  1  0  0  0  0  0  0  0  0  0
    9.0173    8.9713   -0.3487 O   0  0  0  0  0  0  0  0  0  0  0  0
    7.7065    8.7553   -0.9520 C   0  0  2  0  0  0  0  0  0  0  0  0
    7.8234    8.1260   -2.2661 O   0  0  0  0  0  0  0  0  0  0  0  0
    6.9533   10.1168   -1.0487 C   0  0  2  0  0  0  0  0  0  0  0  0
    5.6103    9.9978   -1.6498 N   0  3  0  0  0  0  0  0  0  0  0  0
    7.8084   11.1433   -1.8355 C   0  0  0  0  0  0  0  0  0  0  0  0
    9.1937   11.3142   -1.1942 C   0  0  0  0  0  0  0  0  0  0  0  0
   11.1219   10.1846   -0.0261 C   0  0  0  0  0  0  0  0  0  0  0  0
   10.7565   10.5066    1.3596 N   0  3  0  0  0  0  0  0  0  0  0  0
    8.6953    6.4445   -3.8419 C   0  0  1  0  0  0  0  0  0  0  0  0
    9.1400    4.9724   -4.0201 C   0  0  0  0  0  0  0  0  0  0  0  0
    8.0075    4.0056   -3.5813 C   0  0  1  0  0  0  0  0  0  0  0  0
    8.4150    2.6094   -3.8292 N   0  3  0  0  0  0  0  0  0  0  0  0
    7.6409    4.2473   -2.0884 C   0  0  1  0  0  0  0  0  0  0  0  0
    7.2847    5.7311   -1.8207 C   0  0  1  0  0  0  0  0  0  0  0  0
    7.1378    5.8658   -0.4149 O   0  0  0  0  0  0  0  0  0  0  0  0
    8.3367    6.7596   -2.3525 C   0  0  2  0  0  0  0  0  0  0  0  0
    9.7353    7.3528   -4.3565 N   0  3  0  0  0  0  0  0  0  0  0  0
    5.2730    2.2411    0.8181 C   0  0  0  0  0  0  0  0  0  0  0  0
    4.3499    1.0992    0.3266 C   0  0  2  0  0  0  0  0  0  0  0  0
    4.8536   -0.1135    0.8849 O   0  0  0  0  0  0  0  0  0  0  0  0
    4.3745    1.0459   -1.2476 C   0  0  1  0  0  0  0  0  0  0  0  0
    5.8262    1.0716   -1.8357 C   0  0  2  0  0  0  0  0  0  0  0  0
    6.7428    2.1301   -1.1715 C   0  0  1  0  0  0  0  0  0  0  0  0
    6.4808    3.4524   -1.7105 O   0  0  0  0  0  0  0  0  0  0  0  0
    6.6138    2.0980    0.2781 O   0  0  0  0  0  0  0  0  0  0  0  0
    5.8144    1.2919   -3.2437 O   0  0  0  0  0  0  0  0  0  0  0  0
    3.6331   -0.1629   -1.7244 N   0  3  0  0  0  0  0  0  0  0  0  0
    3.0283   -0.0913   -3.0701 C   0  0  0  0  0  0  0  0  0  0  0  0
    2.9333    1.3215    0.9113 C   0  0  0  0  0  0  0  0  0  0  0  0
  1  8  1  0  0  0  0
  1  9  1  1  0  0  0
  1  2  1  0  0  0  0
  2  3  1  0  0  0  0
  3  5  1  0  0  0  0
  3  4  1  6  0  0  0
  5  7  1  0  0  0  0
  5  6  1  6  0  0  0
  7  8  1  0  0  0  0
  9 10  1  0  0  0  0
 11 12  1  0  0  0  0
 11 18  1  0  0  0  0
 11 19  1  1  0  0  0
 12 13  1  0  0  0  0
 13 15  1  0  0  0  0
 13 14  1  1  0  0  0
 15 16  1  0  0  0  0
 15 26  1  6  0  0  0
 16 18  1  0  0  0  0
 16 17  1  1  0  0  0
 18  4  1  6  0  0  0
 20 21  1  0  0  0  0
 20 27  1  0  0  0  0
 21 31  1  1  0  0  0
 21 23  1  0  0  0  0
 21 22  1  0  0  0  0
 23 24  1  0  0  0  0
 23 29  1  1  0  0  0
 24 25  1  0  0  0  0
 24 28  1  6  0  0  0
 25 27  1  0  0  0  0
 25 26  1  6  0  0  0
 29 30  1  0  0  0  0
M  CHG  5   6   1  10   1  14   1  19   1  29   1
M  END
>  <CHROM.1>
-52.32762921,66.24272875,-166.23562097,63.79435059,-179.49588528,-178.80342715
173.06686785,90.95270888,-162.98788906,-85.40253002,-85.65946473,41.32845954
-133.32115092,7.09755558,5.22180345,-1.47852613,0.78391554,0.92129711,0.67092601

>  <Name>
1byj cryst

>  <RI>
0

>  <Rbt.Current_Directory>
/home/itssahil/PROJECTS/Mol_Feturizer/New_Systems/rnas/1byj

>  <Rbt.Executable>
rbdock ($Id: //depot/dev/client3/rdock/2013.1/src/exe/rbdock.cxx#4 $)

>  <Rbt.Library>
libRbt.so (2013.1, Build901 2013/11/27)

>  <Rbt.Parameter_File>
/export/apps/rDock/src/rDock_2013.1_src/data/scripts/dock_solv.prm

>  <Rbt.Receptor>
prm/pocket_docking_8.prm

>  <SCORE>
-46.3774

>  <SCORE.INTER>
-41.016

>  <SCORE.INTER.CONST>
1

>  <SCORE.INTER.POLAR>
-6.81218

>  <SCORE.INTER.ROT>
6

>  <SCORE.INTER.SOLV>
24.0713

>  <SCORE.INTER.VDW>
-20.2605

>  <SCORE.INTER.norm>
-1.3231

>  <SCORE.INTRA>
-5.37554

>  <SCORE.INTRA.DIHEDRAL>
0.330191

>  <SCORE.INTRA.DIHEDRAL.0>
18.4149

>  <SCORE.INTRA.POLAR>
-0.97212

>  <SCORE.INTRA.POLAR.0>
0

>  <SCORE.INTRA.REPUL>
-0.092687

>  <SCORE.INTRA.REPUL.0>
0.092687

>  <SCORE.INTRA.SOLV>
-0.31939

>  <SCORE.INTRA.SOLV.lig_0>
-120.37

>  <SCORE.INTRA.VDW>
-1.6123

>  <SCORE.INTRA.VDW.0>
-1.75542

>  <SCORE.INTRA.norm>
-0.173405

>  <SCORE.RESTR>
0.0141199

>  <SCORE.RESTR.CAVITY>
0.0141199

>  <SCORE.RESTR.norm>
0.000455479

>  <SCORE.SYSTEM>
0

>  <SCORE.SYSTEM.CONST>
0

>  <SCORE.SYSTEM.DIHEDRAL>
0

>  <SCORE.SYSTEM.SOLV>
0

>  <SCORE.SYSTEM.norm>
0

>  <SCORE.heavy>
31

>  <SCORE.norm>
-1.49605

>  <RMSD>
6.957

$$$$
1byj cryst
 OpenBabel11021811383D
libRbt.so/2013.1/901 2013/11/27
 31 33  0  0  0  0  0  0  0  0999 V2000
    1.8810    5.8106   -1.9970 C   0  0  1  0  0  0  0  0  0  0  0  0
    2.1629    6.5944   -3.2004 O   0  0  0  0  0  0  0  0  0  0  0  0
    1.9430    8.0362   -3.1639 C   0  0  2  0  0  0  0  0  0  0  0  0
    2.9008    8.6978   -2.2797 O   0  0  0  0  0  0  0  0  0  0  0  0
    0.4776    8.3227   -2.7158 C   0  0  2  0  0  0  0  0  0  0  0  0
    0.1601    9.7628   -2.6488 N   0  3  0  0  0  0  0  0  0  0  0  0
    0.1961    7.6433   -1.3508 C   0  0  0  0  0  0  0  0  0  0  0  0
    0.4764    6.1345   -1.4173 C   0  0  0  0  0  0  0  0  0  0  0  0
    1.9573    4.3111   -2.3343 C   0  0  0  0  0  0  0  0  0  0  0  0
    1.1139    3.4664   -1.4786 N   0  3  0  0  0  0  0  0  0  0  0  0
    4.6428    8.6980   -4.0221 C   0  0  1  0  0  0  0  0  0  0  0  0
    6.1230    8.3816   -4.3465 C   0  0  0  0  0  0  0  0  0  0  0  0
    6.4565    6.9098   -3.9828 C   0  0  1  0  0  0  0  0  0  0  0  0
    7.8464    6.5996   -4.3688 N   0  3  0  0  0  0  0  0  0  0  0  0
    6.2046    6.6587   -2.4679 C   0  0  1  0  0  0  0  0  0  0  0  0
    4.7651    7.0555   -2.0547 C   0  0  1  0  0  0  0  0  0  0  0  0
    4.7048    6.9476   -0.6402 O   0  0  0  0  0  0  0  0  0  0  0  0
    4.3305    8.4896   -2.5038 C   0  0  2  0  0  0  0  0  0  0  0  0
    4.3086   10.0631   -4.4653 N   0  3  0  0  0  0  0  0  0  0  0  0
    4.8391    4.1448    0.2523 C   0  0  0  0  0  0  0  0  0  0  0  0
    5.3704    2.7041    0.4520 C   0  0  2  0  0  0  0  0  0  0  0  0
    5.9591    2.6533    1.7508 O   0  0  0  0  0  0  0  0  0  0  0  0
    6.4363    2.3793   -0.6613 C   0  0  1  0  0  0  0  0  0  0  0  0
    7.5144    3.5047   -0.8198 C   0  0  2  0  0  0  0  0  0  0  0  0
    6.9163    4.9343   -0.8400 C   0  0  1  0  0  0  0  0  0  0  0  0
    6.3696    5.2477   -2.1479 O   0  0  0  0  0  0  0  0  0  0  0  0
    5.9298    5.1035    0.2169 O   0  0  0  0  0  0  0  0  0  0  0  0
    8.2956    3.3163   -1.9968 O   0  0  0  0  0  0  0  0  0  0  0  0
    7.0859    1.0632   -0.3711 N   0  3  0  0  0  0  0  0  0  0  0  0
    8.4465    0.8541   -0.9069 C   0  0  0  0  0  0  0  0  0  0  0  0
    4.1675    1.7288    0.4535 C   0  0  0  0  0  0  0  0  0  0  0  0
  1  8  1  0  0  0  0
  1  9  1  6  0  0  0
  1  2  1  0  0  0  0
  2  3  1  0  0  0  0
  3  5  1  0  0  0  0
  3  4  1  1  0  0  0
  5  7  1  0  0  0  0
  5  6  1  1  0  0  0
  7  8  1  0  0  0  0
  9 10  1  0  0  0  0
 11 12  1  0  0  0  0
 11 18  1  0  0  0  0
 11 19  1  1  0  0  0
 12 13  1  0  0  0  0
 13 15  1  0  0  0  0
 13 14  1  1  0  0  0
 15 16  1  0  0  0  0
 15 26  1  6  0  0  0
 16 18  1  0  0  0  0
 16 17  1  1  0  0  0
 18  4  1  6  0  0  0
 20 21  1  0  0  0  0
 20 27  1  0  0  0  0
 21 31  1  6  0  0  0
 21 23  1  0  0  0  0
 21 22  1  0  0  0  0
 23 24  1  0  0  0  0
 23 29  1  1  0  0  0
 24 25  1  0  0  0  0
 24 28  1  6  0  0  0
 25 27  1  0  0  0  0
 25 26  1  6  0  0  0
 29 30  1  0  0  0  0
M  CHG  5   6   1  10   1  14   1  19   1  29   1
M  END
>  <CHROM.1>
-152.24377926,54.99247892,48.06093968,67.20840638,-162.92863050,71.60539799
-56.88780668,145.94485005,66.45880226,60.86714225,-33.19642519,-164.49981774
-159.20197370,4.52881598,5.67612228,-1.79803169,2.21993791,0.20089249,-0.55634555

>  <Name>
1byj cryst

>  <RI>
0

>  <Rbt.Current_Directory>
/home/itssahil/PROJECTS/Mol_Feturizer/New_Systems/rnas/1byj

>  <Rbt.Executable>
rbdock ($Id: //depot/dev/client3/rdock/2013.1/src/exe/rbdock.cxx#4 $)

>  <Rbt.Library>
libRbt.so (2013.1, Build901 2013/11/27)

>  <Rbt.Parameter_File>
/export/apps/rDock/src/rDock_2013.1_src/data/scripts/dock_solv.prm

>  <Rbt.Receptor>
prm/pocket_docking_2.prm

>  <SCORE>
-23.3056

>  <SCORE.INTER>
-25.3422

>  <SCORE.INTER.CONST>
1

>  <SCORE.INTER.POLAR>
-4.52886

>  <SCORE.INTER.ROT>
6

>  <SCORE.INTER.SOLV>
19.3667

>  <SCORE.INTER.VDW>
-15.8541

>  <SCORE.INTER.norm>
-0.817489

>  <SCORE.INTRA>
0.176516

>  <SCORE.INTRA.DIHEDRAL>
-4.82424

>  <SCORE.INTRA.DIHEDRAL.0>
18.4149

>  <SCORE.INTRA.POLAR>
-0.104369

>  <SCORE.INTRA.POLAR.0>
0

>  <SCORE.INTRA.REPUL>
-0.092687

>  <SCORE.INTRA.REPUL.0>
0.092687

>  <SCORE.INTRA.SOLV>
-1.46162

>  <SCORE.INTRA.SOLV.lig_0>
-120.37

>  <SCORE.INTRA.VDW>
4.13773

>  <SCORE.INTRA.VDW.0>
-1.75542

>  <SCORE.INTRA.norm>
0.00569405

>  <SCORE.RESTR>
1.86008

>  <SCORE.RESTR.CAVITY>
1.86008

>  <SCORE.RESTR.norm>
0.0600024

>  <SCORE.SYSTEM>
0

>  <SCORE.SYSTEM.CONST>
0

>  <SCORE.SYSTEM.DIHEDRAL>
0

>  <SCORE.SYSTEM.SOLV>
0

>  <SCORE.SYSTEM.norm>
0

>  <SCORE.heavy>
31

>  <SCORE.norm>
-0.751793

>  <RMSD>
7.002

$$$$
1byj cryst
 OpenBabel11021811383D
libRbt.so/2013.1/901 2013/11/27
 31 33  0  0  0  0  0  0  0  0999 V2000
    0.8771    2.2259   -1.6379 C   0  0  1  0  0  0  0  0  0  0  0  0
    1.4008    2.9293   -2.8097 O   0  0  0  0  0  0  0  0  0  0  0  0
    0.4617    3.3921   -3.8257 C   0  0  2  0  0  0  0  0  0  0  0  0
   -0.3806    4.4735   -3.3179 O   0  0  0  0  0  0  0  0  0  0  0  0
   -0.4039    2.1905   -4.3128 C   0  0  2  0  0  0  0  0  0  0  0  0
   -1.3888    2.5637   -5.3471 N   0  3  0  0  0  0  0  0  0  0  0  0
   -1.1136    1.5226   -3.1069 C   0  0  0  0  0  0  0  0  0  0  0  0
   -0.0971    1.0849   -2.0417 C   0  0  0  0  0  0  0  0  0  0  0  0
    2.0468    1.6332   -0.8327 C   0  0  0  0  0  0  0  0  0  0  0  0
    1.6475    1.0574    0.4582 N   0  3  0  0  0  0  0  0  0  0  0  0
   -1.1144    6.1093   -1.6279 C   0  0  1  0  0  0  0  0  0  0  0  0
   -0.6708    7.0241   -0.4604 C   0  0  0  0  0  0  0  0  0  0  0  0
    0.4683    7.9746   -0.9173 C   0  0  1  0  0  0  0  0  0  0  0  0
    0.8273    8.8924    0.1807 N   0  3  0  0  0  0  0  0  0  0  0  0
    1.6931    7.1503   -1.4093 C   0  0  1  0  0  0  0  0  0  0  0  0
    1.2944    6.1371   -2.5114 C   0  0  1  0  0  0  0  0  0  0  0  0
    2.4391    5.3340   -2.7574 O   0  0  0  0  0  0  0  0  0  0  0  0
    0.0697    5.2324   -2.1521 C   0  0  2  0  0  0  0  0  0  0  0  0
   -2.2633    5.2841   -1.2152 N   0  3  0  0  0  0  0  0  0  0  0  0
    2.5585   11.0608   -1.6636 C   0  0  0  0  0  0  0  0  0  0  0  0
    3.6405   11.6263   -2.6160 C   0  0  2  0  0  0  0  0  0  0  0  0
    2.9675   12.4425   -3.5737 O   0  0  0  0  0  0  0  0  0  0  0  0
    4.3921   10.4354   -3.3218 C   0  0  1  0  0  0  0  0  0  0  0  0
    3.4148    9.3723   -3.9290 C   0  0  2  0  0  0  0  0  0  0  0  0
    2.2564    8.9829   -2.9759 C   0  0  1  0  0  0  0  0  0  0  0  0
    2.7059    8.0279   -1.9790 O   0  0  0  0  0  0  0  0  0  0  0  0
    1.6597   10.1634   -2.3684 O   0  0  0  0  0  0  0  0  0  0  0  0
    4.1078    8.1893   -4.3182 O   0  0  0  0  0  0  0  0  0  0  0  0
    5.3108   10.9701   -4.3747 N   0  3  0  0  0  0  0  0  0  0  0  0
    4.6881   11.6789   -5.5112 C   0  0  0  0  0  0  0  0  0  0  0  0
    4.5809   12.5504   -1.8037 C   0  0  0  0  0  0  0  0  0  0  0  0
  1  8  1  0  0  0  0
  1  9  1  6  0  0  0
  1  2  1  0  0  0  0
  2  3  1  0  0  0  0
  3  5  1  0  0  0  0
  3  4  1  1  0  0  0
  5  7  1  0  0  0  0
  5  6  1  6  0  0  0
  7  8  1  0  0  0  0
  9 10  1  0  0  0  0
 11 12  1  0  0  0  0
 11 18  1  0  0  0  0
 11 19  1  1  0  0  0
 12 13  1  0  0  0  0
 13 15  1  0  0  0  0
 13 14  1  1  0  0  0
 15 16  1  0  0  0  0
 15 26  1  6  0  0  0
 16 18  1  0  0  0  0
 16 17  1  1  0  0  0
 18  4  1  6  0  0  0
 20 21  1  0  0  0  0
 20 27  1  0  0  0  0
 21 31  1  1  0  0  0
 21 23  1  0  0  0  0
 21 22  1  0  0  0  0
 23 24  1  0  0  0  0
 23 29  1  6  0  0  0
 24 25  1  0  0  0  0
 24 28  1  1  0  0  0
 25 27  1  0  0  0  0
 25 26  1  1  0  0  0
 29 30  1  0  0  0  0
M  CHG  5   6   1  10   1  14   1  19   1  29   1
M  END
>  <CHROM.1>
172.35195828,20.31122088,-168.21369200,38.20861244,-52.24321266,-56.04282162
-64.48712450,-50.36583039,-59.80657302,60.85920191,57.46541619,-87.76319139
-154.24952675,1.55998734,6.70757999,-2.52282934,-2.24033475,0.88332008,0.45508198

>  <Name>
1byj cryst

>  <RI>
0

>  <Rbt.Current_Directory>
/home/itssahil/PROJECTS/Mol_Feturizer/New_Systems/rnas/1byj

>  <Rbt.Executable>
rbdock ($Id: //depot/dev/client3/rdock/2013.1/src/exe/rbdock.cxx#4 $)

>  <Rbt.Library>
libRbt.so (2013.1, Build901 2013/11/27)

>  <Rbt.Parameter_File>
/export/apps/rDock/src/rDock_2013.1_src/data/scripts/dock_solv.prm

>  <Rbt.Receptor>
prm/pocket_docking_7.prm

>  <SCORE>
-27.8254

>  <SCORE.INTER>
-26.5297

>  <SCORE.INTER.CONST>
1

>  <SCORE.INTER.POLAR>
-4.20165

>  <SCORE.INTER.ROT>
6

>  <SCORE.INTER.SOLV>
24.6001

>  <SCORE.INTER.VDW>
-19.4809

>  <SCORE.INTER.norm>
-0.855795

>  <SCORE.INTRA>
-1.29578

>  <SCORE.INTRA.DIHEDRAL>
-4.17084

>  <SCORE.INTRA.DIHEDRAL.0>
18.4149

>  <SCORE.INTRA.POLAR>
-0.0198015

>  <SCORE.INTRA.POLAR.0>
0

>  <SCORE.INTRA.REPUL>
-0.0414552

>  <SCORE.INTRA.REPUL.0>
0.092687

>  <SCORE.INTRA.SOLV>
-2.62664

>  <SCORE.INTRA.SOLV.lig_0>
-120.37

>  <SCORE.INTRA.VDW>
2.37756

>  <SCORE.INTRA.VDW.0>
-1.75542

>  <SCORE.INTRA.norm>
-0.0417995

>  <SCORE.RESTR>
0

>  <SCORE.RESTR.CAVITY>
0

>  <SCORE.RESTR.norm>
0

>  <SCORE.SYSTEM>
0

>  <SCORE.SYSTEM.CONST>
0

>  <SCORE.SYSTEM.DIHEDRAL>
0

>  <SCORE.SYSTEM.SOLV>
0

>  <SCORE.SYSTEM.norm>
0

>  <SCORE.heavy>
31

>  <SCORE.norm>
-0.897595

>  <RMSD>
7.003

$$$$
1byj cryst
 OpenBabel11021811383D
libRbt.so/2013.1/901 2013/11/27
 31 33  0  0  0  0  0  0  0  0999 V2000
    7.8137    8.3108    0.0530 C   0  0  1  0  0  0  0  0  0  0  0  0
    6.8132    7.3818   -0.4744 O   0  0  0  0  0  0  0  0  0  0  0  0
    6.3020    7.5961   -1.8240 C   0  0  2  0  0  0  0  0  0  0  0  0
    7.3349    7.3508   -2.8288 O   0  0  0  0  0  0  0  0  0  0  0  0
    5.7432    9.0470   -1.9389 C   0  0  2  0  0  0  0  0  0  0  0  0
    5.2013    9.3580   -3.2763 N   0  3  0  0  0  0  0  0  0  0  0  0
    6.8391   10.0718   -1.5482 C   0  0  0  0  0  0  0  0  0  0  0  0
    7.3803    9.7904   -0.1384 C   0  0  0  0  0  0  0  0  0  0  0  0
    8.0276    8.0345    1.5517 C   0  0  0  0  0  0  0  0  0  0  0  0
    8.5459    6.6908    1.8397 N   0  3  0  0  0  0  0  0  0  0  0  0
    8.8482    5.9258   -4.1516 C   0  0  1  0  0  0  0  0  0  0  0  0
    9.5271    4.5386   -4.2572 C   0  0  0  0  0  0  0  0  0  0  0  0
    8.4636    3.4085   -4.2164 C   0  0  1  0  0  0  0  0  0  0  0  0
    9.1165    2.0976   -4.3961 N   0  3  0  0  0  0  0  0  0  0  0  0
    7.6548    3.4774   -2.8888 C   0  0  1  0  0  0  0  0  0  0  0  0
    7.0325    4.8794   -2.6711 C   0  0  1  0  0  0  0  0  0  0  0  0
    6.4718    4.8763   -1.3667 O   0  0  0  0  0  0  0  0  0  0  0  0
    8.0377    6.0686   -2.8217 C   0  0  2  0  0  0  0  0  0  0  0  0
    9.8540    6.9932   -4.2947 N   0  3  0  0  0  0  0  0  0  0  0  0
    8.7958    1.8657   -0.9350 C   0  0  0  0  0  0  0  0  0  0  0  0
    8.0924    1.6434    0.4264 C   0  0  2  0  0  0  0  0  0  0  0  0
    8.3665    0.3004    0.8228 O   0  0  0  0  0  0  0  0  0  0  0  0
    6.5432    1.8753    0.2602 C   0  0  1  0  0  0  0  0  0  0  0  0
    5.9413    1.1130   -0.9688 C   0  0  2  0  0  0  0  0  0  0  0  0
    6.7956    1.2435   -2.2553 C   0  0  1  0  0  0  0  0  0  0  0  0
    6.5584    2.5192   -2.9064 O   0  0  0  0  0  0  0  0  0  0  0  0
    8.2072    1.0328   -1.9692 O   0  0  0  0  0  0  0  0  0  0  0  0
    4.6137    1.5471   -1.2523 O   0  0  0  0  0  0  0  0  0  0  0  0
    5.8357    1.4875    1.5201 N   0  3  0  0  0  0  0  0  0  0  0  0
    4.3818    1.7419    1.5784 C   0  0  0  0  0  0  0  0  0  0  0  0
    8.7433    2.5755    1.4779 C   0  0  0  0  0  0  0  0  0  0  0  0
  1  8  1  0  0  0  0
  1  9  1  1  0  0  0
  1  2  1  0  0  0  0
  2  3  1  0  0  0  0
  3  5  1  0  0  0  0
  3  4  1  6  0  0  0
  5  7  1  0  0  0  0
  5  6  1  6  0  0  0
  7  8  1  0  0  0  0
  9 10  1  0  0  0  0
 11 12  1  0  0  0  0
 11 18  1  0  0  0  0
 11 19  1  1  0  0  0
 12 13  1  0  0  0  0
 13 15  1  0  0  0  0
 13 14  1  1  0  0  0
 15 16  1  0  0  0  0
 15 26  1  6  0  0  0
 16 18  1  0  0  0  0
 16 17  1  1  0  0  0
 18  4  1  6  0  0  0
 20 21  1  0  0  0  0
 20 27  1  0  0  0  0
 21 31  1  1  0  0  0
 21 23  1  0  0  0  0
 21 22  1  0  0  0  0
 23 24  1  0  0  0  0
 23 29  1  1  0  0  0
 24 25  1  0  0  0  0
 24 28  1  6  0  0  0
 25 27  1  0  0  0  0
 25 26  1  1  0  0  0
 29 30  1  0  0  0  0
M  CHG  5   6   1  10   1  14   1  19   1  29   1
M  END
>  <CHROM.1>
62.15681123,54.15397488,167.72838536,178.41776745,57.14757814,-40.60464284
16.36024664,96.90472385,-63.66783948,179.61430586,-63.64142421,-177.62456658
111.08347414,7.34449490,4.64427798,-1.40349237,1.51669748,1.24035368,-0.10883693

>  <Name>
1byj cryst

>  <RI>
0

>  <Rbt.Current_Directory>
/home/itssahil/PROJECTS/Mol_Feturizer/New_Systems/rnas/1byj

>  <Rbt.Executable>
rbdock ($Id: //depot/dev/client3/rdock/2013.1/src/exe/rbdock.cxx#4 $)

>  <Rbt.Library>
libRbt.so (2013.1, Build901 2013/11/27)

>  <Rbt.Parameter_File>
/export/apps/rDock/src/rDock_2013.1_src/data/scripts/dock_solv.prm

>  <Rbt.Receptor>
prm/pocket_docking_5.prm

>  <SCORE>
-43.3171

>  <SCORE.INTER>
-41.3363

>  <SCORE.INTER.CONST>
1

>  <SCORE.INTER.POLAR>
-5.71202

>  <SCORE.INTER.ROT>
6

>  <SCORE.INTER.SOLV>
25.7144

>  <SCORE.INTER.VDW>
-24.6889

>  <SCORE.INTER.norm>
-1.33343

>  <SCORE.INTRA>
-1.98803

>  <SCORE.INTRA.DIHEDRAL>
-1.56766

>  <SCORE.INTRA.DIHEDRAL.0>
18.4149

>  <SCORE.INTRA.POLAR>
-1.09461

>  <SCORE.INTRA.POLAR.0>
0

>  <SCORE.INTRA.REPUL>
0.00364977

>  <SCORE.INTRA.REPUL.0>
0.092687

>  <SCORE.INTRA.SOLV>
-0.236145

>  <SCORE.INTRA.SOLV.lig_0>
-120.37

>  <SCORE.INTRA.VDW>
2.61731

>  <SCORE.INTRA.VDW.0>
-1.75542

>  <SCORE.INTRA.norm>
-0.0641299

>  <SCORE.RESTR>
0.00724402

>  <SCORE.RESTR.CAVITY>
0.00724402

>  <SCORE.RESTR.norm>
0.000233678

>  <SCORE.SYSTEM>
0

>  <SCORE.SYSTEM.CONST>
0

>  <SCORE.SYSTEM.DIHEDRAL>
0

>  <SCORE.SYSTEM.SOLV>
0

>  <SCORE.SYSTEM.norm>
0

>  <SCORE.heavy>
31

>  <SCORE.norm>
-1.39732

>  <RMSD>
7.070

$$$$
1byj cryst
 OpenBabel11021811383D
libRbt.so/2013.1/901 2013/11/27
 31 33  0  0  0  0  0  0  0  0999 V2000
    1.9520    5.6774   -2.1650 C   0  0  1  0  0  0  0  0  0  0  0  0
    2.2159    6.5225   -3.3304 O   0  0  0  0  0  0  0  0  0  0  0  0
    1.9660    7.9562   -3.2262 C   0  0  2  0  0  0  0  0  0  0  0  0
    2.9109    8.5954   -2.3122 O   0  0  0  0  0  0  0  0  0  0  0  0
    0.4955    8.1906   -2.7647 C   0  0  2  0  0  0  0  0  0  0  0  0
    0.1482    9.6190   -2.6300 N   0  3  0  0  0  0  0  0  0  0  0  0
    0.2301    7.4422   -1.4330 C   0  0  0  0  0  0  0  0  0  0  0  0
    0.5417    5.9443   -1.5703 C   0  0  0  0  0  0  0  0  0  0  0  0
    2.0591    4.1973   -2.5724 C   0  0  0  0  0  0  0  0  0  0  0  0
    1.0755    3.7871   -3.5831 N   0  3  0  0  0  0  0  0  0  0  0  0
    4.7075    8.6527   -3.9973 C   0  0  1  0  0  0  0  0  0  0  0  0
    6.1908    8.3224   -4.2928 C   0  0  0  0  0  0  0  0  0  0  0  0
    6.4830    6.8260   -4.0006 C   0  0  1  0  0  0  0  0  0  0  0  0
    7.8780    6.5072   -4.3600 N   0  3  0  0  0  0  0  0  0  0  0  0
    6.1777    6.4984   -2.5103 C   0  0  1  0  0  0  0  0  0  0  0  0
    4.7340    6.9032   -2.1206 C   0  0  1  0  0  0  0  0  0  0  0  0
    4.6262    6.7198   -0.7167 O   0  0  0  0  0  0  0  0  0  0  0  0
    4.3427    8.3687   -2.5032 C   0  0  2  0  0  0  0  0  0  0  0  0
    4.4150   10.0468   -4.3747 N   0  3  0  0  0  0  0  0  0  0  0  0
    6.0278    4.7056    0.7549 C   0  0  0  0  0  0  0  0  0  0  0  0
    6.1685    3.1833    1.0004 C   0  0  2  0  0  0  0  0  0  0  0  0
    7.3108    2.9996    1.8357 O   0  0  0  0  0  0  0  0  0  0  0  0
    6.3560    2.4448   -0.3783 C   0  0  1  0  0  0  0  0  0  0  0  0
    7.4492    3.1098   -1.2821 C   0  0  2  0  0  0  0  0  0  0  0  0
    7.3457    4.6550   -1.3408 C   0  0  1  0  0  0  0  0  0  0  0  0
    6.3041    5.0688   -2.2637 O   0  0  0  0  0  0  0  0  0  0  0  0
    7.1503    5.2169   -0.0123 O   0  0  0  0  0  0  0  0  0  0  0  0
    7.4107    2.5954   -2.6107 O   0  0  0  0  0  0  0  0  0  0  0  0
    6.6736    1.0023   -0.1405 N   0  3  0  0  0  0  0  0  0  0  0  0
    8.0655    0.6741    0.2294 C   0  0  0  0  0  0  0  0  0  0  0  0
    4.9333    2.6939    1.7959 C   0  0  0  0  0  0  0  0  0  0  0  0
  1  8  1  0  0  0  0
  1  9  1  6  0  0  0
  1  2  1  0  0  0  0
  2  3  1  0  0  0  0
  3  5  1  0  0  0  0
  3  4  1  1  0  0  0
  5  7  1  0  0  0  0
  5  6  1  1  0  0  0
  7  8  1  0  0  0  0
  9 10  1  0  0  0  0
 11 12  1  0  0  0  0
 11 18  1  0  0  0  0
 11 19  1  1  0  0  0
 12 13  1  0  0  0  0
 13 15  1  0  0  0  0
 13 14  1  1  0  0  0
 15 16  1  0  0  0  0
 15 26  1  6  0  0  0
 16 18  1  0  0  0  0
 16 17  1  1  0  0  0
 18  4  1  6  0  0  0
 20 21  1  0  0  0  0
 20 27  1  0  0  0  0
 21 31  1  1  0  0  0
 21 23  1  0  0  0  0
 21 22  1  0  0  0  0
 23 24  1  0  0  0  0
 23 29  1  1  0  0  0
 24 25  1  0  0  0  0
 24 28  1  6  0  0  0
 25 27  1  0  0  0  0
 25 26  1  6  0  0  0
 29 30  1  0  0  0  0
M  CHG  5   6   1  10   1  14   1  19   1  29   1
M  END
>  <CHROM.1>
-62.36915471,51.71439749,50.70285675,61.92929088,52.93450745,-175.41834938
-179.04260389,116.25167918,64.44366354,-60.91066454,41.82492950,-173.20991924
-174.57820426,4.66879285,5.64104229,-1.84393845,2.25083799,0.13112138,-0.60071750

>  <Name>
1byj cryst

>  <RI>
0

>  <Rbt.Current_Directory>
/home/itssahil/PROJECTS/Mol_Feturizer/New_Systems/rnas/1byj

>  <Rbt.Executable>
rbdock ($Id: //depot/dev/client3/rdock/2013.1/src/exe/rbdock.cxx#4 $)

>  <Rbt.Library>
libRbt.so (2013.1, Build901 2013/11/27)

>  <Rbt.Parameter_File>
/export/apps/rDock/src/rDock_2013.1_src/data/scripts/dock_solv.prm

>  <Rbt.Receptor>
prm/pocket_docking_2.prm

>  <SCORE>
-25.6221

>  <SCORE.INTER>
-20.8627

>  <SCORE.INTER.CONST>
1

>  <SCORE.INTER.POLAR>
-3.62593

>  <SCORE.INTER.ROT>
6

>  <SCORE.INTER.SOLV>
22.0519

>  <SCORE.INTER.VDW>
-16.7726

>  <SCORE.INTER.norm>
-0.67299

>  <SCORE.INTRA>
-6.41813

>  <SCORE.INTRA.DIHEDRAL>
-8.63393

>  <SCORE.INTRA.DIHEDRAL.0>
18.4149

>  <SCORE.INTRA.POLAR>
0

>  <SCORE.INTRA.POLAR.0>
0

>  <SCORE.INTRA.REPUL>
-0.092687

>  <SCORE.INTRA.REPUL.0>
0.092687

>  <SCORE.INTRA.SOLV>
-2.55914

>  <SCORE.INTRA.SOLV.lig_0>
-120.37

>  <SCORE.INTRA.VDW>
-0.358163

>  <SCORE.INTRA.VDW.0>
-1.75542

>  <SCORE.INTRA.norm>
-0.207037

>  <SCORE.RESTR>
1.65869

>  <SCORE.RESTR.CAVITY>
1.65869

>  <SCORE.RESTR.norm>
0.0535063

>  <SCORE.SYSTEM>
0

>  <SCORE.SYSTEM.CONST>
0

>  <SCORE.SYSTEM.DIHEDRAL>
0

>  <SCORE.SYSTEM.SOLV>
0

>  <SCORE.SYSTEM.norm>
0

>  <SCORE.heavy>
31

>  <SCORE.norm>
-0.82652

>  <RMSD>
7.091

$$$$
1byj cryst
 OpenBabel11021811383D
libRbt.so/2013.1/901 2013/11/27
 31 33  0  0  0  0  0  0  0  0999 V2000
    4.5513    5.6178   -2.3841 C   0  0  1  0  0  0  0  0  0  0  0  0
    5.1800    4.3174   -2.6205 O   0  0  0  0  0  0  0  0  0  0  0  0
    6.5454    4.2831   -3.1334 C   0  0  2  0  0  0  0  0  0  0  0  0
    7.4987    4.7754   -2.1406 O   0  0  0  0  0  0  0  0  0  0  0  0
    6.6235    5.1194   -4.4468 C   0  0  2  0  0  0  0  0  0  0  0  0
    7.9740    5.1434   -5.0424 N   0  3  0  0  0  0  0  0  0  0  0  0
    6.1210    6.5634   -4.1888 C   0  0  0  0  0  0  0  0  0  0  0  0
    4.6971    6.5574   -3.6128 C   0  0  0  0  0  0  0  0  0  0  0  0
    3.0576    5.4145   -2.0751 C   0  0  0  0  0  0  0  0  0  0  0  0
    2.3422    6.6577   -1.7589 N   0  3  0  0  0  0  0  0  0  0  0  0
    8.2147    2.5586   -1.3385 C   0  0  1  0  0  0  0  0  0  0  0  0
    8.3692    1.6369   -0.1043 C   0  0  0  0  0  0  0  0  0  0  0  0
    7.0141    1.4921    0.6390 C   0  0  1  0  0  0  0  0  0  0  0  0
    7.1575    0.5508    1.7660 N   0  3  0  0  0  0  0  0  0  0  0  0
    6.5051    2.8860    1.1077 C   0  0  1  0  0  0  0  0  0  0  0  0
    6.4265    3.8907   -0.0690 C   0  0  1  0  0  0  0  0  0  0  0  0
    6.1204    5.1561    0.4977 O   0  0  0  0  0  0  0  0  0  0  0  0
    7.7289    3.9880   -0.9303 C   0  0  2  0  0  0  0  0  0  0  0  0
    9.4785    2.6072   -2.0947 N   0  3  0  0  0  0  0  0  0  0  0  0
    2.5254    2.9425    3.1937 C   0  0  0  0  0  0  0  0  0  0  0  0
    2.8886    2.6816    4.6762 C   0  0  2  0  0  0  0  0  0  0  0  0
    2.5216    3.8509    5.4072 O   0  0  0  0  0  0  0  0  0  0  0  0
    4.4348    2.4058    4.7966 C   0  0  1  0  0  0  0  0  0  0  0  0
    5.3040    3.4683    4.0419 C   0  0  2  0  0  0  0  0  0  0  0  0
    4.7760    3.8034    2.6239 C   0  0  1  0  0  0  0  0  0  0  0  0
    5.1666    2.7797    1.6714 O   0  0  0  0  0  0  0  0  0  0  0  0
    3.3356    4.0124    2.6380 O   0  0  0  0  0  0  0  0  0  0  0  0
    6.6634    3.0526    3.9403 O   0  0  0  0  0  0  0  0  0  0  0  0
    4.8248    2.3331    6.2392 N   0  3  0  0  0  0  0  0  0  0  0  0
    6.1648    1.7920    6.5452 C   0  0  0  0  0  0  0  0  0  0  0  0
    2.0144    1.5167    5.2024 C   0  0  0  0  0  0  0  0  0  0  0  0
  1  8  1  0  0  0  0
  1  9  1  6  0  0  0
  1  2  1  0  0  0  0
  2  3  1  0  0  0  0
  3  5  1  0  0  0  0
  3  4  1  1  0  0  0
  5  7  1  0  0  0  0
  5  6  1  1  0  0  0
  7  8  1  0  0  0  0
  9 10  1  0  0  0  0
 11 12  1  0  0  0  0
 11 18  1  0  0  0  0
 11 19  1  1  0  0  0
 12 13  1  0  0  0  0
 13 15  1  0  0  0  0
 13 14  1  1  0  0  0
 15 16  1  0  0  0  0
 15 26  1  6  0  0  0
 16 18  1  0  0  0  0
 16 17  1  1  0  0  0
 18  4  1  6  0  0  0
 20 21  1  0  0  0  0
 20 27  1  0  0  0  0
 21 31  1  1  0  0  0
 21 23  1  0  0  0  0
 21 22  1  0  0  0  0
 23 24  1  0  0  0  0
 23 29  1  1  0  0  0
 24 25  1  0  0  0  0
 24 28  1  6  0  0  0
 25 27  1  0  0  0  0
 25 26  1  6  0  0  0
 29 30  1  0  0  0  0
M  CHG  5   6   1  10   1  14   1  19   1  29   1
M  END
>  <CHROM.1>
177.28414195,67.89126853,57.91989347,-167.41225559,67.47875424,154.32806068
66.37555961,155.19653876,-76.69233109,58.12627877,-71.96411238,51.72279248
-82.88870520,5.55745128,3.67787832,0.63528595,1.26931201,0.47820657,-1.13415206

>  <Name>
1byj cryst

>  <RI>
0

>  <Rbt.Current_Directory>
/home/itssahil/PROJECTS/Mol_Feturizer/New_Systems/rnas/1byj

>  <Rbt.Executable>
rbdock ($Id: //depot/dev/client3/rdock/2013.1/src/exe/rbdock.cxx#4 $)

>  <Rbt.Library>
libRbt.so (2013.1, Build901 2013/11/27)

>  <Rbt.Parameter_File>
/export/apps/rDock/src/rDock_2013.1_src/data/scripts/dock_solv.prm

>  <Rbt.Receptor>
prm/pocket_docking_7.prm

>  <SCORE>
-23.0689

>  <SCORE.INTER>
-18.1512

>  <SCORE.INTER.CONST>
1

>  <SCORE.INTER.POLAR>
-3.73814

>  <SCORE.INTER.ROT>
6

>  <SCORE.INTER.SOLV>
20.4693

>  <SCORE.INTER.VDW>
-14.0634

>  <SCORE.INTER.norm>
-0.585524

>  <SCORE.INTRA>
-4.91768

>  <SCORE.INTRA.DIHEDRAL>
-8.78987

>  <SCORE.INTRA.DIHEDRAL.0>
18.4149

>  <SCORE.INTRA.POLAR>
0

>  <SCORE.INTRA.POLAR.0>
0

>  <SCORE.INTRA.REPUL>
-0.092687

>  <SCORE.INTRA.REPUL.0>
0.092687

>  <SCORE.INTRA.SOLV>
-0.618102

>  <SCORE.INTRA.SOLV.lig_0>
-120.37

>  <SCORE.INTRA.VDW>
0.249743

>  <SCORE.INTRA.VDW.0>
-1.75542

>  <SCORE.INTRA.norm>
-0.158635

>  <SCORE.RESTR>
0

>  <SCORE.RESTR.CAVITY>
0

>  <SCORE.RESTR.norm>
0

>  <SCORE.SYSTEM>
0

>  <SCORE.SYSTEM.CONST>
0

>  <SCORE.SYSTEM.DIHEDRAL>
0

>  <SCORE.SYSTEM.SOLV>
0

>  <SCORE.SYSTEM.norm>
0

>  <SCORE.heavy>
31

>  <SCORE.norm>
-0.744159

>  <RMSD>
7.129

$$$$
1byj cryst
 OpenBabel11021811383D
libRbt.so/2013.1/901 2013/11/27
 31 33  0  0  0  0  0  0  0  0999 V2000
    3.0471    6.9256   -2.0262 C   0  0  1  0  0  0  0  0  0  0  0  0
    3.7140    6.8707   -3.3278 O   0  0  0  0  0  0  0  0  0  0  0  0
    4.4269    8.0531   -3.7993 C   0  0  2  0  0  0  0  0  0  0  0  0
    5.6155    8.3152   -2.9897 O   0  0  0  0  0  0  0  0  0  0  0  0
    3.4606    9.2764   -3.7868 C   0  0  2  0  0  0  0  0  0  0  0  0
    4.0965   10.5255   -4.2501 N   0  3  0  0  0  0  0  0  0  0  0  0
    2.8631    9.4680   -2.3689 C   0  0  0  0  0  0  0  0  0  0  0  0
    2.1558    8.1910   -1.8911 C   0  0  0  0  0  0  0  0  0  0  0  0
    2.1763    5.6699   -1.8448 C   0  0  0  0  0  0  0  0  0  0  0  0
    1.1259    5.5239   -2.8610 N   0  3  0  0  0  0  0  0  0  0  0  0
    7.1833    7.0469   -4.4053 C   0  0  1  0  0  0  0  0  0  0  0  0
    8.2337    5.9104   -4.4444 C   0  0  0  0  0  0  0  0  0  0  0  0
    7.6275    4.5907   -3.8960 C   0  0  1  0  0  0  0  0  0  0  0  0
    8.6132    3.4990   -4.0115 N   0  3  0  0  0  0  0  0  0  0  0  0
    7.1475    4.7872   -2.4288 C   0  0  1  0  0  0  0  0  0  0  0  0
    6.1687    5.9815   -2.3030 C   0  0  1  0  0  0  0  0  0  0  0  0
    5.9356    6.1705   -0.9152 O   0  0  0  0  0  0  0  0  0  0  0  0
    6.6784    7.3120   -2.9489 C   0  0  2  0  0  0  0  0  0  0  0  0
    7.7344    8.2664   -5.0221 N   0  3  0  0  0  0  0  0  0  0  0  0
    6.9155    3.4009    1.0519 C   0  0  0  0  0  0  0  0  0  0  0  0
    6.1727    2.1181    1.4995 C   0  0  2  0  0  0  0  0  0  0  0  0
    7.1544    1.2355    2.0411 O   0  0  0  0  0  0  0  0  0  0  0  0
    5.4558    1.4669    0.2572 C   0  0  1  0  0  0  0  0  0  0  0  0
    6.3975    1.3296   -0.9872 C   0  0  2  0  0  0  0  0  0  0  0  0
    7.2371    2.6014   -1.2694 C   0  0  1  0  0  0  0  0  0  0  0  0
    6.4429    3.6032   -1.9573 O   0  0  0  0  0  0  0  0  0  0  0  0
    7.8266    3.1214   -0.0443 O   0  0  0  0  0  0  0  0  0  0  0  0
    5.6637    0.9928   -2.1616 O   0  0  0  0  0  0  0  0  0  0  0  0
    4.8897    0.1360    0.6401 N   0  3  0  0  0  0  0  0  0  0  0  0
    3.4590    0.0956    1.0053 C   0  0  0  0  0  0  0  0  0  0  0  0
    5.1998    2.4844    2.6473 C   0  0  0  0  0  0  0  0  0  0  0  0
  1  8  1  0  0  0  0
  1  9  1  6  0  0  0
  1  2  1  0  0  0  0
  2  3  1  0  0  0  0
  3  5  1  0  0  0  0
  3  4  1  1  0  0  0
  5  7  1  0  0  0  0
  5  6  1  1  0  0  0
  7  8  1  0  0  0  0
  9 10  1  0  0  0  0
 11 12  1  0  0  0  0
 11 18  1  0  0  0  0
 11 19  1  1  0  0  0
 12 13  1  0  0  0  0
 13 15  1  0  0  0  0
 13 14  1  1  0  0  0
 15 16  1  0  0  0  0
 15 26  1  6  0  0  0
 16 18  1  0  0  0  0
 16 17  1  1  0  0  0
 18  4  1  6  0  0  0
 20 21  1  0  0  0  0
 20 27  1  0  0  0  0
 21 31  1  1  0  0  0
 21 23  1  0  0  0  0
 21 22  1  0  0  0  0
 23 24  1  0  0  0  0
 23 29  1  1  0  0  0
 24 25  1  0  0  0  0
 24 28  1  6  0  0  0
 25 27  1  0  0  0  0
 25 26  1  1  0  0  0
 29 30  1  0  0  0  0
M  CHG  5   6   1  10   1  14   1  19   1  29   1
M  END
>  <CHROM.1>
-60.30925820,61.77459587,57.82434087,177.96750992,57.70859912,165.34841415
46.65213685,92.23916094,-66.70267413,52.03524410,-141.83033046,-73.28892450
-172.84091468,5.51086168,4.97804653,-1.83766792,1.76346693,0.37134427,-0.60321253

>  <Name>
1byj cryst

>  <RI>
0

>  <Rbt.Current_Directory>
/home/itssahil/PROJECTS/Mol_Feturizer/New_Systems/rnas/1byj

>  <Rbt.Executable>
rbdock ($Id: //depot/dev/client3/rdock/2013.1/src/exe/rbdock.cxx#4 $)

>  <Rbt.Library>
libRbt.so (2013.1, Build901 2013/11/27)

>  <Rbt.Parameter_File>
/export/apps/rDock/src/rDock_2013.1_src/data/scripts/dock_solv.prm

>  <Rbt.Receptor>
prm/pocket_docking_5.prm

>  <SCORE>
-42.8797

>  <SCORE.INTER>
-35.8572

>  <SCORE.INTER.CONST>
1

>  <SCORE.INTER.POLAR>
-5.74901

>  <SCORE.INTER.ROT>
6

>  <SCORE.INTER.SOLV>
24.8121

>  <SCORE.INTER.VDW>
-20.6121

>  <SCORE.INTER.norm>
-1.15668

>  <SCORE.INTRA>
-7.02253

>  <SCORE.INTRA.DIHEDRAL>
-9.08724

>  <SCORE.INTRA.DIHEDRAL.0>
18.4149

>  <SCORE.INTRA.POLAR>
-0.114804

>  <SCORE.INTRA.POLAR.0>
0

>  <SCORE.INTRA.REPUL>
-0.092687

>  <SCORE.INTRA.REPUL.0>
0.092687

>  <SCORE.INTRA.SOLV>
-0.710989

>  <SCORE.INTRA.SOLV.lig_0>
-120.37

>  <SCORE.INTRA.VDW>
-1.26965

>  <SCORE.INTRA.VDW.0>
-1.75542

>  <SCORE.INTRA.norm>
-0.226533

>  <SCORE.RESTR>
0

>  <SCORE.RESTR.CAVITY>
0

>  <SCORE.RESTR.norm>
0

>  <SCORE.SYSTEM>
0

>  <SCORE.SYSTEM.CONST>
0

>  <SCORE.SYSTEM.DIHEDRAL>
0

>  <SCORE.SYSTEM.SOLV>
0

>  <SCORE.SYSTEM.norm>
0

>  <SCORE.heavy>
31

>  <SCORE.norm>
-1.38322

>  <RMSD>
7.140

$$$$
1byj cryst
 OpenBabel11021811383D
libRbt.so/2013.1/901 2013/11/27
 31 33  0  0  0  0  0  0  0  0999 V2000
    5.4334    8.2500   -0.4859 C   0  0  1  0  0  0  0  0  0  0  0  0
    5.5100    7.6405   -1.8143 O   0  0  0  0  0  0  0  0  0  0  0  0
    6.4497    8.1925   -2.7843 C   0  0  2  0  0  0  0  0  0  0  0  0
    7.8336    7.9455   -2.3837 O   0  0  0  0  0  0  0  0  0  0  0  0
    6.1798    9.7188   -2.9521 C   0  0  2  0  0  0  0  0  0  0  0  0
    7.0870   10.3677   -3.9191 N   0  3  0  0  0  0  0  0  0  0  0  0
    6.2605   10.4279   -1.5757 C   0  0  0  0  0  0  0  0  0  0  0  0
    5.2868    9.7944   -0.5707 C   0  0  0  0  0  0  0  0  0  0  0  0
    4.2295    7.6670    0.2751 C   0  0  0  0  0  0  0  0  0  0  0  0
    4.2873    6.2100    0.4509 N   0  3  0  0  0  0  0  0  0  0  0  0
    8.7301    6.2514   -3.9319 C   0  0  1  0  0  0  0  0  0  0  0  0
    9.1853    4.7801   -4.0890 C   0  0  0  0  0  0  0  0  0  0  0  0
    8.0547    3.8115   -3.6494 C   0  0  1  0  0  0  0  0  0  0  0  0
    8.4728    2.4150   -3.8774 N   0  3  0  0  0  0  0  0  0  0  0  0
    7.6729    4.0682   -2.1628 C   0  0  1  0  0  0  0  0  0  0  0  0
    7.3054    5.5527   -1.9155 C   0  0  1  0  0  0  0  0  0  0  0  0
    7.1447    5.7026   -0.5127 O   0  0  0  0  0  0  0  0  0  0  0  0
    8.3559    6.5815   -2.4496 C   0  0  2  0  0  0  0  0  0  0  0  0
    9.7692    7.1601   -4.4475 N   0  3  0  0  0  0  0  0  0  0  0  0
    8.5376    2.6848    0.4235 C   0  0  0  0  0  0  0  0  0  0  0  0
    7.6925    2.3255    1.6702 C   0  0  2  0  0  0  0  0  0  0  0  0
    8.0323    0.9879    2.0328 O   0  0  0  0  0  0  0  0  0  0  0  0
    6.1617    2.4403    1.3168 C   0  0  1  0  0  0  0  0  0  0  0  0
    5.7870    1.7061   -0.0154 C   0  0  2  0  0  0  0  0  0  0  0  0
    6.7801    1.9819   -1.1728 C   0  0  1  0  0  0  0  0  0  0  0  0
    6.5142    3.2706   -1.7862 O   0  0  0  0  0  0  0  0  0  0  0  0
    8.1581    1.8699   -0.7175 O   0  0  0  0  0  0  0  0  0  0  0  0
    4.4720    2.0469   -0.4465 O   0  0  0  0  0  0  0  0  0  0  0  0
    5.3397    1.9220    2.4543 N   0  3  0  0  0  0  0  0  0  0  0  0
    5.2263    2.7850    3.6477 C   0  0  0  0  0  0  0  0  0  0  0  0
    8.1226    3.2432    2.8410 C   0  0  0  0  0  0  0  0  0  0  0  0
  1  8  1  0  0  0  0
  1  9  1  6  0  0  0
  1  2  1  0  0  0  0
  2  3  1  0  0  0  0
  3  5  1  0  0  0  0
  3  4  1  1  0  0  0
  5  7  1  0  0  0  0
  5  6  1  6  0  0  0
  7  8  1  0  0  0  0
  9 10  1  0  0  0  0
 11 12  1  0  0  0  0
 11 18  1  0  0  0  0
 11 19  1  1  0  0  0
 12 13  1  0  0  0  0
 13 15  1  0  0  0  0
 13 14  1  1  0  0  0
 15 16  1  0  0  0  0
 15 26  1  6  0  0  0
 16 18  1  0  0  0  0
 16 17  1  1  0  0  0
 18  4  1  6  0  0  0
 20 21  1  0  0  0  0
 20 27  1  0  0  0  0
 21 31  1  1  0  0  0
 21 23  1  0  0  0  0
 21 22  1  0  0  0  0
 23 24  1  0  0  0  0
 23 29  1  1  0  0  0
 24 25  1  0  0  0  0
 24 28  1  6  0  0  0
 25 27  1  0  0  0  0
 25 26  1  1  0  0  0
 29 30  1  0  0  0  0
M  CHG  5   6   1  10   1  14   1  19   1  29   1
M  END
>  <CHROM.1>
59.28110775,70.75618531,79.22450740,58.49828377,148.84727281,-174.34527263
170.22564219,93.70780380,159.09958090,62.02414987,-163.96843823,175.92669160
140.09963373,6.90436987,5.12935174,-1.04501054,1.52375303,0.91662377,-0.48488016

>  <Name>
1byj cryst

>  <RI>
0

>  <Rbt.Current_Directory>
/home/itssahil/PROJECTS/Mol_Feturizer/New_Systems/rnas/1byj

>  <Rbt.Executable>
rbdock ($Id: //depot/dev/client3/rdock/2013.1/src/exe/rbdock.cxx#4 $)

>  <Rbt.Library>
libRbt.so (2013.1, Build901 2013/11/27)

>  <Rbt.Parameter_File>
/export/apps/rDock/src/rDock_2013.1_src/data/scripts/dock_solv.prm

>  <Rbt.Receptor>
prm/pocket_docking_5.prm

>  <SCORE>
-42.2842

>  <SCORE.INTER>
-38.8648

>  <SCORE.INTER.CONST>
1

>  <SCORE.INTER.POLAR>
-6.64619

>  <SCORE.INTER.ROT>
6

>  <SCORE.INTER.SOLV>
22.6006

>  <SCORE.INTER.VDW>
-18.8894

>  <SCORE.INTER.norm>
-1.2537

>  <SCORE.INTRA>
-3.41939

>  <SCORE.INTRA.DIHEDRAL>
-1.42187

>  <SCORE.INTRA.DIHEDRAL.0>
18.4149

>  <SCORE.INTRA.POLAR>
-1.16259

>  <SCORE.INTRA.POLAR.0>
0

>  <SCORE.INTRA.REPUL>
-0.0926507

>  <SCORE.INTRA.REPUL.0>
0.092687

>  <SCORE.INTRA.SOLV>
0.977585

>  <SCORE.INTRA.SOLV.lig_0>
-120.37

>  <SCORE.INTRA.VDW>
1.2188

>  <SCORE.INTRA.VDW.0>
-1.75542

>  <SCORE.INTRA.norm>
-0.110303

>  <SCORE.RESTR>
0

>  <SCORE.RESTR.CAVITY>
0

>  <SCORE.RESTR.norm>
0

>  <SCORE.SYSTEM>
0

>  <SCORE.SYSTEM.CONST>
0

>  <SCORE.SYSTEM.DIHEDRAL>
0

>  <SCORE.SYSTEM.SOLV>
0

>  <SCORE.SYSTEM.norm>
0

>  <SCORE.heavy>
31

>  <SCORE.norm>
-1.36401

>  <RMSD>
7.148

$$$$
1byj cryst
 OpenBabel11021811383D
libRbt.so/2013.1/901 2013/11/27
 31 33  0  0  0  0  0  0  0  0999 V2000
    2.2578    5.8055   -1.7927 C   0  0  1  0  0  0  0  0  0  0  0  0
    2.9453    6.3106   -2.9820 O   0  0  0  0  0  0  0  0  0  0  0  0
    2.9793    7.7510   -3.2117 C   0  0  2  0  0  0  0  0  0  0  0  0
    3.8056    8.4289   -2.2145 O   0  0  0  0  0  0  0  0  0  0  0  0
    1.5234    8.3084   -3.2044 C   0  0  2  0  0  0  0  0  0  0  0  0
    1.4568    9.7657   -3.4300 N   0  3  0  0  0  0  0  0  0  0  0  0
    0.8172    7.9345   -1.8758 C   0  0  0  0  0  0  0  0  0  0  0  0
    0.8361    6.4153   -1.6494 C   0  0  0  0  0  0  0  0  0  0  0  0
    2.1464    4.2731   -1.8792 C   0  0  0  0  0  0  0  0  0  0  0  0
    3.4260    3.5980   -2.1323 N   0  3  0  0  0  0  0  0  0  0  0  0
    5.5696    8.5621   -3.9293 C   0  0  1  0  0  0  0  0  0  0  0  0
    7.0914    8.4860   -4.2030 C   0  0  0  0  0  0  0  0  0  0  0  0
    7.6715    7.1446   -3.6796 C   0  0  1  0  0  0  0  0  0  0  0  0
    9.1050    7.0520   -4.0160 N   0  3  0  0  0  0  0  0  0  0  0  0
    7.4243    7.0115   -2.1490 C   0  0  1  0  0  0  0  0  0  0  0  0
    5.9257    7.1827   -1.7953 C   0  0  1  0  0  0  0  0  0  0  0  0
    5.8443    7.2137   -0.3781 O   0  0  0  0  0  0  0  0  0  0  0  0
    5.2555    8.4600   -2.4006 C   0  0  2  0  0  0  0  0  0  0  0  0
    5.0103    9.7906   -4.5203 N   0  3  0  0  0  0  0  0  0  0  0  0
    8.6830    2.9245   -2.6348 C   0  0  0  0  0  0  0  0  0  0  0  0
    8.3195    1.9598   -1.4794 C   0  0  2  0  0  0  0  0  0  0  0  0
    7.3726    1.0267   -1.9977 O   0  0  0  0  0  0  0  0  0  0  0  0
    7.7031    2.7812   -0.2849 C   0  0  1  0  0  0  0  0  0  0  0  0
    6.5821    3.7750   -0.7429 C   0  0  2  0  0  0  0  0  0  0  0  0
    6.9549    4.5844   -2.0109 C   0  0  1  0  0  0  0  0  0  0  0  0
    7.8290    5.6946   -1.6772 O   0  0  0  0  0  0  0  0  0  0  0  0
    7.5353    3.7222   -3.0300 O   0  0  0  0  0  0  0  0  0  0  0  0
    6.2347    4.6845    0.2979 O   0  0  0  0  0  0  0  0  0  0  0  0
    7.1832    1.8436    0.7586 N   0  3  0  0  0  0  0  0  0  0  0  0
    7.7536    1.9672    2.1156 C   0  0  0  0  0  0  0  0  0  0  0  0
    9.5856    1.1599   -1.0855 C   0  0  0  0  0  0  0  0  0  0  0  0
  1  8  1  0  0  0  0
  1  9  1  6  0  0  0
  1  2  1  0  0  0  0
  2  3  1  0  0  0  0
  3  5  1  0  0  0  0
  3  4  1  1  0  0  0
  5  7  1  0  0  0  0
  5  6  1  1  0  0  0
  7  8  1  0  0  0  0
  9 10  1  0  0  0  0
 11 12  1  0  0  0  0
 11 18  1  0  0  0  0
 11 19  1  1  0  0  0
 12 13  1  0  0  0  0
 13 15  1  0  0  0  0
 13 14  1  1  0  0  0
 15 16  1  0  0  0  0
 15 26  1  6  0  0  0
 16 18  1  0  0  0  0
 16 17  1  1  0  0  0
 18  4  1  6  0  0  0
 20 21  1  0  0  0  0
 20 27  1  0  0  0  0
 21 31  1  1  0  0  0
 21 23  1  0  0  0  0
 21 22  1  0  0  0  0
 23 24  1  0  0  0  0
 23 29  1  1  0  0  0
 24 25  1  0  0  0  0
 24 28  1  1  0  0  0
 25 27  1  0  0  0  0
 25 26  1  1  0  0  0
 29 30  1  0  0  0  0
M  CHG  5   6   1  10   1  14   1  19   1  29   1
M  END
>  <CHROM.1>
52.53308428,82.13194545,34.74885302,-68.69727808,-175.70436946,-172.17429250
-69.34195513,-74.51307794,-65.56522937,-61.80835516,-117.62778033,-55.30280073
-127.69667884,5.58189192,5.65534565,-2.03301706,2.26959554,0.17446047,-0.49894457

>  <Name>
1byj cryst

>  <RI>
0

>  <Rbt.Current_Directory>
/home/itssahil/PROJECTS/Mol_Feturizer/New_Systems/rnas/1byj

>  <Rbt.Executable>
rbdock ($Id: //depot/dev/client3/rdock/2013.1/src/exe/rbdock.cxx#4 $)

>  <Rbt.Library>
libRbt.so (2013.1, Build901 2013/11/27)

>  <Rbt.Parameter_File>
/export/apps/rDock/src/rDock_2013.1_src/data/scripts/dock_solv.prm

>  <Rbt.Receptor>
prm/pocket_docking_2.prm

>  <SCORE>
-24.0471

>  <SCORE.INTER>
-22.4892

>  <SCORE.INTER.CONST>
1

>  <SCORE.INTER.POLAR>
-3.02125

>  <SCORE.INTER.ROT>
6

>  <SCORE.INTER.SOLV>
19.5344

>  <SCORE.INTER.VDW>
-19.0334

>  <SCORE.INTER.norm>
-0.725457

>  <SCORE.INTRA>
-3.73518

>  <SCORE.INTRA.DIHEDRAL>
-0.802082

>  <SCORE.INTRA.DIHEDRAL.0>
18.4149

>  <SCORE.INTRA.POLAR>
-1.00199

>  <SCORE.INTRA.POLAR.0>
0

>  <SCORE.INTRA.REPUL>
-0.0888318

>  <SCORE.INTRA.REPUL.0>
0.092687

>  <SCORE.INTRA.SOLV>
3.54743

>  <SCORE.INTRA.SOLV.lig_0>
-120.37

>  <SCORE.INTRA.VDW>
-1.25694

>  <SCORE.INTRA.VDW.0>
-1.75542

>  <SCORE.INTRA.norm>
-0.12049

>  <SCORE.RESTR>
2.17728

>  <SCORE.RESTR.CAVITY>
2.17728

>  <SCORE.RESTR.norm>
0.0702348

>  <SCORE.SYSTEM>
0

>  <SCORE.SYSTEM.CONST>
0

>  <SCORE.SYSTEM.DIHEDRAL>
0

>  <SCORE.SYSTEM.SOLV>
0

>  <SCORE.SYSTEM.norm>
0

>  <SCORE.heavy>
31

>  <SCORE.norm>
-0.775712

>  <RMSD>
7.156

$$$$
1byj cryst
 OpenBabel11021811383D
libRbt.so/2013.1/901 2013/11/27
 31 33  0  0  0  0  0  0  0  0999 V2000
    4.5140    9.1579   -0.2048 C   0  0  1  0  0  0  0  0  0  0  0  0
    4.2877    7.9066   -0.9294 O   0  0  0  0  0  0  0  0  0  0  0  0
    4.1787    7.9500   -2.3837 C   0  0  2  0  0  0  0  0  0  0  0  0
    5.4567    8.2973   -3.0024 O   0  0  0  0  0  0  0  0  0  0  0  0
    3.0674    8.9663   -2.7869 C   0  0  2  0  0  0  0  0  0  0  0  0
    2.8836    9.0792   -4.2473 N   0  3  0  0  0  0  0  0  0  0  0  0
    3.3693   10.3569   -2.1713 C   0  0  0  0  0  0  0  0  0  0  0  0
    3.5163   10.2645   -0.6451 C   0  0  0  0  0  0  0  0  0  0  0  0
    4.3608    8.9084    1.3060 C   0  0  0  0  0  0  0  0  0  0  0  0
    4.6231   10.0935    2.1331 N   0  3  0  0  0  0  0  0  0  0  0  0
    7.1124    7.1393   -4.4124 C   0  0  1  0  0  0  0  0  0  0  0  0
    8.1976    6.0364   -4.4618 C   0  0  0  0  0  0  0  0  0  0  0  0
    7.6123    4.6766   -3.9947 C   0  0  1  0  0  0  0  0  0  0  0  0
    8.6343    3.6200   -4.1208 N   0  3  0  0  0  0  0  0  0  0  0  0
    7.0739    4.7932   -2.5393 C   0  0  1  0  0  0  0  0  0  0  0  0
    6.0554    5.9521   -2.3982 C   0  0  1  0  0  0  0  0  0  0  0  0
    5.7667    6.0720   -1.0131 O   0  0  0  0  0  0  0  0  0  0  0  0
    6.5474    7.3243   -2.9658 C   0  0  2  0  0  0  0  0  0  0  0  0
    7.6481    8.4006   -4.9542 N   0  3  0  0  0  0  0  0  0  0  0  0
    6.7033    3.5376    0.8897 C   0  0  0  0  0  0  0  0  0  0  0  0
    5.9482    2.2732    1.3680 C   0  0  2  0  0  0  0  0  0  0  0  0
    6.9070    1.4324    2.0082 O   0  0  0  0  0  0  0  0  0  0  0  0
    5.3033    1.5471    0.1277 C   0  0  1  0  0  0  0  0  0  0  0  0
    6.3106    1.3522   -1.0561 C   0  0  2  0  0  0  0  0  0  0  0  0
    7.1537    2.6157   -1.3638 C   0  0  1  0  0  0  0  0  0  0  0  0
    6.3890    3.5696   -2.1467 O   0  0  0  0  0  0  0  0  0  0  0  0
    7.6734    3.2085   -0.1401 O   0  0  0  0  0  0  0  0  0  0  0  0
    5.6427    0.9436   -2.2469 O   0  0  0  0  0  0  0  0  0  0  0  0
    4.7285    0.2331    0.5535 N   0  3  0  0  0  0  0  0  0  0  0  0
    3.3449   -0.0628    0.1292 C   0  0  0  0  0  0  0  0  0  0  0  0
    4.9131    2.6912    2.4412 C   0  0  0  0  0  0  0  0  0  0  0  0
  1  8  1  0  0  0  0
  1  9  1  1  0  0  0
  1  2  1  0  0  0  0
  2  3  1  0  0  0  0
  3  5  1  0  0  0  0
  3  4  1  6  0  0  0
  5  7  1  0  0  0  0
  5  6  1  6  0  0  0
  7  8  1  0  0  0  0
  9 10  1  0  0  0  0
 11 12  1  0  0  0  0
 11 18  1  0  0  0  0
 11 19  1  1  0  0  0
 12 13  1  0  0  0  0
 13 15  1  0  0  0  0
 13 14  1  1  0  0  0
 15 16  1  0  0  0  0
 15 26  1  6  0  0  0
 16 18  1  0  0  0  0
 16 17  1  1  0  0  0
 18  4  1  6  0  0  0
 20 21  1  0  0  0  0
 20 27  1  0  0  0  0
 21 31  1  1  0  0  0
 21 23  1  0  0  0  0
 21 22  1  0  0  0  0
 23 24  1  0  0  0  0
 23 29  1  1  0  0  0
 24 25  1  0  0  0  0
 24 28  1  6  0  0  0
 25 27  1  0  0  0  0
 25 26  1  1  0  0  0
 29 30  1  0  0  0  0
M  CHG  5   6   1  10   1  14   1  19   1  29   1
M  END
>  <CHROM.1>
177.62403431,70.19122563,129.09815069,-144.91172203,-44.75130688,172.42477829
-76.63545339,97.87922435,-67.02268960,179.89251993,-108.07719826,-69.80183005
-178.41289995,5.67874906,5.41100449,-1.38672503,1.89009426,1.01919555,-0.54423286

>  <Name>
1byj cryst

>  <RI>
0

>  <Rbt.Current_Directory>
/home/itssahil/PROJECTS/Mol_Feturizer/New_Systems/rnas/1byj

>  <Rbt.Executable>
rbdock ($Id: //depot/dev/client3/rdock/2013.1/src/exe/rbdock.cxx#4 $)

>  <Rbt.Library>
libRbt.so (2013.1, Build901 2013/11/27)

>  <Rbt.Parameter_File>
/export/apps/rDock/src/rDock_2013.1_src/data/scripts/dock_solv.prm

>  <Rbt.Receptor>
prm/pocket_docking_5.prm

>  <SCORE>
-39.1581

>  <SCORE.INTER>
-41.3568

>  <SCORE.INTER.CONST>
1

>  <SCORE.INTER.POLAR>
-7.602

>  <SCORE.INTER.ROT>
6

>  <SCORE.INTER.SOLV>
22.3702

>  <SCORE.INTER.VDW>
-17.2879

>  <SCORE.INTER.norm>
-1.33409

>  <SCORE.INTRA>
1.63142

>  <SCORE.INTRA.DIHEDRAL>
1.8509

>  <SCORE.INTRA.DIHEDRAL.0>
18.4149

>  <SCORE.INTRA.POLAR>
-0.00921968

>  <SCORE.INTRA.POLAR.0>
0

>  <SCORE.INTRA.REPUL>
-0.092687

>  <SCORE.INTRA.REPUL.0>
0.092687

>  <SCORE.INTRA.SOLV>
-2.07371

>  <SCORE.INTRA.SOLV.lig_0>
-120.37

>  <SCORE.INTRA.VDW>
2.2376

>  <SCORE.INTRA.VDW.0>
-1.75542

>  <SCORE.INTRA.norm>
0.0526264

>  <SCORE.RESTR>
0.567339

>  <SCORE.RESTR.CAVITY>
0.567339

>  <SCORE.RESTR.norm>
0.0183013

>  <SCORE.SYSTEM>
0

>  <SCORE.SYSTEM.CONST>
0

>  <SCORE.SYSTEM.DIHEDRAL>
0

>  <SCORE.SYSTEM.SOLV>
0

>  <SCORE.SYSTEM.norm>
0

>  <SCORE.heavy>
31

>  <SCORE.norm>
-1.26316

>  <RMSD>
7.187

$$$$
1byj cryst
 OpenBabel11021811383D
libRbt.so/2013.1/901 2013/11/27
 31 33  0  0  0  0  0  0  0  0999 V2000
    1.2272    6.6621    0.5529 C   0  0  1  0  0  0  0  0  0  0  0  0
    1.4626    6.5095   -0.8835 O   0  0  0  0  0  0  0  0  0  0  0  0
    1.6559    7.7085   -1.6921 C   0  0  2  0  0  0  0  0  0  0  0  0
    2.9158    8.3732   -1.3645 O   0  0  0  0  0  0  0  0  0  0  0  0
    0.4460    8.6697   -1.4857 C   0  0  2  0  0  0  0  0  0  0  0  0
    0.5531    9.9170   -2.2679 N   0  3  0  0  0  0  0  0  0  0  0  0
    0.2722    8.9902    0.0213 C   0  0  0  0  0  0  0  0  0  0  0  0
    0.1114    7.7032    0.8442 C   0  0  0  0  0  0  0  0  0  0  0  0
    0.8223    5.3034    1.1514 C   0  0  0  0  0  0  0  0  0  0  0  0
   -0.3194    4.6734    0.4754 N   0  3  0  0  0  0  0  0  0  0  0  0
    3.8055    7.4272   -3.4582 C   0  0  1  0  0  0  0  0  0  0  0  0
    5.0473    6.8262   -4.1605 C   0  0  0  0  0  0  0  0  0  0  0  0
    5.5942    5.6163   -3.3561 C   0  0  1  0  0  0  0  0  0  0  0  0
    6.7283    5.0060   -4.0759 N   0  3  0  0  0  0  0  0  0  0  0  0
    5.9901    6.0601   -1.9181 C   0  0  1  0  0  0  0  0  0  0  0  0
    4.8160    6.7657   -1.1944 C   0  0  1  0  0  0  0  0  0  0  0  0
    5.3370    7.2725    0.0253 O   0  0  0  0  0  0  0  0  0  0  0  0
    4.1448    7.9179   -2.0125 C   0  0  2  0  0  0  0  0  0  0  0  0
    3.2329    8.5076   -4.2806 N   0  3  0  0  0  0  0  0  0  0  0  0
    6.7426    1.8805   -0.9864 C   0  0  0  0  0  0  0  0  0  0  0  0
    6.4740    1.4922    0.4883 C   0  0  2  0  0  0  0  0  0  0  0  0
    5.3596    0.6011    0.4884 O   0  0  0  0  0  0  0  0  0  0  0  0
    6.1560    2.7899    1.3227 C   0  0  1  0  0  0  0  0  0  0  0  0
    5.0879    3.7085    0.6375 C   0  0  2  0  0  0  0  0  0  0  0  0
    5.3302    3.9115   -0.8797 C   0  0  1  0  0  0  0  0  0  0  0  0
    6.3616    4.9069   -1.1100 O   0  0  0  0  0  0  0  0  0  0  0  0
    5.6376    2.6480   -1.5340 O   0  0  0  0  0  0  0  0  0  0  0  0
    5.0175    4.9852    1.2670 O   0  0  0  0  0  0  0  0  0  0  0  0
    5.7184    2.4099    2.7020 N   0  3  0  0  0  0  0  0  0  0  0  0
    6.6024    2.8030    3.8182 C   0  0  0  0  0  0  0  0  0  0  0  0
    7.6945    0.7028    1.0224 C   0  0  0  0  0  0  0  0  0  0  0  0
  1  8  1  0  0  0  0
  1  9  1  6  0  0  0
  1  2  1  0  0  0  0
  2  3  1  0  0  0  0
  3  5  1  0  0  0  0
  3  4  1  1  0  0  0
  5  7  1  0  0  0  0
  5  6  1  6  0  0  0
  7  8  1  0  0  0  0
  9 10  1  0  0  0  0
 11 12  1  0  0  0  0
 11 18  1  0  0  0  0
 11 19  1  6  0  0  0
 12 13  1  0  0  0  0
 13 15  1  0  0  0  0
 13 14  1  6  0  0  0
 15 16  1  0  0  0  0
 15 26  1  1  0  0  0
 16 18  1  0  0  0  0
 16 17  1  1  0  0  0
 18  4  1  1  0  0  0
 20 21  1  0  0  0  0
 20 27  1  0  0  0  0
 21 31  1  1  0  0  0
 21 23  1  0  0  0  0
 21 22  1  0  0  0  0
 23 24  1  0  0  0  0
 23 29  1  1  0  0  0
 24 25  1  0  0  0  0
 24 28  1  1  0  0  0
 25 27  1  0  0  0  0
 25 26  1  1  0  0  0
 29 30  1  0  0  0  0
M  CHG  5   6   1  10   1  14   1  19   1  29   1
M  END
>  <CHROM.1>
-54.12447356,84.74030374,33.02022073,-159.84106616,-176.09857372,118.72286398
-151.64167707,-62.35584864,64.85340617,167.37222334,-124.61753701,71.76067018
-122.37504974,4.06024859,5.43905612,-0.70340565,2.36305562,0.56968587,-0.86761313

>  <Name>
1byj cryst

>  <RI>
0

>  <Rbt.Current_Directory>
/home/itssahil/PROJECTS/Mol_Feturizer/New_Systems/rnas/1byj

>  <Rbt.Executable>
rbdock ($Id: //depot/dev/client3/rdock/2013.1/src/exe/rbdock.cxx#4 $)

>  <Rbt.Library>
libRbt.so (2013.1, Build901 2013/11/27)

>  <Rbt.Parameter_File>
/export/apps/rDock/src/rDock_2013.1_src/data/scripts/dock_solv.prm

>  <Rbt.Receptor>
prm/pocket_docking_4.prm

>  <SCORE>
-32.4307

>  <SCORE.INTER>
-36.6217

>  <SCORE.INTER.CONST>
1

>  <SCORE.INTER.POLAR>
-6.97515

>  <SCORE.INTER.ROT>
6

>  <SCORE.INTER.SOLV>
19.6321

>  <SCORE.INTER.VDW>
-15.308

>  <SCORE.INTER.norm>
-1.18134

>  <SCORE.INTRA>
4.191

>  <SCORE.INTRA.DIHEDRAL>
5.78

>  <SCORE.INTRA.DIHEDRAL.0>
18.4149

>  <SCORE.INTRA.POLAR>
-0.258288

>  <SCORE.INTRA.POLAR.0>
0

>  <SCORE.INTRA.REPUL>
-0.0810013

>  <SCORE.INTRA.REPUL.0>
0.092687

>  <SCORE.INTRA.SOLV>
2.75076

>  <SCORE.INTRA.SOLV.lig_0>
-120.37

>  <SCORE.INTRA.VDW>
1.20881

>  <SCORE.INTRA.VDW.0>
-1.75542

>  <SCORE.INTRA.norm>
0.135194

>  <SCORE.RESTR>
0

>  <SCORE.RESTR.CAVITY>
0

>  <SCORE.RESTR.norm>
0

>  <SCORE.SYSTEM>
0

>  <SCORE.SYSTEM.CONST>
0

>  <SCORE.SYSTEM.DIHEDRAL>
0

>  <SCORE.SYSTEM.SOLV>
0

>  <SCORE.SYSTEM.norm>
0

>  <SCORE.heavy>
31

>  <SCORE.norm>
-1.04615

>  <RMSD>
7.199

$$$$
1byj cryst
 OpenBabel11021811383D
libRbt.so/2013.1/901 2013/11/27
 31 33  0  0  0  0  0  0  0  0999 V2000
    7.7304    7.5057   -1.2786 C   0  0  1  0  0  0  0  0  0  0  0  0
    6.4972    6.9306   -1.8178 O   0  0  0  0  0  0  0  0  0  0  0  0
    6.1735    7.1602   -3.2218 C   0  0  2  0  0  0  0  0  0  0  0  0
    7.1077    6.4630   -4.1037 O   0  0  0  0  0  0  0  0  0  0  0  0
    6.1735    8.6930   -3.5065 C   0  0  2  0  0  0  0  0  0  0  0  0
    5.8547    9.0247   -4.9091 N   0  3  0  0  0  0  0  0  0  0  0  0
    7.5375    9.3093   -3.1020 C   0  0  0  0  0  0  0  0  0  0  0  0
    7.8620    9.0133   -1.6301 C   0  0  0  0  0  0  0  0  0  0  0  0
    7.7461    7.3380    0.2510 C   0  0  0  0  0  0  0  0  0  0  0  0
    7.9748    5.9565    0.6945 N   0  3  0  0  0  0  0  0  0  0  0  0
    9.2190    5.2459   -4.4664 C   0  0  1  0  0  0  0  0  0  0  0  0
   10.1196    4.0819   -3.9860 C   0  0  0  0  0  0  0  0  0  0  0  0
    9.3263    2.7476   -3.9801 C   0  0  1  0  0  0  0  0  0  0  0  0
   10.2166    1.6356   -3.5957 N   0  3  0  0  0  0  0  0  0  0  0  0
    8.0937    2.8577   -3.0366 C   0  0  1  0  0  0  0  0  0  0  0  0
    7.2020    4.0711   -3.4009 C   0  0  1  0  0  0  0  0  0  0  0  0
    6.2177    4.1714   -2.3825 O   0  0  0  0  0  0  0  0  0  0  0  0
    7.9713    5.4261   -3.5408 C   0  0  2  0  0  0  0  0  0  0  0  0
   10.0073    6.4868   -4.5671 N   0  3  0  0  0  0  0  0  0  0  0  0
    9.3107    1.6191   -0.8771 C   0  0  0  0  0  0  0  0  0  0  0  0
    8.5359    2.0602    0.3888 C   0  0  2  0  0  0  0  0  0  0  0  0
    8.5977    0.9759    1.3143 O   0  0  0  0  0  0  0  0  0  0  0  0
    7.0437    2.3859    0.0034 C   0  0  1  0  0  0  0  0  0  0  0  0
    6.3799    1.2639   -0.8653 C   0  0  2  0  0  0  0  0  0  0  0  0
    7.2879    0.7526   -2.0123 C   0  0  1  0  0  0  0  0  0  0  0  0
    7.2616    1.6671   -3.1396 O   0  0  0  0  0  0  0  0  0  0  0  0
    8.6431    0.5116   -1.5387 O   0  0  0  0  0  0  0  0  0  0  0  0
    5.1402    1.6979   -1.4186 O   0  0  0  0  0  0  0  0  0  0  0  0
    6.2442    2.6362    1.2430 N   0  3  0  0  0  0  0  0  0  0  0  0
    5.0722    3.5264    1.1168 C   0  0  0  0  0  0  0  0  0  0  0  0
    9.2790    3.2570    1.0320 C   0  0  0  0  0  0  0  0  0  0  0  0
  1  8  1  0  0  0  0
  1  9  1  1  0  0  0
  1  2  1  0  0  0  0
  2  3  1  0  0  0  0
  3  5  1  0  0  0  0
  3  4  1  6  0  0  0
  5  7  1  0  0  0  0
  5  6  1  6  0  0  0
  7  8  1  0  0  0  0
  9 10  1  0  0  0  0
 11 12  1  0  0  0  0
 11 18  1  0  0  0  0
 11 19  1  1  0  0  0
 12 13  1  0  0  0  0
 13 15  1  0  0  0  0
 13 14  1  1  0  0  0
 15 16  1  0  0  0  0
 15 26  1  6  0  0  0
 16 18  1  0  0  0  0
 16 17  1  1  0  0  0
 18  4  1  6  0  0  0
 20 21  1  0  0  0  0
 20 27  1  0  0  0  0
 21 31  1  1  0  0  0
 21 23  1  0  0  0  0
 21 22  1  0  0  0  0
 23 24  1  0  0  0  0
 23 29  1  1  0  0  0
 24 25  1  0  0  0  0
 24 28  1  6  0  0  0
 25 27  1  0  0  0  0
 25 26  1  6  0  0  0
 29 30  1  0  0  0  0
M  CHG  5   6   1  10   1  14   1  19   1  29   1
M  END
>  <CHROM.1>
72.36657675,14.62657859,-157.48978705,56.87843239,43.35399938,100.01908183
-77.96889377,107.65589825,67.94789747,73.05716320,-86.45379083,-69.35008744
79.82223935,7.66508106,4.38511678,-1.92682513,1.73803192,1.07982552,-0.54153683

>  <Name>
1byj cryst

>  <RI>
0

>  <Rbt.Current_Directory>
/home/itssahil/PROJECTS/Mol_Feturizer/New_Systems/rnas/1byj

>  <Rbt.Executable>
rbdock ($Id: //depot/dev/client3/rdock/2013.1/src/exe/rbdock.cxx#4 $)

>  <Rbt.Library>
libRbt.so (2013.1, Build901 2013/11/27)

>  <Rbt.Parameter_File>
/export/apps/rDock/src/rDock_2013.1_src/data/scripts/dock_solv.prm

>  <Rbt.Receptor>
prm/blind_docking_60.prm

>  <SCORE>
-16.9701

>  <SCORE.INTER>
-28.7505

>  <SCORE.INTER.CONST>
1

>  <SCORE.INTER.POLAR>
-4.25884

>  <SCORE.INTER.ROT>
6

>  <SCORE.INTER.SOLV>
26.3577

>  <SCORE.INTER.VDW>
-21.3568

>  <SCORE.INTER.norm>
-0.927437

>  <SCORE.INTRA>
6.32771

>  <SCORE.INTRA.DIHEDRAL>
6.34199

>  <SCORE.INTRA.DIHEDRAL.0>
18.4149

>  <SCORE.INTRA.POLAR>
-0.36333

>  <SCORE.INTRA.POLAR.0>
0

>  <SCORE.INTRA.REPUL>
-0.092687

>  <SCORE.INTRA.REPUL.0>
0.092687

>  <SCORE.INTRA.SOLV>
7.5178

>  <SCORE.INTRA.SOLV.lig_0>
-120.37

>  <SCORE.INTRA.VDW>
1.09657

>  <SCORE.INTRA.VDW.0>
-1.75542

>  <SCORE.INTRA.norm>
0.20412

>  <SCORE.RESTR>
5.45273

>  <SCORE.RESTR.CAVITY>
5.45273

>  <SCORE.RESTR.norm>
0.175894

>  <SCORE.SYSTEM>
0

>  <SCORE.SYSTEM.CONST>
0

>  <SCORE.SYSTEM.DIHEDRAL>
0

>  <SCORE.SYSTEM.SOLV>
0

>  <SCORE.SYSTEM.norm>
0

>  <SCORE.heavy>
31

>  <SCORE.norm>
-0.547423

>  <RMSD>
7.202

$$$$
1byj cryst
 OpenBabel11021811383D
libRbt.so/2013.1/901 2013/11/27
 31 33  0  0  0  0  0  0  0  0999 V2000
    0.7266    1.8547    1.3454 C   0  0  1  0  0  0  0  0  0  0  0  0
    1.2888    3.0879    0.7928 O   0  0  0  0  0  0  0  0  0  0  0  0
    1.6814    4.1511    1.7115 C   0  0  2  0  0  0  0  0  0  0  0  0
    2.8388    3.7597    2.5141 O   0  0  0  0  0  0  0  0  0  0  0  0
    0.4697    4.5204    2.6202 C   0  0  2  0  0  0  0  0  0  0  0  0
    0.7731    5.5931    3.5879 N   0  3  0  0  0  0  0  0  0  0  0  0
   -0.0469    3.2580    3.3573 C   0  0  0  0  0  0  0  0  0  0  0  0
   -0.4124    2.1479    2.3605 C   0  0  0  0  0  0  0  0  0  0  0  0
    0.1752    0.9867    0.2006 C   0  0  0  0  0  0  0  0  0  0  0  0
    1.1037   -0.0568   -0.2535 N   0  3  0  0  0  0  0  0  0  0  0  0
    5.2243    3.2545    2.8667 C   0  0  1  0  0  0  0  0  0  0  0  0
    6.5664    2.8928    2.1849 C   0  0  0  0  0  0  0  0  0  0  0  0
    6.9270    3.9452    1.1022 C   0  0  1  0  0  0  0  0  0  0  0  0
    8.2440    3.6315    0.5158 N   0  3  0  0  0  0  0  0  0  0  0  0
    5.8100    4.0099    0.0206 C   0  0  1  0  0  0  0  0  0  0  0  0
    4.4185    4.2672    0.6511 C   0  0  1  0  0  0  0  0  0  0  0  0
    3.4683    4.1362   -0.3958 O   0  0  0  0  0  0  0  0  0  0  0  0
    4.0520    3.3101    1.8330 C   0  0  2  0  0  0  0  0  0  0  0  0
    4.9422    2.3091    3.9612 N   0  3  0  0  0  0  0  0  0  0  0  0
    5.7056    7.3531   -2.9393 C   0  0  0  0  0  0  0  0  0  0  0  0
    6.6206    6.9844   -4.1327 C   0  0  2  0  0  0  0  0  0  0  0  0
    5.7770    6.8336   -5.2737 O   0  0  0  0  0  0  0  0  0  0  0  0
    7.3816    5.6423   -3.8150 C   0  0  1  0  0  0  0  0  0  0  0  0
    6.4318    4.5130   -3.2892 C   0  0  2  0  0  0  0  0  0  0  0  0
    5.4268    5.0016   -2.2154 C   0  0  1  0  0  0  0  0  0  0  0  0
    6.0650    5.0965   -0.9149 O   0  0  0  0  0  0  0  0  0  0  0  0
    4.8086    6.2587   -2.6111 O   0  0  0  0  0  0  0  0  0  0  0  0
    7.1705    3.4142   -2.7616 O   0  0  0  0  0  0  0  0  0  0  0  0
    8.1259    5.1833   -5.0289 N   0  3  0  0  0  0  0  0  0  0  0  0
    9.2804    4.2883   -4.8092 C   0  0  0  0  0  0  0  0  0  0  0  0
    7.5689    8.1755   -4.4158 C   0  0  0  0  0  0  0  0  0  0  0  0
  1  8  1  0  0  0  0
  1  9  1  6  0  0  0
  1  2  1  0  0  0  0
  2  3  1  0  0  0  0
  3  5  1  0  0  0  0
  3  4  1  1  0  0  0
  5  7  1  0  0  0  0
  5  6  1  1  0  0  0
  7  8  1  0  0  0  0
  9 10  1  0  0  0  0
 11 12  1  0  0  0  0
 11 18  1  0  0  0  0
 11 19  1  1  0  0  0
 12 13  1  0  0  0  0
 13 15  1  0  0  0  0
 13 14  1  6  0  0  0
 15 16  1  0  0  0  0
 15 26  1  6  0  0  0
 16 18  1  0  0  0  0
 16 17  1  6  0  0  0
 18  4  1  1  0  0  0
 20 21  1  0  0  0  0
 20 27  1  0  0  0  0
 21 31  1  6  0  0  0
 21 23  1  0  0  0  0
 21 22  1  0  0  0  0
 23 24  1  0  0  0  0
 23 29  1  6  0  0  0
 24 25  1  0  0  0  0
 24 28  1  1  0  0  0
 25 27  1  0  0  0  0
 25 26  1  1  0  0  0
 29 30  1  0  0  0  0
M  CHG  5   6   1  10   1  14   1  19   1  29   1
M  END
>  <CHROM.1>
96.97779307,54.80681721,167.67352052,-172.83528550,-160.83548856,-169.66115706
62.70791349,158.37559054,71.56512386,57.72274392,-82.20664712,-69.03243738
-101.27257000,4.48784800,4.17279062,-0.38490915,2.28493900,0.00213565,2.01563851

>  <Name>
1byj cryst

>  <RI>
0

>  <Rbt.Current_Directory>
/home/itssahil/PROJECTS/Mol_Feturizer/New_Systems/rnas/1byj

>  <Rbt.Executable>
rbdock ($Id: //depot/dev/client3/rdock/2013.1/src/exe/rbdock.cxx#4 $)

>  <Rbt.Library>
libRbt.so (2013.1, Build901 2013/11/27)

>  <Rbt.Parameter_File>
/export/apps/rDock/src/rDock_2013.1_src/data/scripts/dock_solv.prm

>  <Rbt.Receptor>
prm/pocket_docking_6.prm

>  <SCORE>
-31.9735

>  <SCORE.INTER>
-28.866

>  <SCORE.INTER.CONST>
1

>  <SCORE.INTER.POLAR>
-6.00974

>  <SCORE.INTER.ROT>
6

>  <SCORE.INTER.SOLV>
15.6643

>  <SCORE.INTER.VDW>
-12.0329

>  <SCORE.INTER.norm>
-0.931161

>  <SCORE.INTRA>
-3.10749

>  <SCORE.INTRA.DIHEDRAL>
-2.61606

>  <SCORE.INTRA.DIHEDRAL.0>
18.4149

>  <SCORE.INTRA.POLAR>
-0.00310277

>  <SCORE.INTRA.POLAR.0>
0

>  <SCORE.INTRA.REPUL>
-0.092687

>  <SCORE.INTRA.REPUL.0>
0.092687

>  <SCORE.INTRA.SOLV>
-4.05059

>  <SCORE.INTRA.SOLV.lig_0>
-120.37

>  <SCORE.INTRA.VDW>
0.699818

>  <SCORE.INTRA.VDW.0>
-1.75542

>  <SCORE.INTRA.norm>
-0.100242

>  <SCORE.RESTR>
0

>  <SCORE.RESTR.CAVITY>
0

>  <SCORE.RESTR.norm>
0

>  <SCORE.SYSTEM>
0

>  <SCORE.SYSTEM.CONST>
0

>  <SCORE.SYSTEM.DIHEDRAL>
0

>  <SCORE.SYSTEM.SOLV>
0

>  <SCORE.SYSTEM.norm>
0

>  <SCORE.heavy>
31

>  <SCORE.norm>
-1.0314

>  <RMSD>
7.228

$$$$
1byj cryst
 OpenBabel11021811383D
libRbt.so/2013.1/901 2013/11/27
 31 33  0  0  0  0  0  0  0  0999 V2000
    5.0503    4.3286   -3.1309 C   0  0  1  0  0  0  0  0  0  0  0  0
    5.7769    4.6238   -4.3666 O   0  0  0  0  0  0  0  0  0  0  0  0
    6.4361    5.9187   -4.4984 C   0  0  2  0  0  0  0  0  0  0  0  0
    7.5688    6.0344   -3.5817 O   0  0  0  0  0  0  0  0  0  0  0  0
    5.3967    7.0536   -4.2495 C   0  0  2  0  0  0  0  0  0  0  0  0
    5.9745    8.4073   -4.3620 N   0  3  0  0  0  0  0  0  0  0  0  0
    4.7256    6.8661   -2.8644 C   0  0  0  0  0  0  0  0  0  0  0  0
    4.0775    5.4782   -2.7487 C   0  0  0  0  0  0  0  0  0  0  0  0
    4.2512    3.0253   -3.3070 C   0  0  0  0  0  0  0  0  0  0  0  0
    3.8813    2.3800   -2.0405 N   0  3  0  0  0  0  0  0  0  0  0  0
    8.8799    4.2685   -4.6921 C   0  0  1  0  0  0  0  0  0  0  0  0
    9.6681    2.9505   -4.4966 C   0  0  0  0  0  0  0  0  0  0  0  0
    8.7798    1.8839   -3.8015 C   0  0  1  0  0  0  0  0  0  0  0  0
    9.5167    0.6104   -3.6921 N   0  3  0  0  0  0  0  0  0  0  0  0
    8.3039    2.4009   -2.4130 C   0  0  1  0  0  0  0  0  0  0  0  0
    7.5951    3.7737   -2.5268 C   0  0  1  0  0  0  0  0  0  0  0  0
    7.3615    4.2209   -1.1996 O   0  0  0  0  0  0  0  0  0  0  0  0
    8.3946    4.8552   -3.3260 C   0  0  2  0  0  0  0  0  0  0  0  0
    9.6956    5.2388   -5.4435 N   0  3  0  0  0  0  0  0  0  0  0  0
    9.0569    2.6177    0.4379 C   0  0  0  0  0  0  0  0  0  0  0  0
    8.1113    2.7125    1.6603 C   0  0  2  0  0  0  0  0  0  0  0  0
    8.6593    1.8747    2.6771 O   0  0  0  0  0  0  0  0  0  0  0  0
    6.6707    2.2267    1.2478 C   0  0  1  0  0  0  0  0  0  0  0  0
    6.6845    0.8609    0.4806 C   0  0  2  0  0  0  0  0  0  0  0  0
    7.7754    0.7804   -0.6173 C   0  0  1  0  0  0  0  0  0  0  0  0
    7.3506    1.4734   -1.8202 O   0  0  0  0  0  0  0  0  0  0  0  0
    9.0513    1.2783   -0.1243 O   0  0  0  0  0  0  0  0  0  0  0  0
    5.4173    0.5812   -0.1086 O   0  0  0  0  0  0  0  0  0  0  0  0
    5.7988    2.1420    2.4607 N   0  3  0  0  0  0  0  0  0  0  0  0
    4.3386    2.1398    2.2381 C   0  0  0  0  0  0  0  0  0  0  0  0
    8.1392    4.1650    2.1963 C   0  0  0  0  0  0  0  0  0  0  0  0
  1  8  1  0  0  0  0
  1  9  1  6  0  0  0
  1  2  1  0  0  0  0
  2  3  1  0  0  0  0
  3  5  1  0  0  0  0
  3  4  1  1  0  0  0
  5  7  1  0  0  0  0
  5  6  1  1  0  0  0
  7  8  1  0  0  0  0
  9 10  1  0  0  0  0
 11 12  1  0  0  0  0
 11 18  1  0  0  0  0
 11 19  1  1  0  0  0
 12 13  1  0  0  0  0
 13 15  1  0  0  0  0
 13 14  1  1  0  0  0
 15 16  1  0  0  0  0
 15 26  1  6  0  0  0
 16 18  1  0  0  0  0
 16 17  1  1  0  0  0
 18  4  1  6  0  0  0
 20 21  1  0  0  0  0
 20 27  1  0  0  0  0
 21 31  1  1  0  0  0
 21 23  1  0  0  0  0
 21 22  1  0  0  0  0
 23 24  1  0  0  0  0
 23 29  1  1  0  0  0
 24 25  1  0  0  0  0
 24 28  1  6  0  0  0
 25 27  1  0  0  0  0
 25 26  1  6  0  0  0
 29 30  1  0  0  0  0
M  CHG  5   6   1  10   1  14   1  19   1  29   1
M  END
>  <CHROM.1>
159.37162642,36.88211417,53.34372022,-51.30180289,168.97744674,39.54095937
57.99770202,113.47368669,75.34386766,-173.46081747,-78.41568263,-173.28266432
131.76868607,7.04434812,3.44419878,-1.78582895,1.63642223,0.54244437,-0.97003390

>  <Name>
1byj cryst

>  <RI>
0

>  <Rbt.Current_Directory>
/home/itssahil/PROJECTS/Mol_Feturizer/New_Systems/rnas/1byj

>  <Rbt.Executable>
rbdock ($Id: //depot/dev/client3/rdock/2013.1/src/exe/rbdock.cxx#4 $)

>  <Rbt.Library>
libRbt.so (2013.1, Build901 2013/11/27)

>  <Rbt.Parameter_File>
/export/apps/rDock/src/rDock_2013.1_src/data/scripts/dock_solv.prm

>  <Rbt.Receptor>
prm/blind_docking_60.prm

>  <SCORE>
-16.3611

>  <SCORE.INTER>
-25.2752

>  <SCORE.INTER.CONST>
1

>  <SCORE.INTER.POLAR>
-3.84399

>  <SCORE.INTER.ROT>
6

>  <SCORE.INTER.SOLV>
28.1625

>  <SCORE.INTER.VDW>
-21.0243

>  <SCORE.INTER.norm>
-0.815328

>  <SCORE.INTRA>
0.68281

>  <SCORE.INTRA.DIHEDRAL>
3.15181

>  <SCORE.INTRA.DIHEDRAL.0>
18.4149

>  <SCORE.INTRA.POLAR>
-0.951769

>  <SCORE.INTRA.POLAR.0>
0

>  <SCORE.INTRA.REPUL>
-0.092687

>  <SCORE.INTRA.REPUL.0>
0.092687

>  <SCORE.INTRA.SOLV>
2.7981

>  <SCORE.INTRA.SOLV.lig_0>
-120.37

>  <SCORE.INTRA.VDW>
1.40731

>  <SCORE.INTRA.VDW.0>
-1.75542

>  <SCORE.INTRA.norm>
0.0220261

>  <SCORE.RESTR>
8.23123

>  <SCORE.RESTR.CAVITY>
8.23123

>  <SCORE.RESTR.norm>
0.265524

>  <SCORE.SYSTEM>
0

>  <SCORE.SYSTEM.CONST>
0

>  <SCORE.SYSTEM.DIHEDRAL>
0

>  <SCORE.SYSTEM.SOLV>
0

>  <SCORE.SYSTEM.norm>
0

>  <SCORE.heavy>
31

>  <SCORE.norm>
-0.527778

>  <RMSD>
7.229

$$$$
1byj cryst
 OpenBabel11021811383D
libRbt.so/2013.1/901 2013/11/27
 31 33  0  0  0  0  0  0  0  0999 V2000
    3.1670    5.4143    0.7941 C   0  0  1  0  0  0  0  0  0  0  0  0
    3.4163    5.1367   -0.6211 O   0  0  0  0  0  0  0  0  0  0  0  0
    2.8328    6.0239   -1.6216 C   0  0  2  0  0  0  0  0  0  0  0  0
    3.4466    7.3499   -1.5789 O   0  0  0  0  0  0  0  0  0  0  0  0
    1.2928    6.1128   -1.3960 C   0  0  2  0  0  0  0  0  0  0  0  0
    0.6121    6.9930   -2.3659 N   0  3  0  0  0  0  0  0  0  0  0  0
    0.9932    6.5728    0.0541 C   0  0  0  0  0  0  0  0  0  0  0  0
    1.6560    5.6383    1.0774 C   0  0  0  0  0  0  0  0  0  0  0  0
    3.6731    4.2348    1.6431 C   0  0  0  0  0  0  0  0  0  0  0  0
    5.1339    4.1922    1.7894 N   0  3  0  0  0  0  0  0  0  0  0  0
    4.8018    7.5952   -3.6219 C   0  0  1  0  0  0  0  0  0  0  0  0
    6.2356    7.6527   -4.2027 C   0  0  0  0  0  0  0  0  0  0  0  0
    7.0377    6.3872   -3.7967 C   0  0  1  0  0  0  0  0  0  0  0  0
    8.3743    6.4180   -4.4206 N   0  3  0  0  0  0  0  0  0  0  0  0
    7.1225    6.2772   -2.2468 C   0  0  1  0  0  0  0  0  0  0  0  0
    5.7184    6.3189   -1.5934 C   0  0  1  0  0  0  0  0  0  0  0  0
    5.9256    6.3844   -0.1903 O   0  0  0  0  0  0  0  0  0  0  0  0
    4.8179    7.5100   -2.0603 C   0  0  2  0  0  0  0  0  0  0  0  0
    4.0170    8.7484   -4.0971 N   0  3  0  0  0  0  0  0  0  0  0  0
    8.9531    3.0204   -3.8198 C   0  0  0  0  0  0  0  0  0  0  0  0
    9.1994    1.7322   -2.9967 C   0  0  2  0  0  0  0  0  0  0  0  0
    8.4120    0.7010   -3.5908 O   0  0  0  0  0  0  0  0  0  0  0  0
    8.7703    1.9757   -1.5008 C   0  0  1  0  0  0  0  0  0  0  0  0
    7.3506    2.6252   -1.3720 C   0  0  2  0  0  0  0  0  0  0  0  0
    7.1194    3.8036   -2.3517 C   0  0  1  0  0  0  0  0  0  0  0  0
    7.7408    5.0182   -1.8555 O   0  0  0  0  0  0  0  0  0  0  0  0
    7.5768    3.4668   -3.6920 O   0  0  0  0  0  0  0  0  0  0  0  0
    7.1024    3.0765   -0.0431 O   0  0  0  0  0  0  0  0  0  0  0  0
    8.8330    0.6886   -0.7406 N   0  3  0  0  0  0  0  0  0  0  0  0
    8.5457    0.7500    0.7070 C   0  0  0  0  0  0  0  0  0  0  0  0
   10.6851    1.3231   -3.1504 C   0  0  0  0  0  0  0  0  0  0  0  0
  1  8  1  0  0  0  0
  1  9  1  1  0  0  0
  1  2  1  0  0  0  0
  2  3  1  0  0  0  0
  3  5  1  0  0  0  0
  3  4  1  1  0  0  0
  5  7  1  0  0  0  0
  5  6  1  6  0  0  0
  7  8  1  0  0  0  0
  9 10  1  0  0  0  0
 11 12  1  0  0  0  0
 11 18  1  0  0  0  0
 11 19  1  1  0  0  0
 12 13  1  0  0  0  0
 13 15  1  0  0  0  0
 13 14  1  6  0  0  0
 15 16  1  0  0  0  0
 15 26  1  6  0  0  0
 16 18  1  0  0  0  0
 16 17  1  1  0  0  0
 18  4  1  6  0  0  0
 20 21  1  0  0  0  0
 20 27  1  0  0  0  0
 21 31  1  6  0  0  0
 21 23  1  0  0  0  0
 21 22  1  0  0  0  0
 23 24  1  0  0  0  0
 23 29  1  1  0  0  0
 24 25  1  0  0  0  0
 24 28  1  1  0  0  0
 25 27  1  0  0  0  0
 25 26  1  1  0  0  0
 29 30  1  0  0  0  0
M  CHG  5   6   1  10   1  14   1  19   1  29   1
M  END
>  <CHROM.1>
75.72120050,71.51424488,80.17908076,172.28543601,9.97049880,177.60342769
-49.57960760,-56.37671033,58.38637756,-58.06399258,-62.79533221,64.18809395
-151.06366376,5.83877397,4.80525363,-1.70233082,2.80470495,0.58189659,-0.79706120

>  <Name>
1byj cryst

>  <RI>
0

>  <Rbt.Current_Directory>
/home/itssahil/PROJECTS/Mol_Feturizer/New_Systems/rnas/1byj

>  <Rbt.Executable>
rbdock ($Id: //depot/dev/client3/rdock/2013.1/src/exe/rbdock.cxx#4 $)

>  <Rbt.Library>
libRbt.so (2013.1, Build901 2013/11/27)

>  <Rbt.Parameter_File>
/export/apps/rDock/src/rDock_2013.1_src/data/scripts/dock_solv.prm

>  <Rbt.Receptor>
prm/pocket_docking_4.prm

>  <SCORE>
-31.58

>  <SCORE.INTER>
-21.678

>  <SCORE.INTER.CONST>
1

>  <SCORE.INTER.POLAR>
-2.82484

>  <SCORE.INTER.ROT>
6

>  <SCORE.INTER.SOLV>
20.9469

>  <SCORE.INTER.VDW>
-19.6182

>  <SCORE.INTER.norm>
-0.699291

>  <SCORE.INTRA>
-9.90199

>  <SCORE.INTRA.DIHEDRAL>
-7.33454

>  <SCORE.INTRA.DIHEDRAL.0>
18.4149

>  <SCORE.INTRA.POLAR>
-2.02628

>  <SCORE.INTRA.POLAR.0>
0

>  <SCORE.INTRA.REPUL>
-0.092687

>  <SCORE.INTRA.REPUL.0>
0.092687

>  <SCORE.INTRA.SOLV>
3.75414

>  <SCORE.INTRA.SOLV.lig_0>
-120.37

>  <SCORE.INTRA.VDW>
-0.758992

>  <SCORE.INTRA.VDW.0>
-1.75542

>  <SCORE.INTRA.norm>
-0.319419

>  <SCORE.RESTR>
0

>  <SCORE.RESTR.CAVITY>
0

>  <SCORE.RESTR.norm>
0

>  <SCORE.SYSTEM>
0

>  <SCORE.SYSTEM.CONST>
0

>  <SCORE.SYSTEM.DIHEDRAL>
0

>  <SCORE.SYSTEM.SOLV>
0

>  <SCORE.SYSTEM.norm>
0

>  <SCORE.heavy>
31

>  <SCORE.norm>
-1.01871

>  <RMSD>
7.291

$$$$
1byj cryst
 OpenBabel11021811383D
libRbt.so/2013.1/901 2013/11/27
 31 33  0  0  0  0  0  0  0  0999 V2000
    4.5184    7.6426   -2.1175 C   0  0  1  0  0  0  0  0  0  0  0  0
    5.2515    7.2565   -3.3240 O   0  0  0  0  0  0  0  0  0  0  0  0
    6.4298    8.0284   -3.7039 C   0  0  2  0  0  0  0  0  0  0  0  0
    7.5213    7.8362   -2.7508 O   0  0  0  0  0  0  0  0  0  0  0  0
    6.0445    9.5348   -3.8168 C   0  0  2  0  0  0  0  0  0  0  0  0
    7.1788   10.3990   -4.1986 N   0  3  0  0  0  0  0  0  0  0  0  0
    5.4162   10.0244   -2.4866 C   0  0  0  0  0  0  0  0  0  0  0  0
    4.2040    9.1640   -2.0994 C   0  0  0  0  0  0  0  0  0  0  0  0
    3.2006    6.8513   -2.0452 C   0  0  0  0  0  0  0  0  0  0  0  0
    3.3786    5.4301   -1.7199 N   0  3  0  0  0  0  0  0  0  0  0  0
    8.9690    6.4578   -4.1911 C   0  0  1  0  0  0  0  0  0  0  0  0
    9.7022    5.1025   -4.3398 C   0  0  0  0  0  0  0  0  0  0  0  0
    8.7046    3.9242   -4.1781 C   0  0  1  0  0  0  0  0  0  0  0  0
    9.4011    2.6424   -4.3992 N   0  3  0  0  0  0  0  0  0  0  0  0
    8.0246    3.9820   -2.7796 C   0  0  1  0  0  0  0  0  0  0  0  0
    7.3577    5.3570   -2.5251 C   0  0  1  0  0  0  0  0  0  0  0  0
    6.9257    5.3542   -1.1725 O   0  0  0  0  0  0  0  0  0  0  0  0
    8.2839    6.5893   -2.7913 C   0  0  2  0  0  0  0  0  0  0  0  0
    9.9025    7.5686   -4.4480 N   0  3  0  0  0  0  0  0  0  0  0  0
    8.4089    2.2114   -0.0872 C   0  0  0  0  0  0  0  0  0  0  0  0
    7.3818    1.3803    0.7202 C   0  0  2  0  0  0  0  0  0  0  0  0
    7.9477    0.0834    0.9045 O   0  0  0  0  0  0  0  0  0  0  0  0
    6.0294    1.2945   -0.0828 C   0  0  1  0  0  0  0  0  0  0  0  0
    6.2350    0.8848   -1.5808 C   0  0  2  0  0  0  0  0  0  0  0  0
    7.3967    1.6411   -2.2739 C   0  0  1  0  0  0  0  0  0  0  0  0
    6.9802    2.9726   -2.6755 O   0  0  0  0  0  0  0  0  0  0  0  0
    8.5793    1.6736   -1.4257 O   0  0  0  0  0  0  0  0  0  0  0  0
    5.0445    1.0741   -2.3411 O   0  0  0  0  0  0  0  0  0  0  0  0
    5.0948    0.3465    0.6002 N   0  3  0  0  0  0  0  0  0  0  0  0
    3.6496    0.6285    0.4831 C   0  0  0  0  0  0  0  0  0  0  0  0
    7.2234    2.0168    2.1231 C   0  0  0  0  0  0  0  0  0  0  0  0
  1  8  1  0  0  0  0
  1  9  1  6  0  0  0
  1  2  1  0  0  0  0
  2  3  1  0  0  0  0
  3  5  1  0  0  0  0
  3  4  1  1  0  0  0
  5  7  1  0  0  0  0
  5  6  1  1  0  0  0
  7  8  1  0  0  0  0
  9 10  1  0  0  0  0
 11 12  1  0  0  0  0
 11 18  1  0  0  0  0
 11 19  1  1  0  0  0
 12 13  1  0  0  0  0
 13 15  1  0  0  0  0
 13 14  1  1  0  0  0
 15 16  1  0  0  0  0
 15 26  1  6  0  0  0
 16 18  1  0  0  0  0
 16 17  1  1  0  0  0
 18  4  1  6  0  0  0
 20 21  1  0  0  0  0
 20 27  1  0  0  0  0
 21 31  1  1  0  0  0
 21 23  1  0  0  0  0
 21 22  1  0  0  0  0
 23 24  1  0  0  0  0
 23 29  1  1  0  0  0
 24 25  1  0  0  0  0
 24 28  1  6  0  0  0
 25 27  1  0  0  0  0
 25 26  1  1  0  0  0
 29 30  1  0  0  0  0
M  CHG  5   6   1  10   1  14   1  19   1  29   1
M  END
>  <CHROM.1>
71.93019799,75.90828356,60.89915562,-47.85915890,-44.79614020,-174.97216105
-128.01609944,85.26027777,-53.92335984,-30.39123580,-90.22246819,78.33335591
153.61233685,6.78851325,4.66078443,-2.08540224,1.57931984,0.46360236,-0.40183682

>  <Name>
1byj cryst

>  <RI>
0

>  <Rbt.Current_Directory>
/home/itssahil/PROJECTS/Mol_Feturizer/New_Systems/rnas/1byj

>  <Rbt.Executable>
rbdock ($Id: //depot/dev/client3/rdock/2013.1/src/exe/rbdock.cxx#4 $)

>  <Rbt.Library>
libRbt.so (2013.1, Build901 2013/11/27)

>  <Rbt.Parameter_File>
/export/apps/rDock/src/rDock_2013.1_src/data/scripts/dock_solv.prm

>  <Rbt.Receptor>
prm/pocket_docking_5.prm

>  <SCORE>
-38.2181

>  <SCORE.INTER>
-35.9097

>  <SCORE.INTER.CONST>
1

>  <SCORE.INTER.POLAR>
-6.54923

>  <SCORE.INTER.ROT>
6

>  <SCORE.INTER.SOLV>
29.2346

>  <SCORE.INTER.VDW>
-19.4539

>  <SCORE.INTER.norm>
-1.15838

>  <SCORE.INTRA>
-2.30847

>  <SCORE.INTRA.DIHEDRAL>
0.857593

>  <SCORE.INTRA.DIHEDRAL.0>
18.4149

>  <SCORE.INTRA.POLAR>
-0.762421

>  <SCORE.INTRA.POLAR.0>
0

>  <SCORE.INTRA.REPUL>
-0.092687

>  <SCORE.INTRA.REPUL.0>
0.092687

>  <SCORE.INTRA.SOLV>
1.08352

>  <SCORE.INTRA.SOLV.lig_0>
-120.37

>  <SCORE.INTRA.VDW>
-0.223358

>  <SCORE.INTRA.VDW.0>
-1.75542

>  <SCORE.INTRA.norm>
-0.0744667

>  <SCORE.RESTR>
0

>  <SCORE.RESTR.CAVITY>
0

>  <SCORE.RESTR.norm>
0

>  <SCORE.SYSTEM>
0

>  <SCORE.SYSTEM.CONST>
0

>  <SCORE.SYSTEM.DIHEDRAL>
0

>  <SCORE.SYSTEM.SOLV>
0

>  <SCORE.SYSTEM.norm>
0

>  <SCORE.heavy>
31

>  <SCORE.norm>
-1.23284

>  <RMSD>
7.320

$$$$
1byj cryst
 OpenBabel11021811383D
libRbt.so/2013.1/901 2013/11/27
 31 33  0  0  0  0  0  0  0  0999 V2000
    7.7552    6.9058   -1.6984 C   0  0  1  0  0  0  0  0  0  0  0  0
    6.4022    6.5142   -2.0961 O   0  0  0  0  0  0  0  0  0  0  0  0
    6.0456    6.5668   -3.5099 C   0  0  2  0  0  0  0  0  0  0  0  0
    6.7681    5.5547   -4.2783 O   0  0  0  0  0  0  0  0  0  0  0  0
    6.3316    7.9970   -4.0606 C   0  0  2  0  0  0  0  0  0  0  0  0
    6.0002    8.1472   -5.4912 N   0  3  0  0  0  0  0  0  0  0  0  0
    7.8126    8.3788   -3.8060 C   0  0  0  0  0  0  0  0  0  0  0  0
    8.1609    8.2735   -2.3137 C   0  0  0  0  0  0  0  0  0  0  0  0
    7.8304    6.9973   -0.1641 C   0  0  0  0  0  0  0  0  0  0  0  0
    6.8138    6.1951    0.5290 N   0  3  0  0  0  0  0  0  0  0  0  0
    8.6683    4.0270   -4.6325 C   0  0  1  0  0  0  0  0  0  0  0  0
    9.6178    2.9973   -3.9730 C   0  0  0  0  0  0  0  0  0  0  0  0
    8.8031    1.8620   -3.2968 C   0  0  1  0  0  0  0  0  0  0  0  0
    9.7200    0.8486   -2.7407 N   0  3  0  0  0  0  0  0  0  0  0  0
    7.8592    2.4507   -2.2087 C   0  0  1  0  0  0  0  0  0  0  0  0
    6.9499    3.5655   -2.7837 C   0  0  1  0  0  0  0  0  0  0  0  0
    6.2645    4.1393   -1.6805 O   0  0  0  0  0  0  0  0  0  0  0  0
    7.7078    4.6765   -3.5830 C   0  0  2  0  0  0  0  0  0  0  0  0
    9.4502    5.0432   -5.3586 N   0  3  0  0  0  0  0  0  0  0  0  0
    8.9406    2.4168    0.4446 C   0  0  0  0  0  0  0  0  0  0  0  0
    8.1121    2.5305    1.7477 C   0  0  2  0  0  0  0  0  0  0  0  0
    8.7017    1.6415    2.6954 O   0  0  0  0  0  0  0  0  0  0  0  0
    6.6171    2.1293    1.4554 C   0  0  1  0  0  0  0  0  0  0  0  0
    6.4910    0.7835    0.6636 C   0  0  2  0  0  0  0  0  0  0  0  0
    7.4756    0.6735   -0.5281 C   0  0  1  0  0  0  0  0  0  0  0  0
    6.9845    1.4161   -1.6749 O   0  0  0  0  0  0  0  0  0  0  0  0
    8.8145    1.0934   -0.1408 O   0  0  0  0  0  0  0  0  0  0  0  0
    5.1639    0.5833    0.1839 O   0  0  0  0  0  0  0  0  0  0  0  0
    5.8516    2.0603    2.7390 N   0  3  0  0  0  0  0  0  0  0  0  0
    4.3945    2.2913    2.6642 C   0  0  0  0  0  0  0  0  0  0  0  0
    8.2641    3.9665    2.3072 C   0  0  0  0  0  0  0  0  0  0  0  0
  1  8  1  0  0  0  0
  1  9  1  1  0  0  0
  1  2  1  0  0  0  0
  2  3  1  0  0  0  0
  3  5  1  0  0  0  0
  3  4  1  6  0  0  0
  5  7  1  0  0  0  0
  5  6  1  6  0  0  0
  7  8  1  0  0  0  0
  9 10  1  0  0  0  0
 11 12  1  0  0  0  0
 11 18  1  0  0  0  0
 11 19  1  1  0  0  0
 12 13  1  0  0  0  0
 13 15  1  0  0  0  0
 13 14  1  1  0  0  0
 15 16  1  0  0  0  0
 15 26  1  6  0  0  0
 16 18  1  0  0  0  0
 16 17  1  1  0  0  0
 18  4  1  6  0  0  0
 20 21  1  0  0  0  0
 20 27  1  0  0  0  0
 21 31  1  1  0  0  0
 21 23  1  0  0  0  0
 21 22  1  0  0  0  0
 23 24  1  0  0  0  0
 23 29  1  1  0  0  0
 24 25  1  0  0  0  0
 24 28  1  6  0  0  0
 25 27  1  0  0  0  0
 25 26  1  6  0  0  0
 29 30  1  0  0  0  0
M  CHG  5   6   1  10   1  14   1  19   1  29   1
M  END
>  <CHROM.1>
23.38505635,-0.45804108,-161.86658351,-48.63927221,-78.73061642,50.59761382
-19.70112081,89.68061935,-176.99907008,-173.11479181,-85.15148037,67.07871799
122.86654566,7.42728120,3.94631352,-1.42052372,1.49186270,1.13510130,-0.71400553

>  <Name>
1byj cryst

>  <RI>
0

>  <Rbt.Current_Directory>
/home/itssahil/PROJECTS/Mol_Feturizer/New_Systems/rnas/1byj

>  <Rbt.Executable>
rbdock ($Id: //depot/dev/client3/rdock/2013.1/src/exe/rbdock.cxx#4 $)

>  <Rbt.Library>
libRbt.so (2013.1, Build901 2013/11/27)

>  <Rbt.Parameter_File>
/export/apps/rDock/src/rDock_2013.1_src/data/scripts/dock_solv.prm

>  <Rbt.Receptor>
prm/blind_docking_60.prm

>  <SCORE>
-18.6019

>  <SCORE.INTER>
-24.6307

>  <SCORE.INTER.CONST>
1

>  <SCORE.INTER.POLAR>
-3.65735

>  <SCORE.INTER.ROT>
6

>  <SCORE.INTER.SOLV>
29.4829

>  <SCORE.INTER.VDW>
-21.6569

>  <SCORE.INTER.norm>
-0.794539

>  <SCORE.INTRA>
1.08724

>  <SCORE.INTRA.DIHEDRAL>
10.7881

>  <SCORE.INTRA.DIHEDRAL.0>
18.4149

>  <SCORE.INTRA.POLAR>
-2.43665

>  <SCORE.INTRA.POLAR.0>
0

>  <SCORE.INTRA.REPUL>
-0.092687

>  <SCORE.INTRA.REPUL.0>
0.092687

>  <SCORE.INTRA.SOLV>
5.80819

>  <SCORE.INTRA.SOLV.lig_0>
-120.37

>  <SCORE.INTRA.VDW>
1.53712

>  <SCORE.INTRA.VDW.0>
-1.75542

>  <SCORE.INTRA.norm>
0.0350722

>  <SCORE.RESTR>
4.94154

>  <SCORE.RESTR.CAVITY>
4.94154

>  <SCORE.RESTR.norm>
0.159405

>  <SCORE.SYSTEM>
0

>  <SCORE.SYSTEM.CONST>
0

>  <SCORE.SYSTEM.DIHEDRAL>
0

>  <SCORE.SYSTEM.SOLV>
0

>  <SCORE.SYSTEM.norm>
0

>  <SCORE.heavy>
31

>  <SCORE.norm>
-0.600062

>  <RMSD>
7.329

$$$$
1byj cryst
 OpenBabel11021811383D
libRbt.so/2013.1/901 2013/11/27
 31 33  0  0  0  0  0  0  0  0999 V2000
    2.5597    6.3176   -1.3972 C   0  0  1  0  0  0  0  0  0  0  0  0
    3.1641    6.6511   -2.6878 O   0  0  0  0  0  0  0  0  0  0  0  0
    3.1372    8.0395   -3.1353 C   0  0  2  0  0  0  0  0  0  0  0  0
    3.9934    8.8828   -2.3030 O   0  0  0  0  0  0  0  0  0  0  0  0
    1.6660    8.5551   -3.1270 C   0  0  2  0  0  0  0  0  0  0  0  0
    1.5383    9.9584   -3.5670 N   0  3  0  0  0  0  0  0  0  0  0  0
    1.0461    8.3722   -1.7176 C   0  0  0  0  0  0  0  0  0  0  0  0
    1.1282    6.9068   -1.2647 C   0  0  0  0  0  0  0  0  0  0  0  0
    2.4952    4.7879   -1.2433 C   0  0  0  0  0  0  0  0  0  0  0  0
    3.7179    4.0959   -1.6717 N   0  3  0  0  0  0  0  0  0  0  0  0
    5.7621    9.0545   -4.0096 C   0  0  1  0  0  0  0  0  0  0  0  0
    7.2744    8.8966   -4.3003 C   0  0  0  0  0  0  0  0  0  0  0  0
    7.7567    7.4729   -3.9125 C   0  0  1  0  0  0  0  0  0  0  0  0
    9.1798    7.3109   -4.2665 N   0  3  0  0  0  0  0  0  0  0  0  0
    7.5009    7.2107   -2.4001 C   0  0  1  0  0  0  0  0  0  0  0  0
    6.0186    7.4536   -2.0209 C   0  0  1  0  0  0  0  0  0  0  0  0
    5.9399    7.3535   -0.6067 O   0  0  0  0  0  0  0  0  0  0  0  0
    5.4417    8.8281   -2.4957 C   0  0  2  0  0  0  0  0  0  0  0  0
    5.2923   10.3711   -4.4757 N   0  3  0  0  0  0  0  0  0  0  0  0
    8.9122    3.7448   -3.9997 C   0  0  0  0  0  0  0  0  0  0  0  0
    8.7653    2.3866   -3.2709 C   0  0  2  0  0  0  0  0  0  0  0  0
    7.8991    1.5783   -4.0663 O   0  0  0  0  0  0  0  0  0  0  0  0
    8.1546    2.6235   -1.8384 C   0  0  1  0  0  0  0  0  0  0  0  0
    6.8872    3.5439   -1.8608 C   0  0  2  0  0  0  0  0  0  0  0  0
    7.0528    4.8012   -2.7517 C   0  0  1  0  0  0  0  0  0  0  0  0
    7.8101    5.8289   -2.0602 O   0  0  0  0  0  0  0  0  0  0  0  0
    7.6473    4.4581   -4.0353 O   0  0  0  0  0  0  0  0  0  0  0  0
    6.5191    3.9562   -0.5471 O   0  0  0  0  0  0  0  0  0  0  0  0
    7.8404    1.3081   -1.1985 N   0  3  0  0  0  0  0  0  0  0  0  0
    7.6962    1.2947    0.2715 C   0  0  0  0  0  0  0  0  0  0  0  0
   10.1474    1.6887   -3.2413 C   0  0  0  0  0  0  0  0  0  0  0  0
  1  8  1  0  0  0  0
  1  9  1  6  0  0  0
  1  2  1  0  0  0  0
  2  3  1  0  0  0  0
  3  5  1  0  0  0  0
  3  4  1  1  0  0  0
  5  7  1  0  0  0  0
  5  6  1  1  0  0  0
  7  8  1  0  0  0  0
  9 10  1  0  0  0  0
 11 12  1  0  0  0  0
 11 18  1  0  0  0  0
 11 19  1  1  0  0  0
 12 13  1  0  0  0  0
 13 15  1  0  0  0  0
 13 14  1  1  0  0  0
 15 16  1  0  0  0  0
 15 26  1  6  0  0  0
 16 18  1  0  0  0  0
 16 17  1  1  0  0  0
 18  4  1  6  0  0  0
 20 21  1  0  0  0  0
 20 27  1  0  0  0  0
 21 31  1  1  0  0  0
 21 23  1  0  0  0  0
 21 22  1  0  0  0  0
 23 24  1  0  0  0  0
 23 29  1  6  0  0  0
 24 25  1  0  0  0  0
 24 28  1  1  0  0  0
 25 27  1  0  0  0  0
 25 26  1  1  0  0  0
 29 30  1  0  0  0  0
M  CHG  5   6   1  10   1  14   1  19   1  29   1
M  END
>  <CHROM.1>
43.30749157,76.57733003,52.42193899,45.13659468,-56.83496874,-174.96302728
-72.85041030,-60.14710394,-170.97150370,-175.05853957,-78.90921453,67.19612672
-149.77434758,5.81403857,5.91359356,-2.55325358,2.35375920,0.34925829,-0.38131088

>  <Name>
1byj cryst

>  <RI>
0

>  <Rbt.Current_Directory>
/home/itssahil/PROJECTS/Mol_Feturizer/New_Systems/rnas/1byj

>  <Rbt.Executable>
rbdock ($Id: //depot/dev/client3/rdock/2013.1/src/exe/rbdock.cxx#4 $)

>  <Rbt.Library>
libRbt.so (2013.1, Build901 2013/11/27)

>  <Rbt.Parameter_File>
/export/apps/rDock/src/rDock_2013.1_src/data/scripts/dock_solv.prm

>  <Rbt.Receptor>
prm/pocket_docking_6.prm

>  <SCORE>
-38.9952

>  <SCORE.INTER>
-30.5067

>  <SCORE.INTER.CONST>
1

>  <SCORE.INTER.POLAR>
-4.0147

>  <SCORE.INTER.ROT>
6

>  <SCORE.INTER.SOLV>
23.2134

>  <SCORE.INTER.VDW>
-22.2932

>  <SCORE.INTER.norm>
-0.984086

>  <SCORE.INTRA>
-8.48856

>  <SCORE.INTRA.DIHEDRAL>
-9.23724

>  <SCORE.INTRA.DIHEDRAL.0>
18.4149

>  <SCORE.INTRA.POLAR>
-1.06268

>  <SCORE.INTRA.POLAR.0>
0

>  <SCORE.INTRA.REPUL>
-0.0899198

>  <SCORE.INTRA.REPUL.0>
0.092687

>  <SCORE.INTRA.SOLV>
5.84324

>  <SCORE.INTRA.SOLV.lig_0>
-120.37

>  <SCORE.INTRA.VDW>
-2.72883

>  <SCORE.INTRA.VDW.0>
-1.75542

>  <SCORE.INTRA.norm>
-0.273825

>  <SCORE.RESTR>
0

>  <SCORE.RESTR.CAVITY>
0

>  <SCORE.RESTR.norm>
0

>  <SCORE.SYSTEM>
0

>  <SCORE.SYSTEM.CONST>
0

>  <SCORE.SYSTEM.DIHEDRAL>
0

>  <SCORE.SYSTEM.SOLV>
0

>  <SCORE.SYSTEM.norm>
0

>  <SCORE.heavy>
31

>  <SCORE.norm>
-1.25791

>  <RMSD>
7.354

$$$$
1byj cryst
 OpenBabel11021811383D
libRbt.so/2013.1/901 2013/11/27
 31 33  0  0  0  0  0  0  0  0999 V2000
    7.6583   10.3373   -1.6844 C   0  0  1  0  0  0  0  0  0  0  0  0
    6.6651    9.4206   -1.1228 O   0  0  0  0  0  0  0  0  0  0  0  0
    5.4439    9.1635   -1.8786 C   0  0  2  0  0  0  0  0  0  0  0  0
    5.7234    8.4124   -3.1010 O   0  0  0  0  0  0  0  0  0  0  0  0
    4.7435   10.5182   -2.2022 C   0  0  2  0  0  0  0  0  0  0  0  0
    3.4923   10.3583   -2.9690 N   0  3  0  0  0  0  0  0  0  0  0  0
    5.7220   11.4568   -2.9543 C   0  0  0  0  0  0  0  0  0  0  0  0
    7.0108   11.6718   -2.1467 C   0  0  0  0  0  0  0  0  0  0  0  0
    8.7346   10.6355   -0.6258 C   0  0  0  0  0  0  0  0  0  0  0  0
    9.9879    9.8969   -0.8289 N   0  3  0  0  0  0  0  0  0  0  0  0
    7.3234    7.1660   -4.4999 C   0  0  1  0  0  0  0  0  0  0  0  0
    8.3166    5.9798   -4.5543 C   0  0  0  0  0  0  0  0  0  0  0  0
    7.6086    4.6590   -4.1493 C   0  0  1  0  0  0  0  0  0  0  0  0
    8.5451    3.5264   -4.2805 N   0  3  0  0  0  0  0  0  0  0  0  0
    7.0358    4.7749   -2.7071 C   0  0  1  0  0  0  0  0  0  0  0  0
    6.1107    6.0086   -2.5573 C   0  0  1  0  0  0  0  0  0  0  0  0
    5.7891    6.1095   -1.1780 O   0  0  0  0  0  0  0  0  0  0  0  0
    6.7300    7.3525   -3.0649 C   0  0  2  0  0  0  0  0  0  0  0  0
    7.9764    8.3949   -4.9841 N   0  3  0  0  0  0  0  0  0  0  0  0
    7.9382    2.8604    0.0530 C   0  0  0  0  0  0  0  0  0  0  0  0
    7.1673    1.7194    0.7610 C   0  0  2  0  0  0  0  0  0  0  0  0
    8.0183    0.5741    0.7534 O   0  0  0  0  0  0  0  0  0  0  0  0
    5.8284    1.4299   -0.0168 C   0  0  1  0  0  0  0  0  0  0  0  0
    6.0419    1.2743   -1.5609 C   0  0  2  0  0  0  0  0  0  0  0  0
    6.9667    2.3593   -2.1688 C   0  0  1  0  0  0  0  0  0  0  0  0
    6.2419    3.6002   -2.3750 O   0  0  0  0  0  0  0  0  0  0  0  0
    8.1546    2.5526   -1.3500 O   0  0  0  0  0  0  0  0  0  0  0  0
    4.8012    1.2819   -2.2621 O   0  0  0  0  0  0  0  0  0  0  0  0
    5.1671    0.2134    0.5499 N   0  3  0  0  0  0  0  0  0  0  0  0
    3.7121    0.2922    0.7919 C   0  0  0  0  0  0  0  0  0  0  0  0
    6.9439    2.1169    2.2409 C   0  0  0  0  0  0  0  0  0  0  0  0
  1  8  1  0  0  0  0
  1  9  1  1  0  0  0
  1  2  1  0  0  0  0
  2  3  1  0  0  0  0
  3  5  1  0  0  0  0
  3  4  1  6  0  0  0
  5  7  1  0  0  0  0
  5  6  1  6  0  0  0
  7  8  1  0  0  0  0
  9 10  1  0  0  0  0
 11 12  1  0  0  0  0
 11 18  1  0  0  0  0
 11 19  1  1  0  0  0
 12 13  1  0  0  0  0
 13 15  1  0  0  0  0
 13 14  1  1  0  0  0
 15 16  1  0  0  0  0
 15 26  1  6  0  0  0
 16 18  1  0  0  0  0
 16 17  1  1  0  0  0
 18  4  1  6  0  0  0
 20 21  1  0  0  0  0
 20 27  1  0  0  0  0
 21 31  1  1  0  0  0
 21 23  1  0  0  0  0
 21 22  1  0  0  0  0
 23 24  1  0  0  0  0
 23 29  1  1  0  0  0
 24 25  1  0  0  0  0
 24 28  1  6  0  0  0
 25 27  1  0  0  0  0
 25 26  1  1  0  0  0
 29 30  1  0  0  0  0
M  CHG  5   6   1  10   1  14   1  19   1  29   1
M  END
>  <CHROM.1>
102.24139167,38.61245626,-153.99216431,-62.08861557,-79.12601172,170.67215769
126.39065881,70.86413120,-67.91794468,-60.73617382,-103.91510741,67.57233668
169.02233686,6.70026008,5.65405438,-1.80729984,1.48389967,1.06244236,-0.16925506

>  <Name>
1byj cryst

>  <RI>
0

>  <Rbt.Current_Directory>
/home/itssahil/PROJECTS/Mol_Feturizer/New_Systems/rnas/1byj

>  <Rbt.Executable>
rbdock ($Id: //depot/dev/client3/rdock/2013.1/src/exe/rbdock.cxx#4 $)

>  <Rbt.Library>
libRbt.so (2013.1, Build901 2013/11/27)

>  <Rbt.Parameter_File>
/export/apps/rDock/src/rDock_2013.1_src/data/scripts/dock_solv.prm

>  <Rbt.Receptor>
prm/pocket_docking_8.prm

>  <SCORE>
-42.7279

>  <SCORE.INTER>
-39.1991

>  <SCORE.INTER.CONST>
1

>  <SCORE.INTER.POLAR>
-6.38339

>  <SCORE.INTER.ROT>
6

>  <SCORE.INTER.SOLV>
24.0638

>  <SCORE.INTER.VDW>
-20.476

>  <SCORE.INTER.norm>
-1.26449

>  <SCORE.INTRA>
-3.52886

>  <SCORE.INTRA.DIHEDRAL>
0.2964

>  <SCORE.INTRA.DIHEDRAL.0>
18.4149

>  <SCORE.INTRA.POLAR>
-1.18024

>  <SCORE.INTRA.POLAR.0>
0

>  <SCORE.INTRA.REPUL>
-0.092687

>  <SCORE.INTRA.REPUL.0>
0.092687

>  <SCORE.INTRA.SOLV>
-1.95886

>  <SCORE.INTRA.SOLV.lig_0>
-120.37

>  <SCORE.INTRA.VDW>
1.77862

>  <SCORE.INTRA.VDW.0>
-1.75542

>  <SCORE.INTRA.norm>
-0.113834

>  <SCORE.RESTR>
0

>  <SCORE.RESTR.CAVITY>
0

>  <SCORE.RESTR.norm>
0

>  <SCORE.SYSTEM>
0

>  <SCORE.SYSTEM.CONST>
0

>  <SCORE.SYSTEM.DIHEDRAL>
0

>  <SCORE.SYSTEM.SOLV>
0

>  <SCORE.SYSTEM.norm>
0

>  <SCORE.heavy>
31

>  <SCORE.norm>
-1.37832

>  <RMSD>
7.354

$$$$
1byj cryst
 OpenBabel11021811383D
libRbt.so/2013.1/901 2013/11/27
 31 33  0  0  0  0  0  0  0  0999 V2000
    1.0918    7.3835    0.1029 C   0  0  1  0  0  0  0  0  0  0  0  0
    1.6293    6.8417   -1.1460 O   0  0  0  0  0  0  0  0  0  0  0  0
    2.0757    7.7719   -2.1775 C   0  0  2  0  0  0  0  0  0  0  0  0
    3.2726    8.4980   -1.7566 O   0  0  0  0  0  0  0  0  0  0  0  0
    0.9162    8.7559   -2.5206 C   0  0  2  0  0  0  0  0  0  0  0  0
    1.2761    9.7402   -3.5602 N   0  3  0  0  0  0  0  0  0  0  0  0
    0.4340    9.4785   -1.2363 C   0  0  0  0  0  0  0  0  0  0  0  0
    0.0102    8.4673   -0.1604 C   0  0  0  0  0  0  0  0  0  0  0  0
    0.4756    6.2425    0.9314 C   0  0  0  0  0  0  0  0  0  0  0  0
    1.3433    5.0640    1.0566 N   0  3  0  0  0  0  0  0  0  0  0  0
    4.6313    7.9278   -3.7312 C   0  0  1  0  0  0  0  0  0  0  0  0
    5.9554    7.3004   -4.2311 C   0  0  0  0  0  0  0  0  0  0  0  0
    6.1176    5.8596   -3.6765 C   0  0  1  0  0  0  0  0  0  0  0  0
    7.3434    5.2463   -4.2226 N   0  3  0  0  0  0  0  0  0  0  0  0
    6.1211    5.8784   -2.1205 C   0  0  1  0  0  0  0  0  0  0  0  0
    4.8659    6.5890   -1.5549 C   0  0  1  0  0  0  0  0  0  0  0  0
    5.0584    6.6973   -0.1524 O   0  0  0  0  0  0  0  0  0  0  0  0
    4.5836    7.9996   -2.1696 C   0  0  2  0  0  0  0  0  0  0  0  0
    4.4367    9.2535   -4.3445 N   0  3  0  0  0  0  0  0  0  0  0  0
    4.3147    2.8903    0.2510 C   0  0  0  0  0  0  0  0  0  0  0  0
    5.1925    1.7190    0.7559 C   0  0  2  0  0  0  0  0  0  0  0  0
    5.2731    1.8401    2.1754 O   0  0  0  0  0  0  0  0  0  0  0  0
    6.6222    1.8153    0.1016 C   0  0  1  0  0  0  0  0  0  0  0  0
    7.2448    3.2490    0.2057 C   0  0  2  0  0  0  0  0  0  0  0  0
    6.2496    4.3818   -0.1523 C   0  0  1  0  0  0  0  0  0  0  0  0
    6.1211    4.5216   -1.5916 O   0  0  0  0  0  0  0  0  0  0  0  0
    4.9612    4.1688    0.4908 O   0  0  0  0  0  0  0  0  0  0  0  0
    8.4016    3.3760   -0.6170 O   0  0  0  0  0  0  0  0  0  0  0  0
    7.5305    0.7993    0.7189 N   0  3  0  0  0  0  0  0  0  0  0  0
    8.2012    1.1772    1.9795 C   0  0  0  0  0  0  0  0  0  0  0  0
    4.4651    0.3869    0.4482 C   0  0  0  0  0  0  0  0  0  0  0  0
  1  8  1  0  0  0  0
  1  9  1  1  0  0  0
  1  2  1  0  0  0  0
  2  3  1  0  0  0  0
  3  5  1  0  0  0  0
  3  4  1  1  0  0  0
  5  7  1  0  0  0  0
  5  6  1  6  0  0  0
  7  8  1  0  0  0  0
  9 10  1  0  0  0  0
 11 12  1  0  0  0  0
 11 18  1  0  0  0  0
 11 19  1  6  0  0  0
 12 13  1  0  0  0  0
 13 15  1  0  0  0  0
 13 14  1  6  0  0  0
 15 16  1  0  0  0  0
 15 26  1  1  0  0  0
 16 18  1  0  0  0  0
 16 17  1  1  0  0  0
 18  4  1  6  0  0  0
 20 21  1  0  0  0  0
 20 27  1  0  0  0  0
 21 31  1  6  0  0  0
 21 23  1  0  0  0  0
 21 22  1  0  0  0  0
 23 24  1  0  0  0  0
 23 29  1  1  0  0  0
 24 25  1  0  0  0  0
 24 28  1  6  0  0  0
 25 27  1  0  0  0  0
 25 26  1  6  0  0  0
 29 30  1  0  0  0  0
M  CHG  5   6   1  10   1  14   1  19   1  29   1
M  END
>  <CHROM.1>
48.16291249,95.69051801,57.68997066,-69.70675461,68.38002547,-172.36160354
-56.02561690,174.45255564,-174.68343958,171.48329949,36.56408633,-54.76762932
-136.43826924,4.42092311,5.50776235,-1.02333119,2.23069219,0.46285493,-0.72809938

>  <Name>
1byj cryst

>  <RI>
0

>  <Rbt.Current_Directory>
/home/itssahil/PROJECTS/Mol_Feturizer/New_Systems/rnas/1byj

>  <Rbt.Executable>
rbdock ($Id: //depot/dev/client3/rdock/2013.1/src/exe/rbdock.cxx#4 $)

>  <Rbt.Library>
libRbt.so (2013.1, Build901 2013/11/27)

>  <Rbt.Parameter_File>
/export/apps/rDock/src/rDock_2013.1_src/data/scripts/dock_solv.prm

>  <Rbt.Receptor>
prm/pocket_docking_3.prm

>  <SCORE>
-26.951

>  <SCORE.INTER>
-27.0938

>  <SCORE.INTER.CONST>
1

>  <SCORE.INTER.POLAR>
-4.98297

>  <SCORE.INTER.ROT>
6

>  <SCORE.INTER.SOLV>
21.3262

>  <SCORE.INTER.VDW>
-16.1614

>  <SCORE.INTER.norm>
-0.873994

>  <SCORE.INTRA>
0.0963356

>  <SCORE.INTRA.DIHEDRAL>
-4.4526

>  <SCORE.INTRA.DIHEDRAL.0>
18.4149

>  <SCORE.INTRA.POLAR>
-0.0157272

>  <SCORE.INTRA.POLAR.0>
0

>  <SCORE.INTRA.REPUL>
-0.092687

>  <SCORE.INTRA.REPUL.0>
0.092687

>  <SCORE.INTRA.SOLV>
2.38429

>  <SCORE.INTRA.SOLV.lig_0>
-120.37

>  <SCORE.INTRA.VDW>
1.6474

>  <SCORE.INTRA.VDW.0>
-1.75542

>  <SCORE.INTRA.norm>
0.0031076

>  <SCORE.RESTR>
0.0465135

>  <SCORE.RESTR.CAVITY>
0.0465135

>  <SCORE.RESTR.norm>
0.00150043

>  <SCORE.SYSTEM>
0

>  <SCORE.SYSTEM.CONST>
0

>  <SCORE.SYSTEM.DIHEDRAL>
0

>  <SCORE.SYSTEM.SOLV>
0

>  <SCORE.SYSTEM.norm>
0

>  <SCORE.heavy>
31

>  <SCORE.norm>
-0.869386

>  <RMSD>
7.361

$$$$
1byj cryst
 OpenBabel11021811383D
libRbt.so/2013.1/901 2013/11/27
 31 33  0  0  0  0  0  0  0  0999 V2000
    9.0041    9.6350   -1.1644 C   0  0  1  0  0  0  0  0  0  0  0  0
    8.1198    8.5503   -0.7360 O   0  0  0  0  0  0  0  0  0  0  0  0
    6.9386    8.2520   -1.5388 C   0  0  2  0  0  0  0  0  0  0  0  0
    7.3065    7.6929   -2.8383 O   0  0  0  0  0  0  0  0  0  0  0  0
    6.0896    9.5486   -1.7078 C   0  0  2  0  0  0  0  0  0  0  0  0
    4.8677    9.3441   -2.5104 N   0  3  0  0  0  0  0  0  0  0  0  0
    6.9576   10.6765   -2.3229 C   0  0  0  0  0  0  0  0  0  0  0  0
    8.2105   10.9346   -1.4725 C   0  0  0  0  0  0  0  0  0  0  0  0
   10.0355    9.9203   -0.0586 C   0  0  0  0  0  0  0  0  0  0  0  0
    9.4379   10.1835    1.2571 N   0  3  0  0  0  0  0  0  0  0  0  0
    8.8749    6.4073   -4.2375 C   0  0  1  0  0  0  0  0  0  0  0  0
    9.6476    5.0750   -4.3941 C   0  0  0  0  0  0  0  0  0  0  0  0
    8.6695    3.8705   -4.3461 C   0  0  1  0  0  0  0  0  0  0  0  0
    9.4083    2.6140   -4.5743 N   0  3  0  0  0  0  0  0  0  0  0  0
    7.9004    3.8547   -2.9933 C   0  0  1  0  0  0  0  0  0  0  0  0
    7.1867    5.2035   -2.7261 C   0  0  1  0  0  0  0  0  0  0  0  0
    6.6695    5.1341   -1.4056 O   0  0  0  0  0  0  0  0  0  0  0  0
    8.0990    6.4649   -2.8808 C   0  0  2  0  0  0  0  0  0  0  0  0
    9.7968    7.5471   -4.3875 N   0  3  0  0  0  0  0  0  0  0  0  0
    8.5188    2.1263   -0.5215 C   0  0  0  0  0  0  0  0  0  0  0  0
    7.5466    1.3730    0.4192 C   0  0  2  0  0  0  0  0  0  0  0  0
    8.0839    0.0655    0.6137 O   0  0  0  0  0  0  0  0  0  0  0  0
    6.1214    1.3014   -0.2480 C   0  0  1  0  0  0  0  0  0  0  0  0
    6.1691    0.8153   -1.7364 C   0  0  2  0  0  0  0  0  0  0  0  0
    7.2837    1.4940   -2.5723 C   0  0  1  0  0  0  0  0  0  0  0  0
    6.8753    2.8203   -2.9988 O   0  0  0  0  0  0  0  0  0  0  0  0
    8.5424    1.5209   -1.8416 O   0  0  0  0  0  0  0  0  0  0  0  0
    4.9183    1.0142   -2.3901 O   0  0  0  0  0  0  0  0  0  0  0  0
    5.2254    0.4222    0.5660 N   0  3  0  0  0  0  0  0  0  0  0  0
    3.8048    0.8159    0.6601 C   0  0  0  0  0  0  0  0  0  0  0  0
    7.5444    2.0794    1.7973 C   0  0  0  0  0  0  0  0  0  0  0  0
  1  8  1  0  0  0  0
  1  9  1  1  0  0  0
  1  2  1  0  0  0  0
  2  3  1  0  0  0  0
  3  5  1  0  0  0  0
  3  4  1  6  0  0  0
  5  7  1  0  0  0  0
  5  6  1  6  0  0  0
  7  8  1  0  0  0  0
  9 10  1  0  0  0  0
 11 12  1  0  0  0  0
 11 18  1  0  0  0  0
 11 19  1  1  0  0  0
 12 13  1  0  0  0  0
 13 15  1  0  0  0  0
 13 14  1  1  0  0  0
 15 16  1  0  0  0  0
 15 26  1  6  0  0  0
 16 18  1  0  0  0  0
 16 17  1  1  0  0  0
 18  4  1  6  0  0  0
 20 21  1  0  0  0  0
 20 27  1  0  0  0  0
 21 31  1  1  0  0  0
 21 23  1  0  0  0  0
 21 22  1  0  0  0  0
 23 24  1  0  0  0  0
 23 29  1  1  0  0  0
 24 25  1  0  0  0  0
 24 28  1  6  0  0  0
 25 27  1  0  0  0  0
 25 26  1  1  0  0  0
 29 30  1  0  0  0  0
M  CHG  5   6   1  10   1  14   1  19   1  29   1
M  END
>  <CHROM.1>
-53.80860769,58.42446673,-155.44833473,-58.09228380,-173.92361933,-170.22592613
-9.67619507,87.76512264,-64.06805420,162.40449790,-95.03011049,-159.72062682
141.71991529,7.53032536,5.03342501,-1.70363309,1.18047453,1.12081334,0.25342395

>  <Name>
1byj cryst

>  <RI>
0

>  <Rbt.Current_Directory>
/home/itssahil/PROJECTS/Mol_Feturizer/New_Systems/rnas/1byj

>  <Rbt.Executable>
rbdock ($Id: //depot/dev/client3/rdock/2013.1/src/exe/rbdock.cxx#4 $)

>  <Rbt.Library>
libRbt.so (2013.1, Build901 2013/11/27)

>  <Rbt.Parameter_File>
/export/apps/rDock/src/rDock_2013.1_src/data/scripts/dock_solv.prm

>  <Rbt.Receptor>
prm/pocket_docking_7.prm

>  <SCORE>
-49.7211

>  <SCORE.INTER>
-46.0539

>  <SCORE.INTER.CONST>
1

>  <SCORE.INTER.POLAR>
-7.81588

>  <SCORE.INTER.ROT>
6

>  <SCORE.INTER.SOLV>
27.1482

>  <SCORE.INTER.VDW>
-21.2991

>  <SCORE.INTER.norm>
-1.48561

>  <SCORE.INTRA>
-3.66715

>  <SCORE.INTRA.DIHEDRAL>
2.06041

>  <SCORE.INTRA.DIHEDRAL.0>
18.4149

>  <SCORE.INTRA.POLAR>
-1.16296

>  <SCORE.INTRA.POLAR.0>
0

>  <SCORE.INTRA.REPUL>
-0.092687

>  <SCORE.INTRA.REPUL.0>
0.092687

>  <SCORE.INTRA.SOLV>
-0.225037

>  <SCORE.INTRA.SOLV.lig_0>
-120.37

>  <SCORE.INTRA.VDW>
-0.167352

>  <SCORE.INTRA.VDW.0>
-1.75542

>  <SCORE.INTRA.norm>
-0.118295

>  <SCORE.RESTR>
0

>  <SCORE.RESTR.CAVITY>
0

>  <SCORE.RESTR.norm>
0

>  <SCORE.SYSTEM>
0

>  <SCORE.SYSTEM.CONST>
0

>  <SCORE.SYSTEM.DIHEDRAL>
0

>  <SCORE.SYSTEM.SOLV>
0

>  <SCORE.SYSTEM.norm>
0

>  <SCORE.heavy>
31

>  <SCORE.norm>
-1.6039

>  <RMSD>
7.362

$$$$
1byj cryst
 OpenBabel11021811383D
libRbt.so/2013.1/901 2013/11/27
 31 33  0  0  0  0  0  0  0  0999 V2000
    7.9262    9.3056   -1.9510 C   0  0  1  0  0  0  0  0  0  0  0  0
    7.0885    8.2033   -1.4763 O   0  0  0  0  0  0  0  0  0  0  0  0
    6.1116    7.6226   -2.3911 C   0  0  2  0  0  0  0  0  0  0  0  0
    6.7668    6.9045   -3.4828 O   0  0  0  0  0  0  0  0  0  0  0  0
    5.1856    8.7504   -2.9397 C   0  0  2  0  0  0  0  0  0  0  0  0
    4.1595    8.2561   -3.8789 N   0  3  0  0  0  0  0  0  0  0  0  0
    6.0376    9.8614   -3.6060 C   0  0  0  0  0  0  0  0  0  0  0  0
    7.0798   10.4201   -2.6257 C   0  0  0  0  0  0  0  0  0  0  0  0
    8.7019    9.9053   -0.7649 C   0  0  0  0  0  0  0  0  0  0  0  0
   10.1595    9.9007   -0.9454 N   0  3  0  0  0  0  0  0  0  0  0  0
    8.7530    5.6797   -4.2735 C   0  0  1  0  0  0  0  0  0  0  0  0
    9.6644    4.4480   -4.0522 C   0  0  0  0  0  0  0  0  0  0  0  0
    8.8259    3.1416   -4.0677 C   0  0  1  0  0  0  0  0  0  0  0  0
    9.7155    1.9722   -3.9339 N   0  3  0  0  0  0  0  0  0  0  0  0
    7.7461    3.1812   -2.9478 C   0  0  1  0  0  0  0  0  0  0  0  0
    6.8621    4.4492   -3.0512 C   0  0  1  0  0  0  0  0  0  0  0  0
    6.0380    4.4646   -1.8950 O   0  0  0  0  0  0  0  0  0  0  0  0
    7.6585    5.7912   -3.1618 C   0  0  2  0  0  0  0  0  0  0  0  0
    9.5691    6.9035   -4.3601 N   0  3  0  0  0  0  0  0  0  0  0  0
    9.1320    1.7330   -1.0333 C   0  0  0  0  0  0  0  0  0  0  0  0
    8.5151    2.1006    0.3385 C   0  0  2  0  0  0  0  0  0  0  0  0
    8.6270    0.9455    1.1689 O   0  0  0  0  0  0  0  0  0  0  0  0
    7.0060    2.5078    0.1426 C   0  0  1  0  0  0  0  0  0  0  0  0
    6.2062    1.4814   -0.7296 C   0  0  2  0  0  0  0  0  0  0  0  0
    6.9650    1.0299   -2.0033 C   0  0  1  0  0  0  0  0  0  0  0  0
    6.8596    2.0304   -3.0500 O   0  0  0  0  0  0  0  0  0  0  0  0
    8.3509    0.7050   -1.6988 O   0  0  0  0  0  0  0  0  0  0  0  0
    4.9351    2.0008   -1.1114 O   0  0  0  0  0  0  0  0  0  0  0  0
    6.3535    2.6882    1.4768 N   0  3  0  0  0  0  0  0  0  0  0  0
    6.1185    4.0754    1.9264 C   0  0  0  0  0  0  0  0  0  0  0  0
    9.3731    3.2164    0.9842 C   0  0  0  0  0  0  0  0  0  0  0  0
  1  8  1  0  0  0  0
  1  9  1  1  0  0  0
  1  2  1  0  0  0  0
  2  3  1  0  0  0  0
  3  5  1  0  0  0  0
  3  4  1  6  0  0  0
  5  7  1  0  0  0  0
  5  6  1  6  0  0  0
  7  8  1  0  0  0  0
  9 10  1  0  0  0  0
 11 12  1  0  0  0  0
 11 18  1  0  0  0  0
 11 19  1  1  0  0  0
 12 13  1  0  0  0  0
 13 15  1  0  0  0  0
 13 14  1  1  0  0  0
 15 16  1  0  0  0  0
 15 26  1  6  0  0  0
 16 18  1  0  0  0  0
 16 17  1  1  0  0  0
 18  4  1  6  0  0  0
 20 21  1  0  0  0  0
 20 27  1  0  0  0  0
 21 31  1  1  0  0  0
 21 23  1  0  0  0  0
 21 22  1  0  0  0  0
 23 24  1  0  0  0  0
 23 29  1  1  0  0  0
 24 25  1  0  0  0  0
 24 28  1  6  0  0  0
 25 27  1  0  0  0  0
 25 26  1  6  0  0  0
 29 30  1  0  0  0  0
M  CHG  5   6   1  10   1  14   1  19   1  29   1
M  END
>  <CHROM.1>
123.10997366,59.09409441,-150.76443105,157.82658067,41.25561269,93.00899962
47.03908704,110.49198135,-166.97848777,-55.91465386,-134.86272233,63.65095137
79.64666926,7.49959687,4.94657971,-1.90404344,1.71607099,1.14274545,-0.38664381

>  <Name>
1byj cryst

>  <RI>
0

>  <Rbt.Current_Directory>
/home/itssahil/PROJECTS/Mol_Feturizer/New_Systems/rnas/1byj

>  <Rbt.Executable>
rbdock ($Id: //depot/dev/client3/rdock/2013.1/src/exe/rbdock.cxx#4 $)

>  <Rbt.Library>
libRbt.so (2013.1, Build901 2013/11/27)

>  <Rbt.Parameter_File>
/export/apps/rDock/src/rDock_2013.1_src/data/scripts/dock_solv.prm

>  <Rbt.Receptor>
prm/pocket_docking_6.prm

>  <SCORE>
-39.656

>  <SCORE.INTER>
-38.6878

>  <SCORE.INTER.CONST>
1

>  <SCORE.INTER.POLAR>
-5.00739

>  <SCORE.INTER.ROT>
6

>  <SCORE.INTER.SOLV>
24.8406

>  <SCORE.INTER.VDW>
-24.9808

>  <SCORE.INTER.norm>
-1.24799

>  <SCORE.INTRA>
-0.968157

>  <SCORE.INTRA.DIHEDRAL>
7.36217

>  <SCORE.INTRA.DIHEDRAL.0>
18.4149

>  <SCORE.INTRA.POLAR>
-1.1411

>  <SCORE.INTRA.POLAR.0>
0

>  <SCORE.INTRA.REPUL>
-0.092687

>  <SCORE.INTRA.REPUL.0>
0.092687

>  <SCORE.INTRA.SOLV>
0.290794

>  <SCORE.INTRA.SOLV.lig_0>
-120.37

>  <SCORE.INTRA.VDW>
-0.451461

>  <SCORE.INTRA.VDW.0>
-1.75542

>  <SCORE.INTRA.norm>
-0.0312309

>  <SCORE.RESTR>
0

>  <SCORE.RESTR.CAVITY>
0

>  <SCORE.RESTR.norm>
0

>  <SCORE.SYSTEM>
0

>  <SCORE.SYSTEM.CONST>
0

>  <SCORE.SYSTEM.DIHEDRAL>
0

>  <SCORE.SYSTEM.SOLV>
0

>  <SCORE.SYSTEM.norm>
0

>  <SCORE.heavy>
31

>  <SCORE.norm>
-1.27922

>  <RMSD>
7.378

$$$$
1byj cryst
 OpenBabel11021811383D
libRbt.so/2013.1/901 2013/11/27
 31 33  0  0  0  0  0  0  0  0999 V2000
    3.1388   10.1995    0.3617 C   0  0  1  0  0  0  0  0  0  0  0  0
    2.6985    8.8101    0.2274 O   0  0  0  0  0  0  0  0  0  0  0  0
    2.0777    8.3907   -1.0245 C   0  0  2  0  0  0  0  0  0  0  0  0
    3.0430    8.3892   -2.1222 O   0  0  0  0  0  0  0  0  0  0  0  0
    0.8722    9.3272   -1.3408 C   0  0  2  0  0  0  0  0  0  0  0  0
    0.1777    8.9786   -2.5959 N   0  3  0  0  0  0  0  0  0  0  0  0
    1.3409   10.8048   -1.3751 C   0  0  0  0  0  0  0  0  0  0  0  0
    2.0241   11.1976   -0.0566 C   0  0  0  0  0  0  0  0  0  0  0  0
    3.5396   10.4695    1.8227 C   0  0  0  0  0  0  0  0  0  0  0  0
    2.7460    9.7189    2.8045 N   0  3  0  0  0  0  0  0  0  0  0  0
    5.1571    7.8178   -3.2511 C   0  0  1  0  0  0  0  0  0  0  0  0
    6.3995    6.8943   -3.2417 C   0  0  0  0  0  0  0  0  0  0  0  0
    5.9683    5.4030   -3.2473 C   0  0  1  0  0  0  0  0  0  0  0  0
    7.1600    4.5359   -3.3170 N   0  3  0  0  0  0  0  0  0  0  0  0
    5.0945    5.0901   -1.9983 C   0  0  1  0  0  0  0  0  0  0  0  0
    3.8849    6.0521   -1.8918 C   0  0  1  0  0  0  0  0  0  0  0  0
    3.2657    5.7886   -0.6415 O   0  0  0  0  0  0  0  0  0  0  0  0
    4.2480    7.5698   -2.0029 C   0  0  2  0  0  0  0  0  0  0  0  0
    5.5754    9.2273   -3.3498 N   0  3  0  0  0  0  0  0  0  0  0  0
    4.6675    2.3654    0.6536 C   0  0  0  0  0  0  0  0  0  0  0  0
    4.1618    0.9227    0.4079 C   0  0  2  0  0  0  0  0  0  0  0  0
    5.2288    0.0419    0.7569 O   0  0  0  0  0  0  0  0  0  0  0  0
    3.7687    0.7560   -1.1084 C   0  0  1  0  0  0  0  0  0  0  0  0
    4.8729    1.2843   -2.0859 C   0  0  2  0  0  0  0  0  0  0  0  0
    5.4531    2.6616   -1.6758 C   0  0  1  0  0  0  0  0  0  0  0  0
    4.5616    3.7369   -2.0717 O   0  0  0  0  0  0  0  0  0  0  0  0
    5.7529    2.6998   -0.2519 O   0  0  0  0  0  0  0  0  0  0  0  0
    4.3878    1.3692   -3.4234 O   0  0  0  0  0  0  0  0  0  0  0  0
    3.4527   -0.6782   -1.3944 N   0  3  0  0  0  0  0  0  0  0  0  0
    2.4510   -0.9475   -2.4460 C   0  0  0  0  0  0  0  0  0  0  0  0
    2.9914    0.6360    1.3806 C   0  0  0  0  0  0  0  0  0  0  0  0
  1  8  1  0  0  0  0
  1  9  1  1  0  0  0
  1  2  1  0  0  0  0
  2  3  1  0  0  0  0
  3  5  1  0  0  0  0
  3  4  1  6  0  0  0
  5  7  1  0  0  0  0
  5  6  1  6  0  0  0
  7  8  1  0  0  0  0
  9 10  1  0  0  0  0
 11 12  1  0  0  0  0
 11 18  1  0  0  0  0
 11 19  1  1  0  0  0
 12 13  1  0  0  0  0
 13 15  1  0  0  0  0
 13 14  1  1  0  0  0
 15 16  1  0  0  0  0
 15 26  1  6  0  0  0
 16 18  1  0  0  0  0
 16 17  1  1  0  0  0
 18  4  1  6  0  0  0
 20 21  1  0  0  0  0
 20 27  1  0  0  0  0
 21 31  1  1  0  0  0
 21 23  1  0  0  0  0
 21 22  1  0  0  0  0
 23 24  1  0  0  0  0
 23 29  1  6  0  0  0
 24 25  1  0  0  0  0
 24 28  1  6  0  0  0
 25 27  1  0  0  0  0
 25 26  1  1  0  0  0
 29 30  1  0  0  0  0
M  CHG  5   6   1  10   1  14   1  19   1  29   1
M  END
>  <CHROM.1>
-33.36667475,57.72239241,-176.07385428,127.71731988,39.05203396,179.54627489
-170.48463843,80.69114951,60.67313011,64.59270899,-89.71873706,-74.26719321
-167.89338915,3.87834751,5.43971644,-1.20384275,1.90227228,0.94681994,-0.22434410

>  <Name>
1byj cryst

>  <RI>
0

>  <Rbt.Current_Directory>
/home/itssahil/PROJECTS/Mol_Feturizer/New_Systems/rnas/1byj

>  <Rbt.Executable>
rbdock ($Id: //depot/dev/client3/rdock/2013.1/src/exe/rbdock.cxx#4 $)

>  <Rbt.Library>
libRbt.so (2013.1, Build901 2013/11/27)

>  <Rbt.Parameter_File>
/export/apps/rDock/src/rDock_2013.1_src/data/scripts/dock_solv.prm

>  <Rbt.Receptor>
prm/pocket_docking_7.prm

>  <SCORE>
-32.7377

>  <SCORE.INTER>
-28.1342

>  <SCORE.INTER.CONST>
1

>  <SCORE.INTER.POLAR>
-5.34772

>  <SCORE.INTER.ROT>
6

>  <SCORE.INTER.SOLV>
18.8176

>  <SCORE.INTER.VDW>
-14.803

>  <SCORE.INTER.norm>
-0.907555

>  <SCORE.INTRA>
-4.60348

>  <SCORE.INTRA.DIHEDRAL>
-5.61509

>  <SCORE.INTRA.DIHEDRAL.0>
18.4149

>  <SCORE.INTRA.POLAR>
-0.162217

>  <SCORE.INTRA.POLAR.0>
0

>  <SCORE.INTRA.REPUL>
-0.092687

>  <SCORE.INTRA.REPUL.0>
0.092687

>  <SCORE.INTRA.SOLV>
-2.06418

>  <SCORE.INTRA.SOLV.lig_0>
-120.37

>  <SCORE.INTRA.VDW>
0.251129

>  <SCORE.INTRA.VDW.0>
-1.75542

>  <SCORE.INTRA.norm>
-0.148499

>  <SCORE.RESTR>
0

>  <SCORE.RESTR.CAVITY>
0

>  <SCORE.RESTR.norm>
0

>  <SCORE.SYSTEM>
0

>  <SCORE.SYSTEM.CONST>
0

>  <SCORE.SYSTEM.DIHEDRAL>
0

>  <SCORE.SYSTEM.SOLV>
0

>  <SCORE.SYSTEM.norm>
0

>  <SCORE.heavy>
31

>  <SCORE.norm>
-1.05605

>  <RMSD>
7.386

$$$$
1byj cryst
 OpenBabel11021811383D
libRbt.so/2013.1/901 2013/11/27
 31 33  0  0  0  0  0  0  0  0999 V2000
    0.7833    4.3343    1.4784 C   0  0  1  0  0  0  0  0  0  0  0  0
    1.3606    4.8877    0.2526 O   0  0  0  0  0  0  0  0  0  0  0  0
    0.4771    5.5544   -0.6980 C   0  0  2  0  0  0  0  0  0  0  0  0
   -0.0426    6.8070   -0.1525 O   0  0  0  0  0  0  0  0  0  0  0  0
   -0.6838    4.5891   -1.0868 C   0  0  2  0  0  0  0  0  0  0  0  0
   -1.6341    5.1794   -2.0498 N   0  3  0  0  0  0  0  0  0  0  0  0
   -1.4300    4.1144    0.1867 C   0  0  0  0  0  0  0  0  0  0  0  0
   -0.4617    3.4541    1.1797 C   0  0  0  0  0  0  0  0  0  0  0  0
    1.8423    3.4859    2.2041 C   0  0  0  0  0  0  0  0  0  0  0  0
    3.0023    4.2563    2.6710 N   0  3  0  0  0  0  0  0  0  0  0  0
    0.1007    9.0329    0.8939 C   0  0  1  0  0  0  0  0  0  0  0  0
    1.0439   10.1841    1.3202 C   0  0  0  0  0  0  0  0  0  0  0  0
    1.8838   10.6749    0.1104 C   0  0  1  0  0  0  0  0  0  0  0  0
    2.7203   11.8220    0.5120 N   0  3  0  0  0  0  0  0  0  0  0  0
    2.7368    9.5064   -0.4628 C   0  0  1  0  0  0  0  0  0  0  0  0
    1.8604    8.2782   -0.8143 C   0  0  1  0  0  0  0  0  0  0  0  0
    2.7523    7.2291   -1.1604 O   0  0  0  0  0  0  0  0  0  0  0  0
    0.9016    7.8131    0.3311 C   0  0  2  0  0  0  0  0  0  0  0  0
   -0.7643    8.6440    2.0217 N   0  3  0  0  0  0  0  0  0  0  0  0
    6.1647    8.8581   -0.9002 C   0  0  0  0  0  0  0  0  0  0  0  0
    7.0445    9.0222   -2.1638 C   0  0  2  0  0  0  0  0  0  0  0  0
    8.1105    9.9053   -1.8177 O   0  0  0  0  0  0  0  0  0  0  0  0
    6.1758    9.6212   -3.3334 C   0  0  1  0  0  0  0  0  0  0  0  0
    5.3441   10.8741   -2.8949 C   0  0  2  0  0  0  0  0  0  0  0  0
    4.6279   10.6938   -1.5324 C   0  0  1  0  0  0  0  0  0  0  0  0
    3.4113    9.9167   -1.6865 O   0  0  0  0  0  0  0  0  0  0  0  0
    5.5237   10.1119   -0.5436 O   0  0  0  0  0  0  0  0  0  0  0  0
    4.3767   11.2284   -3.8797 O   0  0  0  0  0  0  0  0  0  0  0  0
    7.0548    9.9523   -4.4980 N   0  3  0  0  0  0  0  0  0  0  0  0
    7.2970    8.8779   -5.4823 C   0  0  0  0  0  0  0  0  0  0  0  0
    7.6763    7.6510   -2.5085 C   0  0  0  0  0  0  0  0  0  0  0  0
  1  8  1  0  0  0  0
  1  9  1  6  0  0  0
  1  2  1  0  0  0  0
  2  3  1  0  0  0  0
  3  5  1  0  0  0  0
  3  4  1  1  0  0  0
  5  7  1  0  0  0  0
  5  6  1  6  0  0  0
  7  8  1  0  0  0  0
  9 10  1  0  0  0  0
 11 12  1  0  0  0  0
 11 18  1  0  0  0  0
 11 19  1  1  0  0  0
 12 13  1  0  0  0  0
 13 15  1  0  0  0  0
 13 14  1  1  0  0  0
 15 16  1  0  0  0  0
 15 26  1  6  0  0  0
 16 18  1  0  0  0  0
 16 17  1  1  0  0  0
 18  4  1  6  0  0  0
 20 21  1  0  0  0  0
 20 27  1  0  0  0  0
 21 31  1  6  0  0  0
 21 23  1  0  0  0  0
 21 22  1  0  0  0  0
 23 24  1  0  0  0  0
 23 29  1  6  0  0  0
 24 25  1  0  0  0  0
 24 28  1  6  0  0  0
 25 27  1  0  0  0  0
 25 26  1  6  0  0  0
 29 30  1  0  0  0  0
M  CHG  5   6   1  10   1  14   1  19   1  29   1
M  END
>  <CHROM.1>
64.02463030,54.97689676,-178.53785359,-171.94792667,57.50739003,172.08120213
-165.67324890,80.36393991,62.90062307,168.86260707,-150.68529093,59.58752084
171.48007386,2.90241378,7.97112246,-0.79843224,-2.56452502,0.50196368,-0.00110078

>  <Name>
1byj cryst

>  <RI>
0

>  <Rbt.Current_Directory>
/home/itssahil/PROJECTS/Mol_Feturizer/New_Systems/rnas/1byj

>  <Rbt.Executable>
rbdock ($Id: //depot/dev/client3/rdock/2013.1/src/exe/rbdock.cxx#4 $)

>  <Rbt.Library>
libRbt.so (2013.1, Build901 2013/11/27)

>  <Rbt.Parameter_File>
/export/apps/rDock/src/rDock_2013.1_src/data/scripts/dock_solv.prm

>  <Rbt.Receptor>
prm/pocket_docking_7.prm

>  <SCORE>
-35.8729

>  <SCORE.INTER>
-27.1877

>  <SCORE.INTER.CONST>
1

>  <SCORE.INTER.POLAR>
-4.4217

>  <SCORE.INTER.ROT>
6

>  <SCORE.INTER.SOLV>
18.3467

>  <SCORE.INTER.VDW>
-17.1017

>  <SCORE.INTER.norm>
-0.877023

>  <SCORE.INTRA>
-8.68521

>  <SCORE.INTRA.DIHEDRAL>
-12.6497

>  <SCORE.INTRA.DIHEDRAL.0>
18.4149

>  <SCORE.INTRA.POLAR>
0

>  <SCORE.INTRA.POLAR.0>
0

>  <SCORE.INTRA.REPUL>
-0.092687

>  <SCORE.INTRA.REPUL.0>
0.092687

>  <SCORE.INTRA.SOLV>
-3.59797

>  <SCORE.INTRA.SOLV.lig_0>
-120.37

>  <SCORE.INTRA.VDW>
-0.0979692

>  <SCORE.INTRA.VDW.0>
-1.75542

>  <SCORE.INTRA.norm>
-0.280168

>  <SCORE.RESTR>
0

>  <SCORE.RESTR.CAVITY>
0

>  <SCORE.RESTR.norm>
0

>  <SCORE.SYSTEM>
0

>  <SCORE.SYSTEM.CONST>
0

>  <SCORE.SYSTEM.DIHEDRAL>
0

>  <SCORE.SYSTEM.SOLV>
0

>  <SCORE.SYSTEM.norm>
0

>  <SCORE.heavy>
31

>  <SCORE.norm>
-1.15719

>  <RMSD>
7.391

$$$$
1byj cryst
 OpenBabel11021811383D
libRbt.so/2013.1/901 2013/11/27
 31 33  0  0  0  0  0  0  0  0999 V2000
    6.3798    9.8170   -1.0163 C   0  0  1  0  0  0  0  0  0  0  0  0
    6.2045    8.3699   -0.8858 O   0  0  0  0  0  0  0  0  0  0  0  0
    6.0434    7.5724   -2.0969 C   0  0  2  0  0  0  0  0  0  0  0  0
    7.2763    7.5427   -2.8817 O   0  0  0  0  0  0  0  0  0  0  0  0
    4.8598    8.1431   -2.9359 C   0  0  2  0  0  0  0  0  0  0  0  0
    4.6197    7.3970   -4.1867 N   0  3  0  0  0  0  0  0  0  0  0  0
    5.0984    9.6447   -3.2397 C   0  0  0  0  0  0  0  0  0  0  0  0
    5.3028   10.4441   -1.9440 C   0  0  0  0  0  0  0  0  0  0  0  0
    6.2936   10.4697    0.3747 C   0  0  0  0  0  0  0  0  0  0  0  0
    7.3335   10.0173    1.3081 N   0  3  0  0  0  0  0  0  0  0  0  0
    8.8917    6.2607   -4.2297 C   0  0  1  0  0  0  0  0  0  0  0  0
    9.6747    4.9315   -4.3594 C   0  0  0  0  0  0  0  0  0  0  0  0
    8.7010    3.7227   -4.3374 C   0  0  1  0  0  0  0  0  0  0  0  0
    9.4520    2.4690   -4.5398 N   0  3  0  0  0  0  0  0  0  0  0  0
    7.8917    3.7069   -3.0083 C   0  0  1  0  0  0  0  0  0  0  0  0
    7.1643    5.0532   -2.7662 C   0  0  1  0  0  0  0  0  0  0  0  0
    6.6080    4.9849   -1.4617 O   0  0  0  0  0  0  0  0  0  0  0  0
    8.0752    6.3183   -2.8970 C   0  0  2  0  0  0  0  0  0  0  0  0
    9.8125    7.4043   -4.3551 N   0  3  0  0  0  0  0  0  0  0  0  0
    8.7266    2.2942   -0.6457 C   0  0  0  0  0  0  0  0  0  0  0  0
    7.8052    1.8753    0.5261 C   0  0  2  0  0  0  0  0  0  0  0  0
    8.2275    0.5784    0.9454 O   0  0  0  0  0  0  0  0  0  0  0  0
    6.3094    1.8470    0.0328 C   0  0  1  0  0  0  0  0  0  0  0  0
    6.1261    1.0658   -1.3126 C   0  0  2  0  0  0  0  0  0  0  0  0
    7.1934    1.4160   -2.3804 C   0  0  1  0  0  0  0  0  0  0  0  0
    6.8719    2.6679   -3.0416 O   0  0  0  0  0  0  0  0  0  0  0  0
    8.5279    1.4344   -1.7995 O   0  0  0  0  0  0  0  0  0  0  0  0
    4.8315    1.2813   -1.8683 O   0  0  0  0  0  0  0  0  0  0  0  0
    5.4352    1.2705    1.1013 N   0  3  0  0  0  0  0  0  0  0  0  0
    4.0789    0.8440    0.7006 C   0  0  0  0  0  0  0  0  0  0  0  0
    8.0422    2.8422    1.7123 C   0  0  0  0  0  0  0  0  0  0  0  0
  1  8  1  0  0  0  0
  1  9  1  1  0  0  0
  1  2  1  0  0  0  0
  2  3  1  0  0  0  0
  3  5  1  0  0  0  0
  3  4  1  6  0  0  0
  5  7  1  0  0  0  0
  5  6  1  6  0  0  0
  7  8  1  0  0  0  0
  9 10  1  0  0  0  0
 11 12  1  0  0  0  0
 11 18  1  0  0  0  0
 11 19  1  1  0  0  0
 12 13  1  0  0  0  0
 13 15  1  0  0  0  0
 13 14  1  1  0  0  0
 15 16  1  0  0  0  0
 15 26  1  6  0  0  0
 16 18  1  0  0  0  0
 16 17  1  1  0  0  0
 18  4  1  6  0  0  0
 20 21  1  0  0  0  0
 20 27  1  0  0  0  0
 21 31  1  1  0  0  0
 21 23  1  0  0  0  0
 21 22  1  0  0  0  0
 23 24  1  0  0  0  0
 23 29  1  1  0  0  0
 24 25  1  0  0  0  0
 24 28  1  6  0  0  0
 25 27  1  0  0  0  0
 25 26  1  1  0  0  0
 29 30  1  0  0  0  0
M  CHG  5   6   1  10   1  14   1  19   1  29   1
M  END
>  <CHROM.1>
61.58050241,106.40055993,153.58783565,-152.57476181,-179.28453363,-168.84252934
-9.30496594,98.55785261,63.94809764,55.91253142,-43.53809248,-179.69661332
124.06774249,7.03487301,4.93444566,-1.77378000,1.73083388,1.03400728,-0.29393858

>  <Name>
1byj cryst

>  <RI>
0

>  <Rbt.Current_Directory>
/home/itssahil/PROJECTS/Mol_Feturizer/New_Systems/rnas/1byj

>  <Rbt.Executable>
rbdock ($Id: //depot/dev/client3/rdock/2013.1/src/exe/rbdock.cxx#4 $)

>  <Rbt.Library>
libRbt.so (2013.1, Build901 2013/11/27)

>  <Rbt.Parameter_File>
/export/apps/rDock/src/rDock_2013.1_src/data/scripts/dock_solv.prm

>  <Rbt.Receptor>
prm/pocket_docking_7.prm

>  <SCORE>
-35.7958

>  <SCORE.INTER>
-39.6639

>  <SCORE.INTER.CONST>
1

>  <SCORE.INTER.POLAR>
-6.2253

>  <SCORE.INTER.ROT>
6

>  <SCORE.INTER.SOLV>
28.3644

>  <SCORE.INTER.VDW>
-22.7464

>  <SCORE.INTER.norm>
-1.27948

>  <SCORE.INTRA>
3.86812

>  <SCORE.INTRA.DIHEDRAL>
9.24334

>  <SCORE.INTRA.DIHEDRAL.0>
18.4149

>  <SCORE.INTRA.POLAR>
-1.21762

>  <SCORE.INTRA.POLAR.0>
0

>  <SCORE.INTRA.REPUL>
-0.092687

>  <SCORE.INTRA.REPUL.0>
0.092687

>  <SCORE.INTRA.SOLV>
-2.04472

>  <SCORE.INTRA.SOLV.lig_0>
-120.37

>  <SCORE.INTRA.VDW>
4.87217

>  <SCORE.INTRA.VDW.0>
-1.75542

>  <SCORE.INTRA.norm>
0.124778

>  <SCORE.RESTR>
0

>  <SCORE.RESTR.CAVITY>
0

>  <SCORE.RESTR.norm>
0

>  <SCORE.SYSTEM>
0

>  <SCORE.SYSTEM.CONST>
0

>  <SCORE.SYSTEM.DIHEDRAL>
0

>  <SCORE.SYSTEM.SOLV>
0

>  <SCORE.SYSTEM.norm>
0

>  <SCORE.heavy>
31

>  <SCORE.norm>
-1.1547

>  <RMSD>
7.393

$$$$
1byj cryst
 OpenBabel11021811383D
libRbt.so/2013.1/901 2013/11/27
 31 33  0  0  0  0  0  0  0  0999 V2000
    0.9067    7.2421   -0.5058 C   0  0  1  0  0  0  0  0  0  0  0  0
    1.3884    7.6236   -1.8342 O   0  0  0  0  0  0  0  0  0  0  0  0
    2.0472    8.9153   -1.9953 C   0  0  2  0  0  0  0  0  0  0  0  0
    3.3390    8.9422   -1.3118 O   0  0  0  0  0  0  0  0  0  0  0  0
    1.1096   10.0418   -1.4639 C   0  0  2  0  0  0  0  0  0  0  0  0
    1.6941   11.3918   -1.5859 N   0  3  0  0  0  0  0  0  0  0  0  0
    0.7145    9.7550    0.0077 C   0  0  0  0  0  0  0  0  0  0  0  0
    0.0607    8.3717    0.1440 C   0  0  0  0  0  0  0  0  0  0  0  0
    0.0508    5.9683   -0.6190 C   0  0  0  0  0  0  0  0  0  0  0  0
   -0.9640    6.0271   -1.6792 N   0  3  0  0  0  0  0  0  0  0  0  0
    4.5984    8.2366   -3.3084 C   0  0  1  0  0  0  0  0  0  0  0  0
    5.6319    7.2338   -3.8766 C   0  0  0  0  0  0  0  0  0  0  0  0
    5.1665    5.7739   -3.6277 C   0  0  1  0  0  0  0  0  0  0  0  0
    6.1206    4.8309   -4.2420 N   0  3  0  0  0  0  0  0  0  0  0  0
    4.9950    5.5157   -2.1027 C   0  0  1  0  0  0  0  0  0  0  0  0
    4.0488    6.5545   -1.4503 C   0  0  1  0  0  0  0  0  0  0  0  0
    4.1027    6.3289   -0.0495 O   0  0  0  0  0  0  0  0  0  0  0  0
    4.3995    8.0454   -1.7689 C   0  0  2  0  0  0  0  0  0  0  0  0
    4.9971    9.6159   -3.6398 N   0  3  0  0  0  0  0  0  0  0  0  0
    6.9973    3.3289   -0.4903 C   0  0  0  0  0  0  0  0  0  0  0  0
    6.6550    1.9958    0.2190 C   0  0  2  0  0  0  0  0  0  0  0  0
    7.4990    0.9939   -0.3468 O   0  0  0  0  0  0  0  0  0  0  0  0
    5.1364    1.6506   -0.0179 C   0  0  1  0  0  0  0  0  0  0  0  0
    4.7114    1.7704   -1.5209 C   0  0  2  0  0  0  0  0  0  0  0  0
    5.2381    3.0542   -2.2111 C   0  0  1  0  0  0  0  0  0  0  0  0
    4.4160    4.2004   -1.8677 O   0  0  0  0  0  0  0  0  0  0  0  0
    6.6419    3.2780   -1.8978 O   0  0  0  0  0  0  0  0  0  0  0  0
    3.2948    1.7173   -1.6679 O   0  0  0  0  0  0  0  0  0  0  0  0
    4.8412    0.2809    0.5066 N   0  3  0  0  0  0  0  0  0  0  0  0
    3.4248   -0.1377    0.5295 C   0  0  0  0  0  0  0  0  0  0  0  0
    7.0297    2.1213    1.7163 C   0  0  0  0  0  0  0  0  0  0  0  0
  1  8  1  0  0  0  0
  1  9  1  6  0  0  0
  1  2  1  0  0  0  0
  2  3  1  0  0  0  0
  3  5  1  0  0  0  0
  3  4  1  1  0  0  0
  5  7  1  0  0  0  0
  5  6  1  1  0  0  0
  7  8  1  0  0  0  0
  9 10  1  0  0  0  0
 11 12  1  0  0  0  0
 11 18  1  0  0  0  0
 11 19  1  1  0  0  0
 12 13  1  0  0  0  0
 13 15  1  0  0  0  0
 13 14  1  1  0  0  0
 15 16  1  0  0  0  0
 15 26  1  6  0  0  0
 16 18  1  0  0  0  0
 16 17  1  1  0  0  0
 18  4  1  6  0  0  0
 20 21  1  0  0  0  0
 20 27  1  0  0  0  0
 21 31  1  1  0  0  0
 21 23  1  0  0  0  0
 21 22  1  0  0  0  0
 23 24  1  0  0  0  0
 23 29  1  6  0  0  0
 24 25  1  0  0  0  0
 24 28  1  1  0  0  0
 25 27  1  0  0  0  0
 25 26  1  1  0  0  0
 29 30  1  0  0  0  0
M  CHG  5   6   1  10   1  14   1  19   1  29   1
M  END
>  <CHROM.1>
-48.43791386,64.05176024,52.59543387,65.28604554,-57.80897672,61.45965940
-31.52114249,67.38684152,-58.77253883,-61.76837816,-66.77567335,-175.92778479
162.28873312,3.87897510,5.48808574,-1.36750789,2.10068210,0.39907540,-0.37139615

>  <Name>
1byj cryst

>  <RI>
0

>  <Rbt.Current_Directory>
/home/itssahil/PROJECTS/Mol_Feturizer/New_Systems/rnas/1byj

>  <Rbt.Executable>
rbdock ($Id: //depot/dev/client3/rdock/2013.1/src/exe/rbdock.cxx#4 $)

>  <Rbt.Library>
libRbt.so (2013.1, Build901 2013/11/27)

>  <Rbt.Parameter_File>
/export/apps/rDock/src/rDock_2013.1_src/data/scripts/dock_solv.prm

>  <Rbt.Receptor>
prm/pocket_docking_8.prm

>  <SCORE>
-31.3806

>  <SCORE.INTER>
-22.1523

>  <SCORE.INTER.CONST>
1

>  <SCORE.INTER.POLAR>
-3.41692

>  <SCORE.INTER.ROT>
6

>  <SCORE.INTER.SOLV>
19.452

>  <SCORE.INTER.VDW>
-17.4624

>  <SCORE.INTER.norm>
-0.714591

>  <SCORE.INTRA>
-9.22826

>  <SCORE.INTRA.DIHEDRAL>
-13.5217

>  <SCORE.INTRA.DIHEDRAL.0>
18.4149

>  <SCORE.INTRA.POLAR>
-0.58446

>  <SCORE.INTRA.POLAR.0>
0

>  <SCORE.INTRA.REPUL>
-0.092687

>  <SCORE.INTRA.REPUL.0>
0.092687

>  <SCORE.INTRA.SOLV>
0.674597

>  <SCORE.INTRA.SOLV.lig_0>
-120.37

>  <SCORE.INTRA.VDW>
-0.354127

>  <SCORE.INTRA.VDW.0>
-1.75542

>  <SCORE.INTRA.norm>
-0.297686

>  <SCORE.RESTR>
0

>  <SCORE.RESTR.CAVITY>
0

>  <SCORE.RESTR.norm>
0

>  <SCORE.SYSTEM>
0

>  <SCORE.SYSTEM.CONST>
0

>  <SCORE.SYSTEM.DIHEDRAL>
0

>  <SCORE.SYSTEM.SOLV>
0

>  <SCORE.SYSTEM.norm>
0

>  <SCORE.heavy>
31

>  <SCORE.norm>
-1.01228

>  <RMSD>
7.402

$$$$
1byj cryst
 OpenBabel11021811383D
libRbt.so/2013.1/901 2013/11/27
 31 33  0  0  0  0  0  0  0  0999 V2000
    4.1430    7.3077   -3.4756 C   0  0  1  0  0  0  0  0  0  0  0  0
    5.0402    6.5541   -4.3526 O   0  0  0  0  0  0  0  0  0  0  0  0
    6.3747    7.0843   -4.6108 C   0  0  2  0  0  0  0  0  0  0  0  0
    7.2057    7.0408   -3.4090 O   0  0  0  0  0  0  0  0  0  0  0  0
    6.2542    8.5401   -5.1552 C   0  0  2  0  0  0  0  0  0  0  0  0
    7.5605    9.1628   -5.4469 N   0  3  0  0  0  0  0  0  0  0  0  0
    5.4487    9.4152   -4.1605 C   0  0  0  0  0  0  0  0  0  0  0  0
    4.0665    8.8050   -3.8830 C   0  0  0  0  0  0  0  0  0  0  0  0
    2.7337    6.6927   -3.5362 C   0  0  0  0  0  0  0  0  0  0  0  0
    2.5845    5.4703   -2.7357 N   0  3  0  0  0  0  0  0  0  0  0  0
    8.9057    5.4780   -4.2682 C   0  0  1  0  0  0  0  0  0  0  0  0
    9.6210    4.1230   -4.0472 C   0  0  0  0  0  0  0  0  0  0  0  0
    8.5847    2.9720   -3.9422 C   0  0  1  0  0  0  0  0  0  0  0  0
    9.2822    1.6786   -3.8101 N   0  3  0  0  0  0  0  0  0  0  0  0
    7.6107    3.2304   -2.7565 C   0  0  1  0  0  0  0  0  0  0  0  0
    6.9367    4.6213   -2.8635 C   0  0  1  0  0  0  0  0  0  0  0  0
    6.2132    4.8154   -1.6573 O   0  0  0  0  0  0  0  0  0  0  0  0
    7.9282    5.8094   -3.0932 C   0  0  2  0  0  0  0  0  0  0  0  0
    9.8992    6.5474   -4.4695 N   0  3  0  0  0  0  0  0  0  0  0  0
    8.6329    1.9408   -0.5343 C   0  0  0  0  0  0  0  0  0  0  0  0
    7.8311    1.9276    0.7903 C   0  0  2  0  0  0  0  0  0  0  0  0
    8.0797    0.6692    1.4155 O   0  0  0  0  0  0  0  0  0  0  0  0
    6.2977    2.1063    0.4769 C   0  0  1  0  0  0  0  0  0  0  0  0
    5.7913    1.1487   -0.6547 C   0  0  2  0  0  0  0  0  0  0  0  0
    6.7384    1.0855   -1.8798 C   0  0  1  0  0  0  0  0  0  0  0  0
    6.5457    2.2373   -2.7423 O   0  0  0  0  0  0  0  0  0  0  0  0
    8.1256    0.9447   -1.4619 O   0  0  0  0  0  0  0  0  0  0  0  0
    4.4870    1.5117   -1.0998 O   0  0  0  0  0  0  0  0  0  0  0  0
    5.4999    1.9135    1.7278 N   0  3  0  0  0  0  0  0  0  0  0  0
    5.4861    3.0312    2.6935 C   0  0  0  0  0  0  0  0  0  0  0  0
    8.3989    3.0253    1.7235 C   0  0  0  0  0  0  0  0  0  0  0  0
  1  8  1  0  0  0  0
  1  9  1  6  0  0  0
  1  2  1  0  0  0  0
  2  3  1  0  0  0  0
  3  5  1  0  0  0  0
  3  4  1  1  0  0  0
  5  7  1  0  0  0  0
  5  6  1  1  0  0  0
  7  8  1  0  0  0  0
  9 10  1  0  0  0  0
 11 12  1  0  0  0  0
 11 18  1  0  0  0  0
 11 19  1  1  0  0  0
 12 13  1  0  0  0  0
 13 15  1  0  0  0  0
 13 14  1  1  0  0  0
 15 16  1  0  0  0  0
 15 26  1  6  0  0  0
 16 18  1  0  0  0  0
 16 17  1  1  0  0  0
 18  4  1  6  0  0  0
 20 21  1  0  0  0  0
 20 27  1  0  0  0  0
 21 31  1  1  0  0  0
 21 23  1  0  0  0  0
 21 22  1  0  0  0  0
 23 24  1  0  0  0  0
 23 29  1  1  0  0  0
 24 25  1  0  0  0  0
 24 28  1  6  0  0  0
 25 27  1  0  0  0  0
 25 26  1  1  0  0  0
 29 30  1  0  0  0  0
M  CHG  5   6   1  10   1  14   1  19   1  29   1
M  END
>  <CHROM.1>
78.37014662,85.20317976,60.05472976,-72.45532865,-56.19869184,87.35748352
-86.31500977,95.46350034,-177.37749108,-58.28212916,-161.92884044,-177.83908459
108.62589931,6.71469093,4.39288102,-2.28348059,1.72249616,0.41201383,-0.69621844

>  <Name>
1byj cryst

>  <RI>
0

>  <Rbt.Current_Directory>
/home/itssahil/PROJECTS/Mol_Feturizer/New_Systems/rnas/1byj

>  <Rbt.Executable>
rbdock ($Id: //depot/dev/client3/rdock/2013.1/src/exe/rbdock.cxx#4 $)

>  <Rbt.Library>
libRbt.so (2013.1, Build901 2013/11/27)

>  <Rbt.Parameter_File>
/export/apps/rDock/src/rDock_2013.1_src/data/scripts/dock_solv.prm

>  <Rbt.Receptor>
prm/pocket_docking_3.prm

>  <SCORE>
-40.3529

>  <SCORE.INTER>
-41.4137

>  <SCORE.INTER.CONST>
1

>  <SCORE.INTER.POLAR>
-4.68468

>  <SCORE.INTER.ROT>
6

>  <SCORE.INTER.SOLV>
27.4925

>  <SCORE.INTER.VDW>
-28.7577

>  <SCORE.INTER.norm>
-1.33592

>  <SCORE.INTRA>
0.692655

>  <SCORE.INTRA.DIHEDRAL>
0.994995

>  <SCORE.INTRA.DIHEDRAL.0>
18.4149

>  <SCORE.INTRA.POLAR>
-0.679496

>  <SCORE.INTRA.POLAR.0>
0

>  <SCORE.INTRA.REPUL>
-0.092687

>  <SCORE.INTRA.REPUL.0>
0.092687

>  <SCORE.INTRA.SOLV>
2.8082

>  <SCORE.INTRA.SOLV.lig_0>
-120.37

>  <SCORE.INTRA.VDW>
1.56478

>  <SCORE.INTRA.VDW.0>
-1.75542

>  <SCORE.INTRA.norm>
0.0223437

>  <SCORE.RESTR>
0.368137

>  <SCORE.RESTR.CAVITY>
0.368137

>  <SCORE.RESTR.norm>
0.0118754

>  <SCORE.SYSTEM>
0

>  <SCORE.SYSTEM.CONST>
0

>  <SCORE.SYSTEM.DIHEDRAL>
0

>  <SCORE.SYSTEM.SOLV>
0

>  <SCORE.SYSTEM.norm>
0

>  <SCORE.heavy>
31

>  <SCORE.norm>
-1.30171

>  <RMSD>
7.415

$$$$
1byj cryst
 OpenBabel11021811383D
libRbt.so/2013.1/901 2013/11/27
 31 33  0  0  0  0  0  0  0  0999 V2000
    4.5763    8.7587   -2.5407 C   0  0  1  0  0  0  0  0  0  0  0  0
    4.9557    7.6549   -3.4238 O   0  0  0  0  0  0  0  0  0  0  0  0
    6.2800    7.6718   -4.0357 C   0  0  2  0  0  0  0  0  0  0  0  0
    7.3298    7.4825   -3.0363 O   0  0  0  0  0  0  0  0  0  0  0  0
    6.4752    9.0137   -4.8048 C   0  0  2  0  0  0  0  0  0  0  0  0
    7.7933    9.1228   -5.4603 N   0  3  0  0  0  0  0  0  0  0  0  0
    6.2462   10.2129   -3.8490 C   0  0  0  0  0  0  0  0  0  0  0  0
    4.8586   10.1396   -3.1943 C   0  0  0  0  0  0  0  0  0  0  0  0
    3.0782    8.6528   -2.2051 C   0  0  0  0  0  0  0  0  0  0  0  0
    2.6075    9.6752   -1.2615 N   0  3  0  0  0  0  0  0  0  0  0  0
    8.8452    5.9515   -4.2322 C   0  0  1  0  0  0  0  0  0  0  0  0
    9.4829    4.5410   -4.2471 C   0  0  0  0  0  0  0  0  0  0  0  0
    8.3831    3.4467   -4.1954 C   0  0  1  0  0  0  0  0  0  0  0  0
    9.0001    2.1097   -4.2888 N   0  3  0  0  0  0  0  0  0  0  0  0
    7.5279    3.6028   -2.9047 C   0  0  1  0  0  0  0  0  0  0  0  0
    6.9430    5.0317   -2.7764 C   0  0  1  0  0  0  0  0  0  0  0  0
    6.3342    5.1073   -1.4959 O   0  0  0  0  0  0  0  0  0  0  0  0
    7.9906    6.1816   -2.9427 C   0  0  2  0  0  0  0  0  0  0  0  0
    9.8892    6.9801   -4.3853 N   0  3  0  0  0  0  0  0  0  0  0  0
    8.0109    2.0562   -0.4012 C   0  0  0  0  0  0  0  0  0  0  0  0
    6.9713    1.5801    0.6430 C   0  0  2  0  0  0  0  0  0  0  0  0
    7.3164    0.2407    0.9940 O   0  0  0  0  0  0  0  0  0  0  0  0
    5.5289    1.6420    0.0129 C   0  0  1  0  0  0  0  0  0  0  0  0
    5.4528    0.9741   -1.4021 C   0  0  2  0  0  0  0  0  0  0  0  0
    6.6258    1.3686   -2.3351 C   0  0  1  0  0  0  0  0  0  0  0  0
    6.4029    2.6783   -2.9205 O   0  0  0  0  0  0  0  0  0  0  0  0
    7.8992    1.2957   -1.6337 O   0  0  0  0  0  0  0  0  0  0  0  0
    4.2232    1.2768   -2.0560 O   0  0  0  0  0  0  0  0  0  0  0  0
    4.5418    1.0153    0.9462 N   0  3  0  0  0  0  0  0  0  0  0  0
    3.7385    1.9283    1.7848 C   0  0  0  0  0  0  0  0  0  0  0  0
    7.1210    2.4435    1.9198 C   0  0  0  0  0  0  0  0  0  0  0  0
  1  8  1  0  0  0  0
  1  9  1  6  0  0  0
  1  2  1  0  0  0  0
  2  3  1  0  0  0  0
  3  5  1  0  0  0  0
  3  4  1  1  0  0  0
  5  7  1  0  0  0  0
  5  6  1  1  0  0  0
  7  8  1  0  0  0  0
  9 10  1  0  0  0  0
 11 12  1  0  0  0  0
 11 18  1  0  0  0  0
 11 19  1  1  0  0  0
 12 13  1  0  0  0  0
 13 15  1  0  0  0  0
 13 14  1  1  0  0  0
 15 16  1  0  0  0  0
 15 26  1  6  0  0  0
 16 18  1  0  0  0  0
 16 17  1  1  0  0  0
 18  4  1  6  0  0  0
 20 21  1  0  0  0  0
 20 27  1  0  0  0  0
 21 31  1  1  0  0  0
 21 23  1  0  0  0  0
 21 22  1  0  0  0  0
 23 24  1  0  0  0  0
 23 29  1  1  0  0  0
 24 25  1  0  0  0  0
 24 28  1  6  0  0  0
 25 27  1  0  0  0  0
 25 26  1  1  0  0  0
 29 30  1  0  0  0  0
M  CHG  5   6   1  10   1  14   1  19   1  29   1
M  END
>  <CHROM.1>
176.84138839,104.00004842,68.05107481,39.05225743,-48.37528782,-159.01408547
-108.50865562,90.08975924,-176.07379560,57.10726668,-139.20075383,67.52735052
133.98378495,6.52444133,4.82489620,-2.23632497,1.61557044,0.62597398,-0.44966742

>  <Name>
1byj cryst

>  <RI>
0

>  <Rbt.Current_Directory>
/home/itssahil/PROJECTS/Mol_Feturizer/New_Systems/rnas/1byj

>  <Rbt.Executable>
rbdock ($Id: //depot/dev/client3/rdock/2013.1/src/exe/rbdock.cxx#4 $)

>  <Rbt.Library>
libRbt.so (2013.1, Build901 2013/11/27)

>  <Rbt.Parameter_File>
/export/apps/rDock/src/rDock_2013.1_src/data/scripts/dock_solv.prm

>  <Rbt.Receptor>
prm/pocket_docking_7.prm

>  <SCORE>
-44.6547

>  <SCORE.INTER>
-45.7663

>  <SCORE.INTER.CONST>
1

>  <SCORE.INTER.POLAR>
-6.4142

>  <SCORE.INTER.ROT>
6

>  <SCORE.INTER.SOLV>
27.4335

>  <SCORE.INTER.VDW>
-25.8747

>  <SCORE.INTER.norm>
-1.47633

>  <SCORE.INTRA>
1.11162

>  <SCORE.INTRA.DIHEDRAL>
6.60821

>  <SCORE.INTRA.DIHEDRAL.0>
18.4149

>  <SCORE.INTRA.POLAR>
-1.29009

>  <SCORE.INTRA.POLAR.0>
0

>  <SCORE.INTRA.REPUL>
-0.092687

>  <SCORE.INTRA.REPUL.0>
0.092687

>  <SCORE.INTRA.SOLV>
3.52876

>  <SCORE.INTRA.SOLV.lig_0>
-120.37

>  <SCORE.INTRA.VDW>
0.892862

>  <SCORE.INTRA.VDW.0>
-1.75542

>  <SCORE.INTRA.norm>
0.0358587

>  <SCORE.RESTR>
0

>  <SCORE.RESTR.CAVITY>
0

>  <SCORE.RESTR.norm>
0

>  <SCORE.SYSTEM>
0

>  <SCORE.SYSTEM.CONST>
0

>  <SCORE.SYSTEM.DIHEDRAL>
0

>  <SCORE.SYSTEM.SOLV>
0

>  <SCORE.SYSTEM.norm>
0

>  <SCORE.heavy>
31

>  <SCORE.norm>
-1.44047

>  <RMSD>
7.419

$$$$
1byj cryst
 OpenBabel11021811383D
libRbt.so/2013.1/901 2013/11/27
 31 33  0  0  0  0  0  0  0  0999 V2000
    4.1907    7.1351   -3.3289 C   0  0  1  0  0  0  0  0  0  0  0  0
    5.0999    6.3203   -4.1361 O   0  0  0  0  0  0  0  0  0  0  0  0
    6.4409    6.8275   -4.4064 C   0  0  2  0  0  0  0  0  0  0  0  0
    7.2506    6.8642   -3.1899 O   0  0  0  0  0  0  0  0  0  0  0  0
    6.3360    8.2429   -5.0515 C   0  0  2  0  0  0  0  0  0  0  0  0
    7.6498    8.8400   -5.3621 N   0  3  0  0  0  0  0  0  0  0  0  0
    5.5169    9.1866   -4.1337 C   0  0  0  0  0  0  0  0  0  0  0  0
    4.1276    8.6011   -3.8395 C   0  0  0  0  0  0  0  0  0  0  0  0
    2.7800    6.5216   -3.3721 C   0  0  0  0  0  0  0  0  0  0  0  0
    1.7996    7.2278   -2.5370 N   0  3  0  0  0  0  0  0  0  0  0  0
    8.9206    5.3037   -4.1099 C   0  0  1  0  0  0  0  0  0  0  0  0
    9.7357    4.0122   -3.8567 C   0  0  0  0  0  0  0  0  0  0  0  0
    8.7893    2.8307   -3.5131 C   0  0  1  0  0  0  0  0  0  0  0  0
    9.5722    1.5907   -3.3511 N   0  3  0  0  0  0  0  0  0  0  0  0
    7.9547    3.1610   -2.2418 C   0  0  1  0  0  0  0  0  0  0  0  0
    7.1926    4.5015   -2.3912 C   0  0  1  0  0  0  0  0  0  0  0  0
    6.6125    4.7815   -1.1258 O   0  0  0  0  0  0  0  0  0  0  0  0
    8.0771    5.7053   -2.8556 C   0  0  2  0  0  0  0  0  0  0  0  0
    9.8177    6.3926   -4.5354 N   0  3  0  0  0  0  0  0  0  0  0  0
    8.3423    2.6448    0.6728 C   0  0  0  0  0  0  0  0  0  0  0  0
    7.2603    2.3928    1.7514 C   0  0  2  0  0  0  0  0  0  0  0  0
    7.7279    1.3203    2.5682 O   0  0  0  0  0  0  0  0  0  0  0  0
    5.9004    2.0150    1.0519 C   0  0  1  0  0  0  0  0  0  0  0  0
    6.0656    0.9067   -0.0429 C   0  0  2  0  0  0  0  0  0  0  0  0
    7.2768    1.1410   -0.9809 C   0  0  1  0  0  0  0  0  0  0  0  0
    6.9595    2.1260   -1.9991 O   0  0  0  0  0  0  0  0  0  0  0  0
    8.4636    1.5064   -0.2213 O   0  0  0  0  0  0  0  0  0  0  0  0
    4.8882    0.7775   -0.8355 O   0  0  0  0  0  0  0  0  0  0  0  0
    4.9012    1.5940    2.0828 N   0  3  0  0  0  0  0  0  0  0  0  0
    3.4947    1.4797    1.6461 C   0  0  0  0  0  0  0  0  0  0  0  0
    7.1589    3.6476    2.6533 C   0  0  0  0  0  0  0  0  0  0  0  0
  1  8  1  0  0  0  0
  1  9  1  6  0  0  0
  1  2  1  0  0  0  0
  2  3  1  0  0  0  0
  3  5  1  0  0  0  0
  3  4  1  1  0  0  0
  5  7  1  0  0  0  0
  5  6  1  1  0  0  0
  7  8  1  0  0  0  0
  9 10  1  0  0  0  0
 11 12  1  0  0  0  0
 11 18  1  0  0  0  0
 11 19  1  1  0  0  0
 12 13  1  0  0  0  0
 13 15  1  0  0  0  0
 13 14  1  1  0  0  0
 15 16  1  0  0  0  0
 15 26  1  6  0  0  0
 16 18  1  0  0  0  0
 16 17  1  1  0  0  0
 18  4  1  6  0  0  0
 20 21  1  0  0  0  0
 20 27  1  0  0  0  0
 21 31  1  1  0  0  0
 21 23  1  0  0  0  0
 21 22  1  0  0  0  0
 23 24  1  0  0  0  0
 23 29  1  1  0  0  0
 24 25  1  0  0  0  0
 24 28  1  6  0  0  0
 25 27  1  0  0  0  0
 25 26  1  6  0  0  0
 29 30  1  0  0  0  0
M  CHG  5   6   1  10   1  14   1  19   1  29   1
M  END
>  <CHROM.1>
177.12688961,91.81488701,49.98836873,-72.48682414,70.35979075,81.34461089
-55.11624453,100.57621850,-53.24710960,-65.58874976,-71.52947623,-170.56312553
134.24202558,6.64763974,4.35889013,-1.88823394,1.65874566,0.39550290,-0.73471003

>  <Name>
1byj cryst

>  <RI>
0

>  <Rbt.Current_Directory>
/home/itssahil/PROJECTS/Mol_Feturizer/New_Systems/rnas/1byj

>  <Rbt.Executable>
rbdock ($Id: //depot/dev/client3/rdock/2013.1/src/exe/rbdock.cxx#4 $)

>  <Rbt.Library>
libRbt.so (2013.1, Build901 2013/11/27)

>  <Rbt.Parameter_File>
/export/apps/rDock/src/rDock_2013.1_src/data/scripts/dock_solv.prm

>  <Rbt.Receptor>
prm/pocket_docking_4.prm

>  <SCORE>
-39.7466

>  <SCORE.INTER>
-40.026

>  <SCORE.INTER.CONST>
1

>  <SCORE.INTER.POLAR>
-5.09987

>  <SCORE.INTER.ROT>
6

>  <SCORE.INTER.SOLV>
25.5895

>  <SCORE.INTER.VDW>
-25.8143

>  <SCORE.INTER.norm>
-1.29116

>  <SCORE.INTRA>
0.229659

>  <SCORE.INTRA.DIHEDRAL>
0.854743

>  <SCORE.INTRA.DIHEDRAL.0>
18.4149

>  <SCORE.INTRA.POLAR>
-0.013108

>  <SCORE.INTRA.POLAR.0>
0

>  <SCORE.INTRA.REPUL>
-0.092687

>  <SCORE.INTRA.REPUL.0>
0.092687

>  <SCORE.INTRA.SOLV>
2.29507

>  <SCORE.INTRA.SOLV.lig_0>
-120.37

>  <SCORE.INTRA.VDW>
-0.837245

>  <SCORE.INTRA.VDW.0>
-1.75542

>  <SCORE.INTRA.norm>
0.00740837

>  <SCORE.RESTR>
0.0497865

>  <SCORE.RESTR.CAVITY>
0.0497865

>  <SCORE.RESTR.norm>
0.00160602

>  <SCORE.SYSTEM>
0

>  <SCORE.SYSTEM.CONST>
0

>  <SCORE.SYSTEM.DIHEDRAL>
0

>  <SCORE.SYSTEM.SOLV>
0

>  <SCORE.SYSTEM.norm>
0

>  <SCORE.heavy>
31

>  <SCORE.norm>
-1.28215

>  <RMSD>
7.440

$$$$
1byj cryst
 OpenBabel11021811383D
libRbt.so/2013.1/901 2013/11/27
 31 33  0  0  0  0  0  0  0  0999 V2000
    8.0359    8.6115   -2.1868 C   0  0  1  0  0  0  0  0  0  0  0  0
    7.1814    7.4669   -1.8678 O   0  0  0  0  0  0  0  0  0  0  0  0
    6.4236    6.8378   -2.9442 C   0  0  2  0  0  0  0  0  0  0  0  0
    7.3071    6.1558   -3.8881 O   0  0  0  0  0  0  0  0  0  0  0  0
    5.5604    7.9170   -3.6656 C   0  0  2  0  0  0  0  0  0  0  0  0
    4.7546    7.3716   -4.7757 N   0  3  0  0  0  0  0  0  0  0  0  0
    6.4643    9.0712   -4.1703 C   0  0  0  0  0  0  0  0  0  0  0  0
    7.2750    9.6817   -3.0172 C   0  0  0  0  0  0  0  0  0  0  0  0
    8.5444    9.2489   -0.8818 C   0  0  0  0  0  0  0  0  0  0  0  0
    8.5286    8.3374    0.2697 N   0  3  0  0  0  0  0  0  0  0  0  0
    8.7253    4.2978   -4.6674 C   0  0  1  0  0  0  0  0  0  0  0  0
    9.4565    2.9945   -4.2635 C   0  0  0  0  0  0  0  0  0  0  0  0
    8.4637    1.9930   -3.6145 C   0  0  1  0  0  0  0  0  0  0  0  0
    9.1565    0.7274   -3.3060 N   0  3  0  0  0  0  0  0  0  0  0  0
    7.8135    2.6227   -2.3487 C   0  0  1  0  0  0  0  0  0  0  0  0
    7.1508    3.9868   -2.6654 C   0  0  1  0  0  0  0  0  0  0  0  0
    6.7476    4.5405   -1.4216 O   0  0  0  0  0  0  0  0  0  0  0  0
    8.0699    4.9954   -3.4305 C   0  0  2  0  0  0  0  0  0  0  0  0
    9.6520    5.1993   -5.3745 N   0  3  0  0  0  0  0  0  0  0  0  0
    8.8359    2.2409    0.3758 C   0  0  0  0  0  0  0  0  0  0  0  0
    8.0268    2.2987    1.6947 C   0  0  2  0  0  0  0  0  0  0  0  0
    8.5002    1.2361    2.5211 O   0  0  0  0  0  0  0  0  0  0  0  0
    6.4938    2.1237    1.3775 C   0  0  1  0  0  0  0  0  0  0  0  0
    6.2018    0.9089    0.4325 C   0  0  2  0  0  0  0  0  0  0  0  0
    7.1662    0.8221   -0.7775 C   0  0  1  0  0  0  0  0  0  0  0  0
    6.7725    1.7522   -1.8204 O   0  0  0  0  0  0  0  0  0  0  0  0
    8.5466    1.0233   -0.3616 O   0  0  0  0  0  0  0  0  0  0  0  0
    4.8606    0.9337   -0.0491 O   0  0  0  0  0  0  0  0  0  0  0  0
    5.7244    1.9961    2.6543 N   0  3  0  0  0  0  0  0  0  0  0  0
    5.6255    3.2023    3.5011 C   0  0  0  0  0  0  0  0  0  0  0  0
    8.3560    3.6270    2.4196 C   0  0  0  0  0  0  0  0  0  0  0  0
  1  8  1  0  0  0  0
  1  9  1  1  0  0  0
  1  2  1  0  0  0  0
  2  3  1  0  0  0  0
  3  5  1  0  0  0  0
  3  4  1  6  0  0  0
  5  7  1  0  0  0  0
  5  6  1  6  0  0  0
  7  8  1  0  0  0  0
  9 10  1  0  0  0  0
 11 12  1  0  0  0  0
 11 18  1  0  0  0  0
 11 19  1  1  0  0  0
 12 13  1  0  0  0  0
 13 15  1  0  0  0  0
 13 14  1  1  0  0  0
 15 16  1  0  0  0  0
 15 26  1  6  0  0  0
 16 18  1  0  0  0  0
 16 17  1  1  0  0  0
 18  4  1  6  0  0  0
 20 21  1  0  0  0  0
 20 27  1  0  0  0  0
 21 31  1  1  0  0  0
 21 23  1  0  0  0  0
 21 22  1  0  0  0  0
 23 24  1  0  0  0  0
 23 29  1  1  0  0  0
 24 25  1  0  0  0  0
 24 28  1  6  0  0  0
 25 27  1  0  0  0  0
 25 26  1  6  0  0  0
 29 30  1  0  0  0  0
M  CHG  5   6   1  10   1  14   1  19   1  29   1
M  END
>  <CHROM.1>
22.54981355,65.70580900,169.87033219,-179.75599625,-175.80776426,-76.97198645
56.09983335,93.66790773,-147.78760667,55.23563586,-169.49094646,-58.02059298
129.81759308,7.42519934,4.30971971,-1.46849055,1.53707630,1.32543488,-0.57819707

>  <Name>
1byj cryst

>  <RI>
0

>  <Rbt.Current_Directory>
/home/itssahil/PROJECTS/Mol_Feturizer/New_Systems/rnas/1byj

>  <Rbt.Executable>
rbdock ($Id: //depot/dev/client3/rdock/2013.1/src/exe/rbdock.cxx#4 $)

>  <Rbt.Library>
libRbt.so (2013.1, Build901 2013/11/27)

>  <Rbt.Parameter_File>
/export/apps/rDock/src/rDock_2013.1_src/data/scripts/dock_solv.prm

>  <Rbt.Receptor>
prm/blind_docking_60.prm

>  <SCORE>
-14.2347

>  <SCORE.INTER>
-23.5389

>  <SCORE.INTER.CONST>
1

>  <SCORE.INTER.POLAR>
-4.26736

>  <SCORE.INTER.ROT>
6

>  <SCORE.INTER.SOLV>
34.2656

>  <SCORE.INTER.VDW>
-20.49

>  <SCORE.INTER.norm>
-0.759321

>  <SCORE.INTRA>
2.97211

>  <SCORE.INTRA.DIHEDRAL>
2.15889

>  <SCORE.INTRA.DIHEDRAL.0>
18.4149

>  <SCORE.INTRA.POLAR>
-0.0263105

>  <SCORE.INTRA.POLAR.0>
0

>  <SCORE.INTRA.REPUL>
-0.092687

>  <SCORE.INTRA.REPUL.0>
0.092687

>  <SCORE.INTRA.SOLV>
-2.26671

>  <SCORE.INTRA.SOLV.lig_0>
-120.37

>  <SCORE.INTRA.VDW>
3.57891

>  <SCORE.INTRA.VDW.0>
-1.75542

>  <SCORE.INTRA.norm>
0.0958745

>  <SCORE.RESTR>
6.33209

>  <SCORE.RESTR.CAVITY>
6.33209

>  <SCORE.RESTR.norm>
0.204261

>  <SCORE.SYSTEM>
0

>  <SCORE.SYSTEM.CONST>
0

>  <SCORE.SYSTEM.DIHEDRAL>
0

>  <SCORE.SYSTEM.SOLV>
0

>  <SCORE.SYSTEM.norm>
0

>  <SCORE.heavy>
31

>  <SCORE.norm>
-0.459185

>  <RMSD>
7.457

$$$$
1byj cryst
 OpenBabel11021811383D
libRbt.so/2013.1/901 2013/11/27
 31 33  0  0  0  0  0  0  0  0999 V2000
    1.9889    4.0893   -1.5552 C   0  0  1  0  0  0  0  0  0  0  0  0
    2.3218    4.8759   -2.7437 O   0  0  0  0  0  0  0  0  0  0  0  0
    2.0581    6.3108   -2.7296 C   0  0  2  0  0  0  0  0  0  0  0  0
    2.9394    7.0041   -1.7920 O   0  0  0  0  0  0  0  0  0  0  0  0
    0.5599    6.5558   -2.3748 C   0  0  2  0  0  0  0  0  0  0  0  0
    0.1970    7.9861   -2.3363 N   0  3  0  0  0  0  0  0  0  0  0  0
    0.2144    5.8742   -1.0256 C   0  0  0  0  0  0  0  0  0  0  0  0
    0.5422    4.3741   -1.0654 C   0  0  0  0  0  0  0  0  0  0  0  0
    2.1297    2.5913   -1.8780 C   0  0  0  0  0  0  0  0  0  0  0  0
    1.4269    2.1786   -3.0999 N   0  3  0  0  0  0  0  0  0  0  0  0
    4.3918    7.3849   -3.7454 C   0  0  1  0  0  0  0  0  0  0  0  0
    5.8495    7.5571   -4.2374 C   0  0  0  0  0  0  0  0  0  0  0  0
    6.7170    6.3460   -3.8013 C   0  0  1  0  0  0  0  0  0  0  0  0
    8.0825    6.4854   -4.3425 N   0  3  0  0  0  0  0  0  0  0  0  0
    6.7175    6.2140   -2.2508 C   0  0  1  0  0  0  0  0  0  0  0  0
    5.2777    6.1415   -1.6832 C   0  0  1  0  0  0  0  0  0  0  0  0
    5.3958    6.1960   -0.2693 O   0  0  0  0  0  0  0  0  0  0  0  0
    4.3214    7.2723   -2.1871 C   0  0  2  0  0  0  0  0  0  0  0  0
    3.5539    8.4865   -4.2512 N   0  3  0  0  0  0  0  0  0  0  0  0
    8.7431    3.0771   -3.7998 C   0  0  0  0  0  0  0  0  0  0  0  0
    9.0698    1.8085   -2.9743 C   0  0  2  0  0  0  0  0  0  0  0  0
    8.3509    0.7283   -3.5680 O   0  0  0  0  0  0  0  0  0  0  0  0
    8.6236    2.0262   -1.4794 C   0  0  1  0  0  0  0  0  0  0  0  0
    7.1651    2.5839   -1.3538 C   0  0  2  0  0  0  0  0  0  0  0  0
    6.8608    3.7437   -2.3357 C   0  0  1  0  0  0  0  0  0  0  0  0
    7.4025    4.9963   -1.8403 O   0  0  0  0  0  0  0  0  0  0  0  0
    7.3409    3.4349   -3.6747 O   0  0  0  0  0  0  0  0  0  0  0  0
    6.8864    3.0203   -0.0260 O   0  0  0  0  0  0  0  0  0  0  0  0
    8.7670    0.7469   -0.7172 N   0  3  0  0  0  0  0  0  0  0  0  0
    8.5806    0.8137    0.7466 C   0  0  0  0  0  0  0  0  0  0  0  0
   10.5788    1.4948   -3.1250 C   0  0  0  0  0  0  0  0  0  0  0  0
  1  8  1  0  0  0  0
  1  9  1  6  0  0  0
  1  2  1  0  0  0  0
  2  3  1  0  0  0  0
  3  5  1  0  0  0  0
  3  4  1  1  0  0  0
  5  7  1  0  0  0  0
  5  6  1  1  0  0  0
  7  8  1  0  0  0  0
  9 10  1  0  0  0  0
 11 12  1  0  0  0  0
 11 18  1  0  0  0  0
 11 19  1  1  0  0  0
 12 13  1  0  0  0  0
 13 15  1  0  0  0  0
 13 14  1  1  0  0  0
 15 16  1  0  0  0  0
 15 26  1  6  0  0  0
 16 18  1  0  0  0  0
 16 17  1  1  0  0  0
 18  4  1  6  0  0  0
 20 21  1  0  0  0  0
 20 27  1  0  0  0  0
 21 31  1  6  0  0  0
 21 23  1  0  0  0  0
 21 22  1  0  0  0  0
 23 24  1  0  0  0  0
 23 29  1  1  0  0  0
 24 25  1  0  0  0  0
 24 28  1  1  0  0  0
 25 27  1  0  0  0  0
 25 26  1  1  0  0  0
 29 30  1  0  0  0  0
M  CHG  5   6   1  10   1  14   1  19   1  29   1
M  END
>  <CHROM.1>
-50.40063555,78.04406272,27.38898239,43.81034190,-175.51732711,149.39391328
-55.79201081,-59.43276766,-175.36700979,59.94407259,-67.58810788,66.84247799
-151.94798448,5.26008252,4.58603320,-2.31232431,2.62021422,0.20219107,-0.38893725

>  <Name>
1byj cryst

>  <RI>
0

>  <Rbt.Current_Directory>
/home/itssahil/PROJECTS/Mol_Feturizer/New_Systems/rnas/1byj

>  <Rbt.Executable>
rbdock ($Id: //depot/dev/client3/rdock/2013.1/src/exe/rbdock.cxx#4 $)

>  <Rbt.Library>
libRbt.so (2013.1, Build901 2013/11/27)

>  <Rbt.Parameter_File>
/export/apps/rDock/src/rDock_2013.1_src/data/scripts/dock_solv.prm

>  <Rbt.Receptor>
prm/pocket_docking_4.prm

>  <SCORE>
-36.4433

>  <SCORE.INTER>
-34.9688

>  <SCORE.INTER.CONST>
1

>  <SCORE.INTER.POLAR>
-4.9991

>  <SCORE.INTER.ROT>
6

>  <SCORE.INTER.SOLV>
23.3952

>  <SCORE.INTER.VDW>
-22.0473

>  <SCORE.INTER.norm>
-1.12802

>  <SCORE.INTRA>
-1.47457

>  <SCORE.INTRA.DIHEDRAL>
-5.89094

>  <SCORE.INTRA.DIHEDRAL.0>
18.4149

>  <SCORE.INTRA.POLAR>
-0.0219564

>  <SCORE.INTRA.POLAR.0>
0

>  <SCORE.INTRA.REPUL>
0.0072651

>  <SCORE.INTRA.REPUL.0>
0.092687

>  <SCORE.INTRA.SOLV>
0.898703

>  <SCORE.INTRA.SOLV.lig_0>
-120.37

>  <SCORE.INTRA.VDW>
1.05988

>  <SCORE.INTRA.VDW.0>
-1.75542

>  <SCORE.INTRA.norm>
-0.0475667

>  <SCORE.RESTR>
0

>  <SCORE.RESTR.CAVITY>
0

>  <SCORE.RESTR.norm>
0

>  <SCORE.SYSTEM>
0

>  <SCORE.SYSTEM.CONST>
0

>  <SCORE.SYSTEM.DIHEDRAL>
0

>  <SCORE.SYSTEM.SOLV>
0

>  <SCORE.SYSTEM.norm>
0

>  <SCORE.heavy>
31

>  <SCORE.norm>
-1.17559

>  <RMSD>
7.460

$$$$
1byj cryst
 OpenBabel11021811383D
libRbt.so/2013.1/901 2013/11/27
 31 33  0  0  0  0  0  0  0  0999 V2000
    7.9972    8.7102   -2.2656 C   0  0  1  0  0  0  0  0  0  0  0  0
    7.1975    7.5938   -1.7595 O   0  0  0  0  0  0  0  0  0  0  0  0
    6.3466    6.8629   -2.6925 C   0  0  2  0  0  0  0  0  0  0  0  0
    7.1428    6.1032   -3.6547 O   0  0  0  0  0  0  0  0  0  0  0  0
    5.3984    7.8651   -3.4184 C   0  0  2  0  0  0  0  0  0  0  0  0
    4.4951    7.2141   -4.3877 N   0  3  0  0  0  0  0  0  0  0  0  0
    6.2287    8.9743   -4.1143 C   0  0  0  0  0  0  0  0  0  0  0  0
    7.1401    9.6941   -3.1089 C   0  0  0  0  0  0  0  0  0  0  0  0
    8.6228    9.4686   -1.0817 C   0  0  0  0  0  0  0  0  0  0  0  0
   10.0914    9.4828   -1.0951 N   0  3  0  0  0  0  0  0  0  0  0  0
    8.6718    4.3184   -4.3941 C   0  0  1  0  0  0  0  0  0  0  0  0
    9.4533    3.0509   -3.9704 C   0  0  0  0  0  0  0  0  0  0  0  0
    8.4916    2.0007   -3.3523 C   0  0  1  0  0  0  0  0  0  0  0  0
    9.2357    0.7694   -3.0251 N   0  3  0  0  0  0  0  0  0  0  0  0
    7.7745    2.5948   -2.1055 C   0  0  1  0  0  0  0  0  0  0  0  0
    7.0560    3.9259   -2.4399 C   0  0  1  0  0  0  0  0  0  0  0  0
    6.5899    4.4560   -1.2079 O   0  0  0  0  0  0  0  0  0  0  0  0
    7.9472    4.9800   -3.1762 C   0  0  2  0  0  0  0  0  0  0  0  0
    9.5742    5.2656   -5.0722 N   0  3  0  0  0  0  0  0  0  0  0  0
    8.9205    2.1423    0.4980 C   0  0  0  0  0  0  0  0  0  0  0  0
    8.1651    2.2371    1.8463 C   0  0  2  0  0  0  0  0  0  0  0  0
    8.6457    1.1747    2.6689 O   0  0  0  0  0  0  0  0  0  0  0  0
    6.6172    2.0943    1.5914 C   0  0  1  0  0  0  0  0  0  0  0  0
    6.2603    0.8742    0.6760 C   0  0  2  0  0  0  0  0  0  0  0  0
    7.1744    0.7482   -0.5692 C   0  0  1  0  0  0  0  0  0  0  0  0
    6.7619    1.6733   -1.6093 O   0  0  0  0  0  0  0  0  0  0  0  0
    8.5743    0.9222   -0.2101 O   0  0  0  0  0  0  0  0  0  0  0  0
    4.9023    0.9244    0.2465 O   0  0  0  0  0  0  0  0  0  0  0  0
    5.8956    2.0023    2.8987 N   0  3  0  0  0  0  0  0  0  0  0  0
    4.5195    2.5372    2.9443 C   0  0  0  0  0  0  0  0  0  0  0  0
    8.5532    3.5668    2.5386 C   0  0  0  0  0  0  0  0  0  0  0  0
  1  8  1  0  0  0  0
  1  9  1  1  0  0  0
  1  2  1  0  0  0  0
  2  3  1  0  0  0  0
  3  5  1  0  0  0  0
  3  4  1  6  0  0  0
  5  7  1  0  0  0  0
  5  6  1  6  0  0  0
  7  8  1  0  0  0  0
  9 10  1  0  0  0  0
 11 12  1  0  0  0  0
 11 18  1  0  0  0  0
 11 19  1  1  0  0  0
 12 13  1  0  0  0  0
 13 15  1  0  0  0  0
 13 14  1  1  0  0  0
 15 16  1  0  0  0  0
 15 26  1  6  0  0  0
 16 18  1  0  0  0  0
 16 17  1  1  0  0  0
 18  4  1  6  0  0  0
 20 21  1  0  0  0  0
 20 27  1  0  0  0  0
 21 31  1  1  0  0  0
 21 23  1  0  0  0  0
 21 22  1  0  0  0  0
 23 24  1  0  0  0  0
 23 29  1  1  0  0  0
 24 25  1  0  0  0  0
 24 28  1  6  0  0  0
 25 27  1  0  0  0  0
 25 26  1  6  0  0  0
 29 30  1  0  0  0  0
M  CHG  5   6   1  10   1  14   1  19   1  29   1
M  END
>  <CHROM.1>
119.33361709,66.80823088,178.70742766,110.76538431,-84.74250642,166.04441616
-7.51762881,92.85220166,56.55964095,-74.00822298,-89.20540657,-63.51373626
124.45953502,7.43801412,4.31411062,-1.36241935,1.45936344,1.25827445,-0.46133470

>  <Name>
1byj cryst

>  <RI>
0

>  <Rbt.Current_Directory>
/home/itssahil/PROJECTS/Mol_Feturizer/New_Systems/rnas/1byj

>  <Rbt.Executable>
rbdock ($Id: //depot/dev/client3/rdock/2013.1/src/exe/rbdock.cxx#4 $)

>  <Rbt.Library>
libRbt.so (2013.1, Build901 2013/11/27)

>  <Rbt.Parameter_File>
/export/apps/rDock/src/rDock_2013.1_src/data/scripts/dock_solv.prm

>  <Rbt.Receptor>
prm/blind_docking_60.prm

>  <SCORE>
-26.8493

>  <SCORE.INTER>
-35.1252

>  <SCORE.INTER.CONST>
1

>  <SCORE.INTER.POLAR>
-6.03139

>  <SCORE.INTER.ROT>
6

>  <SCORE.INTER.SOLV>
35.8442

>  <SCORE.INTER.VDW>
-22.8602

>  <SCORE.INTER.norm>
-1.13307

>  <SCORE.INTRA>
1.03465

>  <SCORE.INTRA.DIHEDRAL>
9.84282

>  <SCORE.INTRA.DIHEDRAL.0>
18.4149

>  <SCORE.INTRA.POLAR>
-1.16667

>  <SCORE.INTRA.POLAR.0>
0

>  <SCORE.INTRA.REPUL>
-0.092687

>  <SCORE.INTRA.REPUL.0>
0.092687

>  <SCORE.INTRA.SOLV>
-2.45991

>  <SCORE.INTRA.SOLV.lig_0>
-120.37

>  <SCORE.INTRA.VDW>
1.7733

>  <SCORE.INTRA.VDW.0>
-1.75542

>  <SCORE.INTRA.norm>
0.0333758

>  <SCORE.RESTR>
7.24126

>  <SCORE.RESTR.CAVITY>
7.24126

>  <SCORE.RESTR.norm>
0.233589

>  <SCORE.SYSTEM>
0

>  <SCORE.SYSTEM.CONST>
0

>  <SCORE.SYSTEM.DIHEDRAL>
0

>  <SCORE.SYSTEM.SOLV>
0

>  <SCORE.SYSTEM.norm>
0

>  <SCORE.heavy>
31

>  <SCORE.norm>
-0.866106

>  <RMSD>
7.511

$$$$
1byj cryst
 OpenBabel11021811383D
libRbt.so/2013.1/901 2013/11/27
 31 33  0  0  0  0  0  0  0  0999 V2000
    6.4034    9.6686   -4.5090 C   0  0  1  0  0  0  0  0  0  0  0  0
    7.7819    9.2021   -4.3529 O   0  0  0  0  0  0  0  0  0  0  0  0
    8.0696    8.1974   -3.3349 C   0  0  2  0  0  0  0  0  0  0  0  0
    7.4720    6.9079   -3.6767 O   0  0  0  0  0  0  0  0  0  0  0  0
    7.5561    8.7030   -1.9524 C   0  0  2  0  0  0  0  0  0  0  0  0
    7.8040    7.7480   -0.8544 N   0  3  0  0  0  0  0  0  0  0  0  0
    6.0468    9.0470   -2.0389 C   0  0  0  0  0  0  0  0  0  0  0  0
    5.7781   10.0767   -3.1466 C   0  0  0  0  0  0  0  0  0  0  0  0
    6.3777   10.8770   -5.4615 C   0  0  0  0  0  0  0  0  0  0  0  0
    7.6641   11.5781   -5.5659 N   0  3  0  0  0  0  0  0  0  0  0  0
    9.2126    5.3616   -4.4825 C   0  0  1  0  0  0  0  0  0  0  0  0
    9.9322    4.0124   -4.2405 C   0  0  0  0  0  0  0  0  0  0  0  0
    8.9031    2.8522   -4.1714 C   0  0  1  0  0  0  0  0  0  0  0  0
    9.6072    1.5647   -4.0187 N   0  3  0  0  0  0  0  0  0  0  0  0
    7.8886    3.0999   -3.0177 C   0  0  1  0  0  0  0  0  0  0  0  0
    7.2064    4.4851   -3.1444 C   0  0  1  0  0  0  0  0  0  0  0  0
    6.4422    4.6706   -1.9622 O   0  0  0  0  0  0  0  0  0  0  0  0
    8.1944    5.6823   -3.3396 C   0  0  2  0  0  0  0  0  0  0  0  0
   10.2028    6.4400   -4.6494 N   0  3  0  0  0  0  0  0  0  0  0  0
    8.2659    2.1118   -0.3447 C   0  0  0  0  0  0  0  0  0  0  0  0
    7.1507    1.9359    0.7151 C   0  0  2  0  0  0  0  0  0  0  0  0
    7.4294    0.7248    1.4163 O   0  0  0  0  0  0  0  0  0  0  0  0
    5.7513    1.8597   -0.0041 C   0  0  1  0  0  0  0  0  0  0  0  0
    5.7373    0.8541   -1.2052 C   0  0  2  0  0  0  0  0  0  0  0  0
    6.9763    0.9772   -2.1281 C   0  0  1  0  0  0  0  0  0  0  0  0
    6.8325    2.0976   -3.0400 O   0  0  0  0  0  0  0  0  0  0  0  0
    8.2025    1.0639   -1.3486 O   0  0  0  0  0  0  0  0  0  0  0  0
    4.5596    1.0009   -1.9942 O   0  0  0  0  0  0  0  0  0  0  0  0
    4.6900    1.5090    0.9904 N   0  3  0  0  0  0  0  0  0  0  0  0
    4.2390    0.1028    1.0223 C   0  0  0  0  0  0  0  0  0  0  0  0
    7.2529    3.0940    1.7380 C   0  0  0  0  0  0  0  0  0  0  0  0
  1  8  1  0  0  0  0
  1  9  1  6  0  0  0
  1  2  1  0  0  0  0
  2  3  1  0  0  0  0
  3  5  1  0  0  0  0
  3  4  1  6  0  0  0
  5  7  1  0  0  0  0
  5  6  1  1  0  0  0
  7  8  1  0  0  0  0
  9 10  1  0  0  0  0
 11 12  1  0  0  0  0
 11 18  1  0  0  0  0
 11 19  1  1  0  0  0
 12 13  1  0  0  0  0
 13 15  1  0  0  0  0
 13 14  1  1  0  0  0
 15 16  1  0  0  0  0
 15 26  1  6  0  0  0
 16 18  1  0  0  0  0
 16 17  1  1  0  0  0
 18  4  1  6  0  0  0
 20 21  1  0  0  0  0
 20 27  1  0  0  0  0
 21 31  1  1  0  0  0
 21 23  1  0  0  0  0
 21 22  1  0  0  0  0
 23 24  1  0  0  0  0
 23 29  1  1  0  0  0
 24 25  1  0  0  0  0
 24 28  1  6  0  0  0
 25 27  1  0  0  0  0
 25 26  1  1  0  0  0
 29 30  1  0  0  0  0
M  CHG  5   6   1  10   1  14   1  19   1  29   1
M  END
>  <CHROM.1>
-22.10453095,144.01052400,-85.04229086,-48.00519715,30.14613692,-37.27434705
-131.81471558,98.25699854,66.71085863,-56.24613124,20.49651070,179.42581647
123.86995866,7.28567757,4.74626670,-2.31665478,1.41125385,0.84110278,-0.31090149

>  <Name>
1byj cryst

>  <RI>
0

>  <Rbt.Current_Directory>
/home/itssahil/PROJECTS/Mol_Feturizer/New_Systems/rnas/1byj

>  <Rbt.Executable>
rbdock ($Id: //depot/dev/client3/rdock/2013.1/src/exe/rbdock.cxx#4 $)

>  <Rbt.Library>
libRbt.so (2013.1, Build901 2013/11/27)

>  <Rbt.Parameter_File>
/export/apps/rDock/src/rDock_2013.1_src/data/scripts/dock_solv.prm

>  <Rbt.Receptor>
prm/blind_docking_60.prm

>  <SCORE>
-12.9567

>  <SCORE.INTER>
-25.855

>  <SCORE.INTER.CONST>
1

>  <SCORE.INTER.POLAR>
-4.20107

>  <SCORE.INTER.ROT>
6

>  <SCORE.INTER.SOLV>
28.0942

>  <SCORE.INTER.VDW>
-20.1978

>  <SCORE.INTER.norm>
-0.834033

>  <SCORE.INTRA>
7.43714

>  <SCORE.INTRA.DIHEDRAL>
14.6162

>  <SCORE.INTRA.DIHEDRAL.0>
18.4149

>  <SCORE.INTRA.POLAR>
-1.40428

>  <SCORE.INTRA.POLAR.0>
0

>  <SCORE.INTRA.REPUL>
-0.092687

>  <SCORE.INTRA.REPUL.0>
0.092687

>  <SCORE.INTRA.SOLV>
1.31639

>  <SCORE.INTRA.SOLV.lig_0>
-120.37

>  <SCORE.INTRA.VDW>
4.70882

>  <SCORE.INTRA.VDW.0>
-1.75542

>  <SCORE.INTRA.norm>
0.239908

>  <SCORE.RESTR>
5.46113

>  <SCORE.RESTR.CAVITY>
5.46113

>  <SCORE.RESTR.norm>
0.176165

>  <SCORE.SYSTEM>
0

>  <SCORE.SYSTEM.CONST>
0

>  <SCORE.SYSTEM.DIHEDRAL>
0

>  <SCORE.SYSTEM.SOLV>
0

>  <SCORE.SYSTEM.norm>
0

>  <SCORE.heavy>
31

>  <SCORE.norm>
-0.41796

>  <RMSD>
7.522

$$$$
1byj cryst
 OpenBabel11021811383D
libRbt.so/2013.1/901 2013/11/27
 31 33  0  0  0  0  0  0  0  0999 V2000
    0.8585    1.1156   -4.8186 C   0  0  1  0  0  0  0  0  0  0  0  0
    1.4943    2.4264   -4.6789 O   0  0  0  0  0  0  0  0  0  0  0  0
    1.0951    3.2828   -3.5672 C   0  0  2  0  0  0  0  0  0  0  0  0
    1.5268    2.7267   -2.2861 O   0  0  0  0  0  0  0  0  0  0  0  0
   -0.4509    3.4807   -3.5986 C   0  0  2  0  0  0  0  0  0  0  0  0
   -0.9506    4.3378   -2.5055 N   0  3  0  0  0  0  0  0  0  0  0  0
   -1.1641    2.1042   -3.5749 C   0  0  0  0  0  0  0  0  0  0  0  0
   -0.6896    1.2169   -4.7356 C   0  0  0  0  0  0  0  0  0  0  0  0
    1.2547    0.4971   -6.1709 C   0  0  0  0  0  0  0  0  0  0  0  0
    2.5456   -0.2033   -6.1480 N   0  3  0  0  0  0  0  0  0  0  0  0
    3.0864    1.5149   -0.8131 C   0  0  1  0  0  0  0  0  0  0  0  0
    4.5723    1.2165   -0.4976 C   0  0  0  0  0  0  0  0  0  0  0  0
    5.3573    2.5376   -0.2779 C   0  0  1  0  0  0  0  0  0  0  0  0
    6.7519    2.2366    0.0981 N   0  3  0  0  0  0  0  0  0  0  0  0
    5.2784    3.4292   -1.5509 C   0  0  1  0  0  0  0  0  0  0  0  0
    3.8118    3.6807   -1.9822 C   0  0  1  0  0  0  0  0  0  0  0  0
    3.8660    4.3507   -3.2329 O   0  0  0  0  0  0  0  0  0  0  0  0
    2.9374    2.3890   -2.1014 C   0  0  2  0  0  0  0  0  0  0  0  0
    2.3288    0.2554   -0.9178 N   0  3  0  0  0  0  0  0  0  0  0  0
    7.3596    5.5183   -3.8559 C   0  0  0  0  0  0  0  0  0  0  0  0
    8.0016    6.8942   -3.5517 C   0  0  2  0  0  0  0  0  0  0  0  0
    9.4139    6.7314   -3.6747 O   0  0  0  0  0  0  0  0  0  0  0  0
    7.6126    7.3433   -2.0928 C   0  0  1  0  0  0  0  0  0  0  0  0
    7.8388    6.2170   -1.0277 C   0  0  2  0  0  0  0  0  0  0  0  0
    7.3201    4.8278   -1.4783 C   0  0  1  0  0  0  0  0  0  0  0  0
    5.8822    4.7309   -1.3030 O   0  0  0  0  0  0  0  0  0  0  0  0
    7.7222    4.5382   -2.8470 O   0  0  0  0  0  0  0  0  0  0  0  0
    7.2359    6.5506    0.2199 O   0  0  0  0  0  0  0  0  0  0  0  0
    8.3722    8.5785   -1.7243 N   0  3  0  0  0  0  0  0  0  0  0  0
    7.6250    9.6401   -1.0196 C   0  0  0  0  0  0  0  0  0  0  0  0
    7.5574    7.8997   -4.6424 C   0  0  0  0  0  0  0  0  0  0  0  0
  1  8  1  0  0  0  0
  1  9  1  6  0  0  0
  1  2  1  0  0  0  0
  2  3  1  0  0  0  0
  3  5  1  0  0  0  0
  3  4  1  1  0  0  0
  5  7  1  0  0  0  0
  5  6  1  1  0  0  0
  7  8  1  0  0  0  0
  9 10  1  0  0  0  0
 11 12  1  0  0  0  0
 11 18  1  0  0  0  0
 11 19  1  6  0  0  0
 12 13  1  0  0  0  0
 13 15  1  0  0  0  0
 13 14  1  6  0  0  0
 15 16  1  0  0  0  0
 15 26  1  1  0  0  0
 16 18  1  0  0  0  0
 16 17  1  6  0  0  0
 18  4  1  1  0  0  0
 20 21  1  0  0  0  0
 20 27  1  0  0  0  0
 21 31  1  6  0  0  0
 21 23  1  0  0  0  0
 21 22  1  0  0  0  0
 23 24  1  0  0  0  0
 23 29  1  1  0  0  0
 24 25  1  0  0  0  0
 24 28  1  1  0  0  0
 25 27  1  0  0  0  0
 25 26  1  6  0  0  0
 29 30  1  0  0  0  0
M  CHG  5   6   1  10   1  14   1  19   1  29   1
M  END
>  <CHROM.1>
83.98717817,54.01973262,-166.67551300,-160.41491787,-51.11079525,54.49510449
68.87063973,85.09887015,-154.05102676,-55.74889026,-101.43469618,-178.24558510
-173.58409752,4.39638193,3.94230313,-2.58290170,2.85997167,0.59898295,2.36738440

>  <Name>
1byj cryst

>  <RI>
0

>  <Rbt.Current_Directory>
/home/itssahil/PROJECTS/Mol_Feturizer/New_Systems/rnas/1byj

>  <Rbt.Executable>
rbdock ($Id: //depot/dev/client3/rdock/2013.1/src/exe/rbdock.cxx#4 $)

>  <Rbt.Library>
libRbt.so (2013.1, Build901 2013/11/27)

>  <Rbt.Parameter_File>
/export/apps/rDock/src/rDock_2013.1_src/data/scripts/dock_solv.prm

>  <Rbt.Receptor>
prm/pocket_docking_7.prm

>  <SCORE>
-27.954

>  <SCORE.INTER>
-21.8127

>  <SCORE.INTER.CONST>
1

>  <SCORE.INTER.POLAR>
-2.96734

>  <SCORE.INTER.ROT>
6

>  <SCORE.INTER.SOLV>
16.6575

>  <SCORE.INTER.VDW>
-17.8032

>  <SCORE.INTER.norm>
-0.703637

>  <SCORE.INTRA>
-6.28099

>  <SCORE.INTRA.DIHEDRAL>
-5.2279

>  <SCORE.INTRA.DIHEDRAL.0>
18.4149

>  <SCORE.INTRA.POLAR>
-0.00042834

>  <SCORE.INTRA.POLAR.0>
0

>  <SCORE.INTRA.REPUL>
-0.092687

>  <SCORE.INTRA.REPUL.0>
0.092687

>  <SCORE.INTRA.SOLV>
-3.6029

>  <SCORE.INTRA.SOLV.lig_0>
-120.37

>  <SCORE.INTRA.VDW>
-1.40069

>  <SCORE.INTRA.VDW.0>
-1.75542

>  <SCORE.INTRA.norm>
-0.202612

>  <SCORE.RESTR>
0.139737

>  <SCORE.RESTR.CAVITY>
0.139737

>  <SCORE.RESTR.norm>
0.00450765

>  <SCORE.SYSTEM>
0

>  <SCORE.SYSTEM.CONST>
0

>  <SCORE.SYSTEM.DIHEDRAL>
0

>  <SCORE.SYSTEM.SOLV>
0

>  <SCORE.SYSTEM.norm>
0

>  <SCORE.heavy>
31

>  <SCORE.norm>
-0.901742

>  <RMSD>
7.547

$$$$
1byj cryst
 OpenBabel11021811383D
libRbt.so/2013.1/901 2013/11/27
 31 33  0  0  0  0  0  0  0  0999 V2000
    2.9841    6.6518    1.3257 C   0  0  1  0  0  0  0  0  0  0  0  0
    1.7118    5.9291    1.3583 O   0  0  0  0  0  0  0  0  0  0  0  0
    0.4891    6.6492    1.0190 C   0  0  2  0  0  0  0  0  0  0  0  0
    0.4623    7.0138   -0.3963 O   0  0  0  0  0  0  0  0  0  0  0  0
    0.3669    7.9123    1.9245 C   0  0  2  0  0  0  0  0  0  0  0  0
   -0.8459    8.7087    1.6525 N   0  3  0  0  0  0  0  0  0  0  0  0
    1.6349    8.7933    1.7827 C   0  0  0  0  0  0  0  0  0  0  0  0
    2.9035    7.9911    2.1092 C   0  0  0  0  0  0  0  0  0  0  0  0
    4.0877    5.7714    1.9380 C   0  0  0  0  0  0  0  0  0  0  0  0
    3.7652    5.2606    3.2768 N   0  3  0  0  0  0  0  0  0  0  0  0
   -0.4497    4.8672   -1.1904 C   0  0  1  0  0  0  0  0  0  0  0  0
   -0.2447    3.6712   -2.1517 C   0  0  0  0  0  0  0  0  0  0  0  0
    1.1451    3.0197   -1.9201 C   0  0  1  0  0  0  0  0  0  0  0  0
    1.2955    1.8354   -2.7872 N   0  3  0  0  0  0  0  0  0  0  0  0
    2.2754    4.0622   -2.1595 C   0  0  1  0  0  0  0  0  0  0  0  0
    2.0709    5.3342   -1.2992 C   0  0  1  0  0  0  0  0  0  0  0  0
    3.0504    6.2714   -1.7216 O   0  0  0  0  0  0  0  0  0  0  0  0
    0.6433    5.9660   -1.3999 C   0  0  2  0  0  0  0  0  0  0  0  0
   -1.8094    5.4136   -1.3459 N   0  3  0  0  0  0  0  0  0  0  0  0
    5.4295    5.4692   -3.2163 C   0  0  0  0  0  0  0  0  0  0  0  0
    6.8632    5.0354   -2.8239 C   0  0  2  0  0  0  0  0  0  0  0  0
    7.5375    4.6838   -4.0313 O   0  0  0  0  0  0  0  0  0  0  0  0
    6.7887    3.8051   -1.8430 C   0  0  1  0  0  0  0  0  0  0  0  0
    5.8332    2.6743   -2.3552 C   0  0  2  0  0  0  0  0  0  0  0  0
    4.4799    3.2056   -2.8921 C   0  0  1  0  0  0  0  0  0  0  0  0
    3.5716    3.5043   -1.7997 O   0  0  0  0  0  0  0  0  0  0  0  0
    4.6779    4.3537   -3.7646 O   0  0  0  0  0  0  0  0  0  0  0  0
    5.5775    1.7080   -1.3392 O   0  0  0  0  0  0  0  0  0  0  0  0
    8.1634    3.2659   -1.6026 N   0  3  0  0  0  0  0  0  0  0  0  0
    8.2998    2.2085   -0.5803 C   0  0  0  0  0  0  0  0  0  0  0  0
    7.6025    6.2560   -2.2226 C   0  0  0  0  0  0  0  0  0  0  0  0
  1  8  1  0  0  0  0
  1  9  1  1  0  0  0
  1  2  1  0  0  0  0
  2  3  1  0  0  0  0
  3  5  1  0  0  0  0
  3  4  1  6  0  0  0
  5  7  1  0  0  0  0
  5  6  1  6  0  0  0
  7  8  1  0  0  0  0
  9 10  1  0  0  0  0
 11 12  1  0  0  0  0
 11 18  1  0  0  0  0
 11 19  1  6  0  0  0
 12 13  1  0  0  0  0
 13 15  1  0  0  0  0
 13 14  1  6  0  0  0
 15 16  1  0  0  0  0
 15 26  1  1  0  0  0
 16 18  1  0  0  0  0
 16 17  1  6  0  0  0
 18  4  1  1  0  0  0
 20 21  1  0  0  0  0
 20 27  1  0  0  0  0
 21 31  1  1  0  0  0
 21 23  1  0  0  0  0
 21 22  1  0  0  0  0
 23 24  1  0  0  0  0
 23 29  1  6  0  0  0
 24 25  1  0  0  0  0
 24 28  1  1  0  0  0
 25 27  1  0  0  0  0
 25 26  1  1  0  0  0
 29 30  1  0  0  0  0
M  CHG  5   6   1  10   1  14   1  19   1  29   1
M  END
>  <CHROM.1>
-53.17986787,54.48913669,57.12850930,168.16698324,-62.12419720,163.38699948
-60.54086042,109.13809166,178.73047593,-60.91772751,-65.95855665,-175.58608356
177.72839368,3.24093160,5.05657533,-0.91792887,-2.52657590,0.06032321,-2.30067561

>  <Name>
1byj cryst

>  <RI>
0

>  <Rbt.Current_Directory>
/home/itssahil/PROJECTS/Mol_Feturizer/New_Systems/rnas/1byj

>  <Rbt.Executable>
rbdock ($Id: //depot/dev/client3/rdock/2013.1/src/exe/rbdock.cxx#4 $)

>  <Rbt.Library>
libRbt.so (2013.1, Build901 2013/11/27)

>  <Rbt.Parameter_File>
/export/apps/rDock/src/rDock_2013.1_src/data/scripts/dock_solv.prm

>  <Rbt.Receptor>
prm/pocket_docking_6.prm

>  <SCORE>
-32.1017

>  <SCORE.INTER>
-24.7261

>  <SCORE.INTER.CONST>
1

>  <SCORE.INTER.POLAR>
-4.31395

>  <SCORE.INTER.ROT>
6

>  <SCORE.INTER.SOLV>
19.9406

>  <SCORE.INTER.VDW>
-16.3511

>  <SCORE.INTER.norm>
-0.797617

>  <SCORE.INTRA>
-7.37553

>  <SCORE.INTRA.DIHEDRAL>
-9.79605

>  <SCORE.INTRA.DIHEDRAL.0>
18.4149

>  <SCORE.INTRA.POLAR>
0

>  <SCORE.INTRA.POLAR.0>
0

>  <SCORE.INTRA.REPUL>
-0.092687

>  <SCORE.INTRA.REPUL.0>
0.092687

>  <SCORE.INTRA.SOLV>
-1.5612

>  <SCORE.INTRA.SOLV.lig_0>
-120.37

>  <SCORE.INTRA.VDW>
-1.23347

>  <SCORE.INTRA.VDW.0>
-1.75542

>  <SCORE.INTRA.norm>
-0.23792

>  <SCORE.RESTR>
0

>  <SCORE.RESTR.CAVITY>
0

>  <SCORE.RESTR.norm>
0

>  <SCORE.SYSTEM>
0

>  <SCORE.SYSTEM.CONST>
0

>  <SCORE.SYSTEM.DIHEDRAL>
0

>  <SCORE.SYSTEM.SOLV>
0

>  <SCORE.SYSTEM.norm>
0

>  <SCORE.heavy>
31

>  <SCORE.norm>
-1.03554

>  <RMSD>
7.563

$$$$
1byj cryst
 OpenBabel11021811383D
libRbt.so/2013.1/901 2013/11/27
 31 33  0  0  0  0  0  0  0  0999 V2000
    1.9052    4.8258    2.2642 C   0  0  1  0  0  0  0  0  0  0  0  0
    3.1900    5.0363    2.9329 O   0  0  0  0  0  0  0  0  0  0  0  0
    3.5772    4.1274    4.0065 C   0  0  2  0  0  0  0  0  0  0  0  0
    3.8489    2.7854    3.4948 O   0  0  0  0  0  0  0  0  0  0  0  0
    2.4534    4.0975    5.0866 C   0  0  2  0  0  0  0  0  0  0  0  0
    2.7575    3.2000    6.2185 N   0  3  0  0  0  0  0  0  0  0  0  0
    1.1008    3.7080    4.4365 C   0  0  0  0  0  0  0  0  0  0  0  0
    0.7464    4.6624    3.2862 C   0  0  0  0  0  0  0  0  0  0  0  0
    1.6056    6.0228    1.3446 C   0  0  0  0  0  0  0  0  0  0  0  0
    0.3769    5.8715    0.5543 N   0  3  0  0  0  0  0  0  0  0  0  0
    6.3045    2.7639    3.6938 C   0  0  1  0  0  0  0  0  0  0  0  0
    7.6456    2.6408    2.9302 C   0  0  0  0  0  0  0  0  0  0  0  0
    7.7250    3.6991    1.7973 C   0  0  1  0  0  0  0  0  0  0  0  0
    9.0383    3.6220    1.1292 N   0  3  0  0  0  0  0  0  0  0  0  0
    6.5509    3.5043    0.7947 C   0  0  1  0  0  0  0  0  0  0  0  0
    5.1785    3.5134    1.5135 C   0  0  1  0  0  0  0  0  0  0  0  0
    4.2080    3.1603    0.5391 O   0  0  0  0  0  0  0  0  0  0  0  0
    5.0810    2.5513    2.7432 C   0  0  2  0  0  0  0  0  0  0  0  0
    6.2818    1.8260    4.8302 N   0  3  0  0  0  0  0  0  0  0  0  0
    6.0235    6.5748   -2.4411 C   0  0  0  0  0  0  0  0  0  0  0  0
    6.8377    6.0459   -3.6474 C   0  0  2  0  0  0  0  0  0  0  0  0
    5.9045    5.7682   -4.6905 O   0  0  0  0  0  0  0  0  0  0  0  0
    7.6131    4.7414   -3.2251 C   0  0  1  0  0  0  0  0  0  0  0  0
    6.7014    3.7017   -2.4890 C   0  0  2  0  0  0  0  0  0  0  0  0
    5.7887    4.3363   -1.4091 C   0  0  1  0  0  0  0  0  0  0  0  0
    6.5296    4.5815   -0.1849 O   0  0  0  0  0  0  0  0  0  0  0  0
    5.1488    5.5444   -1.9091 O   0  0  0  0  0  0  0  0  0  0  0  0
    7.4730    2.6651   -1.8879 O   0  0  0  0  0  0  0  0  0  0  0  0
    8.2549    4.1231   -4.4269 N   0  3  0  0  0  0  0  0  0  0  0  0
    9.3831    4.8562   -5.0365 C   0  0  0  0  0  0  0  0  0  0  0  0
    7.7677    7.1770   -4.1510 C   0  0  0  0  0  0  0  0  0  0  0  0
  1  8  1  0  0  0  0
  1  9  1  6  0  0  0
  1  2  1  0  0  0  0
  2  3  1  0  0  0  0
  3  5  1  0  0  0  0
  3  4  1  6  0  0  0
  5  7  1  0  0  0  0
  5  6  1  1  0  0  0
  7  8  1  0  0  0  0
  9 10  1  0  0  0  0
 11 12  1  0  0  0  0
 11 18  1  0  0  0  0
 11 19  1  1  0  0  0
 12 13  1  0  0  0  0
 13 15  1  0  0  0  0
 13 14  1  6  0  0  0
 15 16  1  0  0  0  0
 15 26  1  6  0  0  0
 16 18  1  0  0  0  0
 16 17  1  6  0  0  0
 18  4  1  1  0  0  0
 20 21  1  0  0  0  0
 20 27  1  0  0  0  0
 21 31  1  6  0  0  0
 21 23  1  0  0  0  0
 21 22  1  0  0  0  0
 23 24  1  0  0  0  0
 23 29  1  6  0  0  0
 24 25  1  0  0  0  0
 24 28  1  1  0  0  0
 25 27  1  0  0  0  0
 25 26  1  1  0  0  0
 29 30  1  0  0  0  0
M  CHG  5   6   1  10   1  14   1  19   1  29   1
M  END
>  <CHROM.1>
176.13253649,73.56280548,65.04014805,62.23556634,-169.76066783,31.39789291
173.86728274,161.15059956,-176.75453131,171.91628852,-169.83053682,-62.20954269
-89.79819037,5.26134715,4.23297227,0.56317791,2.15400894,-0.36434165,1.97488715

>  <Name>
1byj cryst

>  <RI>
0

>  <Rbt.Current_Directory>
/home/itssahil/PROJECTS/Mol_Feturizer/New_Systems/rnas/1byj

>  <Rbt.Executable>
rbdock ($Id: //depot/dev/client3/rdock/2013.1/src/exe/rbdock.cxx#4 $)

>  <Rbt.Library>
libRbt.so (2013.1, Build901 2013/11/27)

>  <Rbt.Parameter_File>
/export/apps/rDock/src/rDock_2013.1_src/data/scripts/dock_solv.prm

>  <Rbt.Receptor>
prm/pocket_docking_7.prm

>  <SCORE>
-23.1147

>  <SCORE.INTER>
-19.2103

>  <SCORE.INTER.CONST>
1

>  <SCORE.INTER.POLAR>
-3.97949

>  <SCORE.INTER.ROT>
6

>  <SCORE.INTER.SOLV>
15.6238

>  <SCORE.INTER.VDW>
-12.3498

>  <SCORE.INTER.norm>
-0.619687

>  <SCORE.INTRA>
-3.90442

>  <SCORE.INTRA.DIHEDRAL>
-9.30915

>  <SCORE.INTRA.DIHEDRAL.0>
18.4149

>  <SCORE.INTRA.POLAR>
0

>  <SCORE.INTRA.POLAR.0>
0

>  <SCORE.INTRA.REPUL>
-0.092687

>  <SCORE.INTRA.REPUL.0>
0.092687

>  <SCORE.INTRA.SOLV>
-0.80039

>  <SCORE.INTRA.SOLV.lig_0>
-120.37

>  <SCORE.INTRA.VDW>
1.61379

>  <SCORE.INTRA.VDW.0>
-1.75542

>  <SCORE.INTRA.norm>
-0.125949

>  <SCORE.RESTR>
0

>  <SCORE.RESTR.CAVITY>
0

>  <SCORE.RESTR.norm>
0

>  <SCORE.SYSTEM>
0

>  <SCORE.SYSTEM.CONST>
0

>  <SCORE.SYSTEM.DIHEDRAL>
0

>  <SCORE.SYSTEM.SOLV>
0

>  <SCORE.SYSTEM.norm>
0

>  <SCORE.heavy>
31

>  <SCORE.norm>
-0.745636

>  <RMSD>
7.567

$$$$
1byj cryst
 OpenBabel11021811383D
libRbt.so/2013.1/901 2013/11/27
 31 33  0  0  0  0  0  0  0  0999 V2000
    5.1040   10.4063   -2.0440 C   0  0  1  0  0  0  0  0  0  0  0  0
    5.1568    9.0492   -1.4985 O   0  0  0  0  0  0  0  0  0  0  0  0
    4.7185    7.9398   -2.3385 C   0  0  2  0  0  0  0  0  0  0  0  0
    5.6330    7.7280   -3.4591 O   0  0  0  0  0  0  0  0  0  0  0  0
    3.2698    8.2168   -2.8434 C   0  0  2  0  0  0  0  0  0  0  0  0
    2.7385    7.1431   -3.7059 N   0  3  0  0  0  0  0  0  0  0  0  0
    3.2150    9.5794   -3.5813 C   0  0  0  0  0  0  0  0  0  0  0  0
    3.7205   10.7158   -2.6798 C   0  0  0  0  0  0  0  0  0  0  0  0
    5.3843   11.4199   -0.9206 C   0  0  0  0  0  0  0  0  0  0  0  0
    4.4643   11.3123    0.2193 N   0  3  0  0  0  0  0  0  0  0  0  0
    7.6314    6.8272   -4.5840 C   0  0  1  0  0  0  0  0  0  0  0  0
    8.7587    5.7677   -4.5277 C   0  0  0  0  0  0  0  0  0  0  0  0
    8.1585    4.3414   -4.4046 C   0  0  1  0  0  0  0  0  0  0  0  0
    9.2396    3.3376   -4.4304 N   0  3  0  0  0  0  0  0  0  0  0  0
    7.2934    4.2302   -3.1159 C   0  0  1  0  0  0  0  0  0  0  0  0
    6.2066    5.3329   -3.0606 C   0  0  1  0  0  0  0  0  0  0  0  0
    5.6000    5.2409   -1.7801 O   0  0  0  0  0  0  0  0  0  0  0  0
    6.7386    6.7844   -3.3006 C   0  0  2  0  0  0  0  0  0  0  0  0
    8.2062    8.1660   -4.8043 N   0  3  0  0  0  0  0  0  0  0  0  0
    8.1481    2.9817   -0.4348 C   0  0  0  0  0  0  0  0  0  0  0  0
    7.3465    2.0664    0.5228 C   0  0  2  0  0  0  0  0  0  0  0  0
    8.2103    0.9929    0.8938 O   0  0  0  0  0  0  0  0  0  0  0  0
    6.0653    1.5265   -0.2177 C   0  0  1  0  0  0  0  0  0  0  0  0
    6.3818    0.9445   -1.6373 C   0  0  2  0  0  0  0  0  0  0  0  0
    7.3310    1.8393   -2.4740 C   0  0  1  0  0  0  0  0  0  0  0  0
    6.6060    2.9473   -3.0693 O   0  0  0  0  0  0  0  0  0  0  0  0
    8.4600    2.2940   -1.6757 O   0  0  0  0  0  0  0  0  0  0  0  0
    5.1898    0.7141   -2.3838 O   0  0  0  0  0  0  0  0  0  0  0  0
    5.3834    0.5019    0.6329 N   0  3  0  0  0  0  0  0  0  0  0  0
    3.9753    0.7613    0.9961 C   0  0  0  0  0  0  0  0  0  0  0  0
    7.0214    2.8617    1.8112 C   0  0  0  0  0  0  0  0  0  0  0  0
  1  8  1  0  0  0  0
  1  9  1  1  0  0  0
  1  2  1  0  0  0  0
  2  3  1  0  0  0  0
  3  5  1  0  0  0  0
  3  4  1  6  0  0  0
  5  7  1  0  0  0  0
  5  6  1  6  0  0  0
  7  8  1  0  0  0  0
  9 10  1  0  0  0  0
 11 12  1  0  0  0  0
 11 18  1  0  0  0  0
 11 19  1  1  0  0  0
 12 13  1  0  0  0  0
 13 15  1  0  0  0  0
 13 14  1  1  0  0  0
 15 16  1  0  0  0  0
 15 26  1  6  0  0  0
 16 18  1  0  0  0  0
 16 17  1  1  0  0  0
 18  4  1  6  0  0  0
 20 21  1  0  0  0  0
 20 27  1  0  0  0  0
 21 31  1  1  0  0  0
 21 23  1  0  0  0  0
 21 22  1  0  0  0  0
 23 24  1  0  0  0  0
 23 29  1  1  0  0  0
 24 25  1  0  0  0  0
 24 28  1  6  0  0  0
 25 27  1  0  0  0  0
 25 26  1  1  0  0  0
 29 30  1  0  0  0  0
M  CHG  5   6   1  10   1  14   1  19   1  29   1
M  END
>  <CHROM.1>
-57.08565914,91.78333168,-175.31050285,78.67931832,-58.85988351,-61.82674634
-15.37152083,87.13116995,-59.87867259,56.79539435,-116.78942462,63.83828660
141.69103614,6.16831029,5.26749366,-2.04432786,1.94476652,0.84752637,-0.49677146

>  <Name>
1byj cryst

>  <RI>
0

>  <Rbt.Current_Directory>
/home/itssahil/PROJECTS/Mol_Feturizer/New_Systems/rnas/1byj

>  <Rbt.Executable>
rbdock ($Id: //depot/dev/client3/rdock/2013.1/src/exe/rbdock.cxx#4 $)

>  <Rbt.Library>
libRbt.so (2013.1, Build901 2013/11/27)

>  <Rbt.Parameter_File>
/export/apps/rDock/src/rDock_2013.1_src/data/scripts/dock_solv.prm

>  <Rbt.Receptor>
prm/pocket_docking_8.prm

>  <SCORE>
-41.7315

>  <SCORE.INTER>
-38.2303

>  <SCORE.INTER.CONST>
1

>  <SCORE.INTER.POLAR>
-6.57873

>  <SCORE.INTER.ROT>
6

>  <SCORE.INTER.SOLV>
25.0247

>  <SCORE.INTER.VDW>
-19.4994

>  <SCORE.INTER.norm>
-1.23324

>  <SCORE.INTRA>
-3.50113

>  <SCORE.INTRA.DIHEDRAL>
1.56725

>  <SCORE.INTRA.DIHEDRAL.0>
18.4149

>  <SCORE.INTRA.POLAR>
-1.06185

>  <SCORE.INTRA.POLAR.0>
0

>  <SCORE.INTRA.REPUL>
-0.092687

>  <SCORE.INTRA.REPUL.0>
0.092687

>  <SCORE.INTRA.SOLV>
-0.874972

>  <SCORE.INTRA.SOLV.lig_0>
-120.37

>  <SCORE.INTRA.VDW>
0.226455

>  <SCORE.INTRA.VDW.0>
-1.75542

>  <SCORE.INTRA.norm>
-0.11294

>  <SCORE.RESTR>
0

>  <SCORE.RESTR.CAVITY>
0

>  <SCORE.RESTR.norm>
0

>  <SCORE.SYSTEM>
0

>  <SCORE.SYSTEM.CONST>
0

>  <SCORE.SYSTEM.DIHEDRAL>
0

>  <SCORE.SYSTEM.SOLV>
0

>  <SCORE.SYSTEM.norm>
0

>  <SCORE.heavy>
31

>  <SCORE.norm>
-1.34618

>  <RMSD>
7.573

$$$$
1byj cryst
 OpenBabel11021811383D
libRbt.so/2013.1/901 2013/11/27
 31 33  0  0  0  0  0  0  0  0999 V2000
    6.6111    9.1614   -4.1999 C   0  0  1  0  0  0  0  0  0  0  0  0
    7.9512    8.6745   -3.8699 O   0  0  0  0  0  0  0  0  0  0  0  0
    8.1213    7.8445   -2.6821 C   0  0  2  0  0  0  0  0  0  0  0  0
    7.4829    6.5402   -2.8492 O   0  0  0  0  0  0  0  0  0  0  0  0
    7.5456    8.5945   -1.4427 C   0  0  2  0  0  0  0  0  0  0  0  0
    7.6733    7.8285   -0.1873 N   0  3  0  0  0  0  0  0  0  0  0  0
    6.0642    8.9777   -1.6935 C   0  0  0  0  0  0  0  0  0  0  0  0
    5.9201    9.8165   -2.9722 C   0  0  0  0  0  0  0  0  0  0  0  0
    6.7081   10.1929   -5.3378 C   0  0  0  0  0  0  0  0  0  0  0  0
    7.8891   10.0228   -6.1943 N   0  3  0  0  0  0  0  0  0  0  0  0
    8.9306    5.1181   -4.2465 C   0  0  1  0  0  0  0  0  0  0  0  0
    9.7335    3.7966   -4.3196 C   0  0  0  0  0  0  0  0  0  0  0  0
    8.8172    2.5854   -3.9983 C   0  0  1  0  0  0  0  0  0  0  0  0
    9.5753    1.3285   -4.1476 N   0  3  0  0  0  0  0  0  0  0  0  0
    8.2105    2.7319   -2.5728 C   0  0  1  0  0  0  0  0  0  0  0  0
    7.4782    4.0862   -2.4001 C   0  0  1  0  0  0  0  0  0  0  0  0
    7.1198    4.1817   -1.0295 O   0  0  0  0  0  0  0  0  0  0  0  0
    8.3145    5.3378   -2.8259 C   0  0  2  0  0  0  0  0  0  0  0  0
    9.7818    6.2502   -4.6529 N   0  3  0  0  0  0  0  0  0  0  0  0
    9.1576    2.1379    0.0058 C   0  0  0  0  0  0  0  0  0  0  0  0
    8.2648    2.2127    1.2686 C   0  0  2  0  0  0  0  0  0  0  0  0
    8.6641    1.1437    2.1253 O   0  0  0  0  0  0  0  0  0  0  0  0
    6.7531    2.0639    0.8516 C   0  0  1  0  0  0  0  0  0  0  0  0
    6.5023    0.8525   -0.1094 C   0  0  2  0  0  0  0  0  0  0  0  0
    7.5425    0.7462   -1.2534 C   0  0  1  0  0  0  0  0  0  0  0  0
    7.2346    1.6809   -2.3208 O   0  0  0  0  0  0  0  0  0  0  0  0
    8.8959    0.9241   -0.7479 O   0  0  0  0  0  0  0  0  0  0  0  0
    5.1964    0.8998   -0.6781 O   0  0  0  0  0  0  0  0  0  0  0  0
    5.8994    1.9525    2.0752 N   0  3  0  0  0  0  0  0  0  0  0  0
    4.4377    2.0475    1.8841 C   0  0  0  0  0  0  0  0  0  0  0  0
    8.5690    3.5365    2.0123 C   0  0  0  0  0  0  0  0  0  0  0  0
  1  8  1  0  0  0  0
  1  9  1  6  0  0  0
  1  2  1  0  0  0  0
  2  3  1  0  0  0  0
  3  5  1  0  0  0  0
  3  4  1  6  0  0  0
  5  7  1  0  0  0  0
  5  6  1  1  0  0  0
  7  8  1  0  0  0  0
  9 10  1  0  0  0  0
 11 12  1  0  0  0  0
 11 18  1  0  0  0  0
 11 19  1  1  0  0  0
 12 13  1  0  0  0  0
 13 15  1  0  0  0  0
 13 14  1  1  0  0  0
 15 16  1  0  0  0  0
 15 26  1  6  0  0  0
 16 18  1  0  0  0  0
 16 17  1  1  0  0  0
 18  4  1  6  0  0  0
 20 21  1  0  0  0  0
 20 27  1  0  0  0  0
 21 31  1  1  0  0  0
 21 23  1  0  0  0  0
 21 22  1  0  0  0  0
 23 24  1  0  0  0  0
 23 29  1  1  0  0  0
 24 25  1  0  0  0  0
 24 28  1  6  0  0  0
 25 27  1  0  0  0  0
 25 26  1  6  0  0  0
 29 30  1  0  0  0  0
M  CHG  5   6   1  10   1  14   1  19   1  29   1
M  END
>  <CHROM.1>
25.67978111,117.08697319,-83.05545564,-177.34292186,-38.12023399,-176.07558790
-64.74112778,116.41239944,-162.70169227,-65.13996677,-69.49749643,-171.79553658
116.15392019,7.65272001,4.60495181,-1.81610484,1.52840806,1.06263107,-0.49225778

>  <Name>
1byj cryst

>  <RI>
0

>  <Rbt.Current_Directory>
/home/itssahil/PROJECTS/Mol_Feturizer/New_Systems/rnas/1byj

>  <Rbt.Executable>
rbdock ($Id: //depot/dev/client3/rdock/2013.1/src/exe/rbdock.cxx#4 $)

>  <Rbt.Library>
libRbt.so (2013.1, Build901 2013/11/27)

>  <Rbt.Parameter_File>
/export/apps/rDock/src/rDock_2013.1_src/data/scripts/dock_solv.prm

>  <Rbt.Receptor>
prm/blind_docking_80.prm

>  <SCORE>
-21.2748

>  <SCORE.INTER>
-28.6303

>  <SCORE.INTER.CONST>
1

>  <SCORE.INTER.POLAR>
-4.0563

>  <SCORE.INTER.ROT>
6

>  <SCORE.INTER.SOLV>
32.8035

>  <SCORE.INTER.VDW>
-24.1004

>  <SCORE.INTER.norm>
-0.923557

>  <SCORE.INTRA>
2.45623

>  <SCORE.INTRA.DIHEDRAL>
11.9858

>  <SCORE.INTRA.DIHEDRAL.0>
18.4149

>  <SCORE.INTRA.POLAR>
-1.33255

>  <SCORE.INTRA.POLAR.0>
0

>  <SCORE.INTRA.REPUL>
-0.092687

>  <SCORE.INTRA.REPUL.0>
0.092687

>  <SCORE.INTRA.SOLV>
2.15941

>  <SCORE.INTRA.SOLV.lig_0>
-120.37

>  <SCORE.INTRA.VDW>
0.377722

>  <SCORE.INTRA.VDW.0>
-1.75542

>  <SCORE.INTRA.norm>
0.0792333

>  <SCORE.RESTR>
4.89919

>  <SCORE.RESTR.CAVITY>
4.89919

>  <SCORE.RESTR.norm>
0.158038

>  <SCORE.SYSTEM>
0

>  <SCORE.SYSTEM.CONST>
0

>  <SCORE.SYSTEM.DIHEDRAL>
0

>  <SCORE.SYSTEM.SOLV>
0

>  <SCORE.SYSTEM.norm>
0

>  <SCORE.heavy>
31

>  <SCORE.norm>
-0.686285

>  <RMSD>
7.632

$$$$
1byj cryst
 OpenBabel11021811383D
libRbt.so/2013.1/901 2013/11/27
 31 33  0  0  0  0  0  0  0  0999 V2000
    3.5769   11.0668   -1.1628 C   0  0  1  0  0  0  0  0  0  0  0  0
    3.2997    9.6962   -0.7309 O   0  0  0  0  0  0  0  0  0  0  0  0
    2.6145    8.7969   -1.6531 C   0  0  2  0  0  0  0  0  0  0  0  0
    3.4594    8.4660   -2.7992 O   0  0  0  0  0  0  0  0  0  0  0  0
    1.2777    9.4530   -2.1145 C   0  0  2  0  0  0  0  0  0  0  0  0
    0.5107    8.6124   -3.0549 N   0  3  0  0  0  0  0  0  0  0  0  0
    1.5555   10.8453   -2.7376 C   0  0  0  0  0  0  0  0  0  0  0  0
    2.3121   11.7494   -1.7528 C   0  0  0  0  0  0  0  0  0  0  0  0
    4.0840   11.8876    0.0361 C   0  0  0  0  0  0  0  0  0  0  0  0
    3.2099   11.8195    1.2145 N   0  3  0  0  0  0  0  0  0  0  0  0
    5.5951    7.8683   -3.8724 C   0  0  1  0  0  0  0  0  0  0  0  0
    6.9208    7.0823   -3.7259 C   0  0  0  0  0  0  0  0  0  0  0  0
    6.6355    5.5889   -3.4125 C   0  0  1  0  0  0  0  0  0  0  0  0
    7.9035    4.8371   -3.3527 N   0  3  0  0  0  0  0  0  0  0  0  0
    5.8218    5.4614   -2.0922 C   0  0  1  0  0  0  0  0  0  0  0  0
    4.5274    6.3117   -2.1344 C   0  0  1  0  0  0  0  0  0  0  0  0
    3.9625    6.2554   -0.8330 O   0  0  0  0  0  0  0  0  0  0  0  0
    4.7400    7.8006   -2.5646 C   0  0  2  0  0  0  0  0  0  0  0  0
    5.8734    9.2594   -4.2708 N   0  3  0  0  0  0  0  0  0  0  0  0
    6.1054    3.7490    1.0876 C   0  0  0  0  0  0  0  0  0  0  0  0
    5.6319    2.3232    1.4625 C   0  0  2  0  0  0  0  0  0  0  0  0
    6.7865    1.5975    1.8825 O   0  0  0  0  0  0  0  0  0  0  0  0
    4.9675    1.6440    0.2060 C   0  0  1  0  0  0  0  0  0  0  0  0
    5.8404    1.7714   -1.0885 C   0  0  2  0  0  0  0  0  0  0  0  0
    6.4212    3.1920   -1.3043 C   0  0  1  0  0  0  0  0  0  0  0  0
    5.4205    4.0794   -1.8690 O   0  0  0  0  0  0  0  0  0  0  0  0
    6.9827    3.7206   -0.0698 O   0  0  0  0  0  0  0  0  0  0  0  0
    5.1077    1.3926   -2.2507 O   0  0  0  0  0  0  0  0  0  0  0  0
    4.6721    0.2080    0.5043 N   0  3  0  0  0  0  0  0  0  0  0  0
    3.3562   -0.3089    0.0765 C   0  0  0  0  0  0  0  0  0  0  0  0
    4.6817    2.4217    2.6813 C   0  0  0  0  0  0  0  0  0  0  0  0
  1  8  1  0  0  0  0
  1  9  1  1  0  0  0
  1  2  1  0  0  0  0
  2  3  1  0  0  0  0
  3  5  1  0  0  0  0
  3  4  1  6  0  0  0
  5  7  1  0  0  0  0
  5  6  1  6  0  0  0
  7  8  1  0  0  0  0
  9 10  1  0  0  0  0
 11 12  1  0  0  0  0
 11 18  1  0  0  0  0
 11 19  1  1  0  0  0
 12 13  1  0  0  0  0
 13 15  1  0  0  0  0
 13 14  1  1  0  0  0
 15 16  1  0  0  0  0
 15 26  1  6  0  0  0
 16 18  1  0  0  0  0
 16 17  1  1  0  0  0
 18  4  1  6  0  0  0
 20 21  1  0  0  0  0
 20 27  1  0  0  0  0
 21 31  1  1  0  0  0
 21 23  1  0  0  0  0
 21 22  1  0  0  0  0
 23 24  1  0  0  0  0
 23 29  1  1  0  0  0
 24 25  1  0  0  0  0
 24 28  1  6  0  0  0
 25 27  1  0  0  0  0
 25 26  1  1  0  0  0
 29 30  1  0  0  0  0
M  CHG  5   6   1  10   1  14   1  19   1  29   1
M  END
>  <CHROM.1>
-52.34082842,59.96540528,-166.40998075,-71.54168076,-55.95126269,63.18682956
69.69852240,80.46318000,-59.11197793,59.04055481,-102.83290542,-174.69759531
178.44018466,4.64288509,6.06188032,-1.26862336,2.02843333,0.89065055,-0.57966720

>  <Name>
1byj cryst

>  <RI>
0

>  <Rbt.Current_Directory>
/home/itssahil/PROJECTS/Mol_Feturizer/New_Systems/rnas/1byj

>  <Rbt.Executable>
rbdock ($Id: //depot/dev/client3/rdock/2013.1/src/exe/rbdock.cxx#4 $)

>  <Rbt.Library>
libRbt.so (2013.1, Build901 2013/11/27)

>  <Rbt.Parameter_File>
/export/apps/rDock/src/rDock_2013.1_src/data/scripts/dock_solv.prm

>  <Rbt.Receptor>
prm/pocket_docking_6.prm

>  <SCORE>
-36.8144

>  <SCORE.INTER>
-28.6458

>  <SCORE.INTER.CONST>
1

>  <SCORE.INTER.POLAR>
-5.132

>  <SCORE.INTER.ROT>
6

>  <SCORE.INTER.SOLV>
17.6111

>  <SCORE.INTER.VDW>
-15.4609

>  <SCORE.INTER.norm>
-0.924059

>  <SCORE.INTRA>
-8.16856

>  <SCORE.INTRA.DIHEDRAL>
-11.3513

>  <SCORE.INTRA.DIHEDRAL.0>
18.4149

>  <SCORE.INTRA.POLAR>
-0.0117788

>  <SCORE.INTRA.POLAR.0>
0

>  <SCORE.INTRA.REPUL>
-0.092687

>  <SCORE.INTRA.REPUL.0>
0.092687

>  <SCORE.INTRA.SOLV>
-2.11212

>  <SCORE.INTRA.SOLV.lig_0>
-120.37

>  <SCORE.INTRA.VDW>
-0.933391

>  <SCORE.INTRA.VDW.0>
-1.75542

>  <SCORE.INTRA.norm>
-0.263502

>  <SCORE.RESTR>
0

>  <SCORE.RESTR.CAVITY>
0

>  <SCORE.RESTR.norm>
0

>  <SCORE.SYSTEM>
0

>  <SCORE.SYSTEM.CONST>
0

>  <SCORE.SYSTEM.DIHEDRAL>
0

>  <SCORE.SYSTEM.SOLV>
0

>  <SCORE.SYSTEM.norm>
0

>  <SCORE.heavy>
31

>  <SCORE.norm>
-1.18756

>  <RMSD>
7.632

$$$$
1byj cryst
 OpenBabel11021811383D
libRbt.so/2013.1/901 2013/11/27
 31 33  0  0  0  0  0  0  0  0999 V2000
    4.8622   10.9702   -2.6676 C   0  0  1  0  0  0  0  0  0  0  0  0
    4.9578    9.7756   -1.8276 O   0  0  0  0  0  0  0  0  0  0  0  0
    4.5459    8.4923   -2.3865 C   0  0  2  0  0  0  0  0  0  0  0  0
    5.4584    8.0544   -3.4411 O   0  0  0  0  0  0  0  0  0  0  0  0
    3.0864    8.6083   -2.9220 C   0  0  2  0  0  0  0  0  0  0  0  0
    2.5803    7.3523   -3.5096 N   0  3  0  0  0  0  0  0  0  0  0  0
    2.9873    9.7643   -3.9505 C   0  0  0  0  0  0  0  0  0  0  0  0
    3.4661   11.0895   -3.3388 C   0  0  0  0  0  0  0  0  0  0  0  0
    5.1209   12.2207   -1.8089 C   0  0  0  0  0  0  0  0  0  0  0  0
    4.2380   12.3316   -0.6404 N   0  3  0  0  0  0  0  0  0  0  0  0
    7.4148    6.8858   -4.3778 C   0  0  1  0  0  0  0  0  0  0  0  0
    8.5560    5.8790   -4.0943 C   0  0  0  0  0  0  0  0  0  0  0  0
    7.9790    4.5371   -3.5688 C   0  0  1  0  0  0  0  0  0  0  0  0
    9.0696    3.5621   -3.3771 N   0  3  0  0  0  0  0  0  0  0  0  0
    7.1739    4.7732   -2.2582 C   0  0  1  0  0  0  0  0  0  0  0  0
    6.0777    5.8514   -2.4475 C   0  0  1  0  0  0  0  0  0  0  0  0
    5.5304    6.1037   -1.1619 O   0  0  0  0  0  0  0  0  0  0  0  0
    6.5811    7.1864   -3.0891 C   0  0  2  0  0  0  0  0  0  0  0  0
    7.9632    8.1175   -4.9724 N   0  3  0  0  0  0  0  0  0  0  0  0
    6.8651    3.4151    1.1881 C   0  0  0  0  0  0  0  0  0  0  0  0
    6.1480    2.1160    1.6304 C   0  0  2  0  0  0  0  0  0  0  0  0
    7.1363    1.2765    2.2259 O   0  0  0  0  0  0  0  0  0  0  0  0
    5.5023    1.4196    0.3737 C   0  0  1  0  0  0  0  0  0  0  0  0
    6.4961    1.2926   -0.8305 C   0  0  2  0  0  0  0  0  0  0  0  0
    7.3038    2.5868   -1.1037 C   0  0  1  0  0  0  0  0  0  0  0  0
    6.5046    3.5493   -1.8404 O   0  0  0  0  0  0  0  0  0  0  0  0
    7.8273    3.1476    0.1334 O   0  0  0  0  0  0  0  0  0  0  0  0
    5.8206    0.9110   -2.0260 O   0  0  0  0  0  0  0  0  0  0  0  0
    4.9658    0.0772    0.7591 N   0  3  0  0  0  0  0  0  0  0  0  0
    3.5147   -0.0157    1.0193 C   0  0  0  0  0  0  0  0  0  0  0  0
    5.1193    2.4691    2.7327 C   0  0  0  0  0  0  0  0  0  0  0  0
  1  8  1  0  0  0  0
  1  9  1  1  0  0  0
  1  2  1  0  0  0  0
  2  3  1  0  0  0  0
  3  5  1  0  0  0  0
  3  4  1  6  0  0  0
  5  7  1  0  0  0  0
  5  6  1  6  0  0  0
  7  8  1  0  0  0  0
  9 10  1  0  0  0  0
 11 12  1  0  0  0  0
 11 18  1  0  0  0  0
 11 19  1  1  0  0  0
 12 13  1  0  0  0  0
 13 15  1  0  0  0  0
 13 14  1  1  0  0  0
 15 16  1  0  0  0  0
 15 26  1  6  0  0  0
 16 18  1  0  0  0  0
 16 17  1  1  0  0  0
 18  4  1  6  0  0  0
 20 21  1  0  0  0  0
 20 27  1  0  0  0  0
 21 31  1  1  0  0  0
 21 23  1  0  0  0  0
 21 22  1  0  0  0  0
 23 24  1  0  0  0  0
 23 29  1  1  0  0  0
 24 25  1  0  0  0  0
 24 28  1  6  0  0  0
 25 27  1  0  0  0  0
 25 26  1  1  0  0  0
 29 30  1  0  0  0  0
M  CHG  5   6   1  10   1  14   1  19   1  29   1
M  END
>  <CHROM.1>
-55.39327779,92.62152987,-178.92277357,-38.86166351,-60.57998057,53.46885442
-163.74826122,82.00516023,61.18031381,-58.42506362,-139.56152348,-69.32541217
-175.30909841,5.83601558,5.58336579,-1.64965934,1.79212220,0.76168105,-0.51274173

>  <Name>
1byj cryst

>  <RI>
0

>  <Rbt.Current_Directory>
/home/itssahil/PROJECTS/Mol_Feturizer/New_Systems/rnas/1byj

>  <Rbt.Executable>
rbdock ($Id: //depot/dev/client3/rdock/2013.1/src/exe/rbdock.cxx#4 $)

>  <Rbt.Library>
libRbt.so (2013.1, Build901 2013/11/27)

>  <Rbt.Parameter_File>
/export/apps/rDock/src/rDock_2013.1_src/data/scripts/dock_solv.prm

>  <Rbt.Receptor>
prm/pocket_docking_7.prm

>  <SCORE>
-44.9054

>  <SCORE.INTER>
-39.0366

>  <SCORE.INTER.CONST>
1

>  <SCORE.INTER.POLAR>
-6.77945

>  <SCORE.INTER.ROT>
6

>  <SCORE.INTER.SOLV>
22.685

>  <SCORE.INTER.VDW>
-18.5879

>  <SCORE.INTER.norm>
-1.25924

>  <SCORE.INTRA>
-5.86888

>  <SCORE.INTRA.DIHEDRAL>
-6.86103

>  <SCORE.INTRA.DIHEDRAL.0>
18.4149

>  <SCORE.INTRA.POLAR>
-0.0188859

>  <SCORE.INTRA.POLAR.0>
0

>  <SCORE.INTRA.REPUL>
-0.092687

>  <SCORE.INTRA.REPUL.0>
0.092687

>  <SCORE.INTRA.SOLV>
-1.29742

>  <SCORE.INTRA.SOLV.lig_0>
-120.37

>  <SCORE.INTRA.VDW>
-1.26201

>  <SCORE.INTRA.VDW.0>
-1.75542

>  <SCORE.INTRA.norm>
-0.189319

>  <SCORE.RESTR>
0

>  <SCORE.RESTR.CAVITY>
0

>  <SCORE.RESTR.norm>
0

>  <SCORE.SYSTEM>
0

>  <SCORE.SYSTEM.CONST>
0

>  <SCORE.SYSTEM.DIHEDRAL>
0

>  <SCORE.SYSTEM.SOLV>
0

>  <SCORE.SYSTEM.norm>
0

>  <SCORE.heavy>
31

>  <SCORE.norm>
-1.44856

>  <RMSD>
7.639

$$$$
1byj cryst
 OpenBabel11021811383D
libRbt.so/2013.1/901 2013/11/27
 31 33  0  0  0  0  0  0  0  0999 V2000
    5.4316   11.6468   -2.8732 C   0  0  1  0  0  0  0  0  0  0  0  0
    5.0262   10.5563   -1.9852 O   0  0  0  0  0  0  0  0  0  0  0  0
    4.0445    9.5902   -2.4665 C   0  0  2  0  0  0  0  0  0  0  0  0
    4.5936    8.7644   -3.5404 O   0  0  0  0  0  0  0  0  0  0  0  0
    2.7665   10.3469   -2.9404 C   0  0  2  0  0  0  0  0  0  0  0  0
    1.7115    9.4474   -3.4473 N   0  3  0  0  0  0  0  0  0  0  0  0
    3.1398   11.4010   -4.0144 C   0  0  0  0  0  0  0  0  0  0  0  0
    4.2032   12.3750   -3.4854 C   0  0  0  0  0  0  0  0  0  0  0  0
    6.2804   12.6593   -2.0842 C   0  0  0  0  0  0  0  0  0  0  0  0
    6.8926   13.7001   -2.9205 N   0  3  0  0  0  0  0  0  0  0  0  0
    6.6946    7.9469   -4.5343 C   0  0  1  0  0  0  0  0  0  0  0  0
    7.9104    7.0058   -4.3532 C   0  0  0  0  0  0  0  0  0  0  0  0
    7.4373    5.5489   -4.1015 C   0  0  1  0  0  0  0  0  0  0  0  0
    8.6042    4.6509   -4.0085 N   0  3  0  0  0  0  0  0  0  0  0  0
    6.5507    5.4834   -2.8242 C   0  0  1  0  0  0  0  0  0  0  0  0
    5.3684    6.4818   -2.8977 C   0  0  1  0  0  0  0  0  0  0  0  0
    4.7378    6.4582   -1.6258 O   0  0  0  0  0  0  0  0  0  0  0  0
    5.7746    7.9461   -3.2696 C   0  0  2  0  0  0  0  0  0  0  0  0
    7.1529    9.3054   -4.8746 N   0  3  0  0  0  0  0  0  0  0  0  0
    6.4602    3.6613    0.3102 C   0  0  0  0  0  0  0  0  0  0  0  0
    5.8065    2.2903    0.6110 C   0  0  2  0  0  0  0  0  0  0  0  0
    6.8456    1.4235    1.0639 O   0  0  0  0  0  0  0  0  0  0  0  0
    5.1382    1.7290   -0.7004 C   0  0  1  0  0  0  0  0  0  0  0  0
    6.0892    1.7908   -1.9436 C   0  0  2  0  0  0  0  0  0  0  0  0
    6.8400    3.1397   -2.0804 C   0  0  1  0  0  0  0  0  0  0  0  0
    5.9801    4.1532   -2.6643 O   0  0  0  0  0  0  0  0  0  0  0  0
    7.3903    3.5640   -0.8013 O   0  0  0  0  0  0  0  0  0  0  0  0
    5.3824    1.5330   -3.1540 O   0  0  0  0  0  0  0  0  0  0  0  0
    4.6642    0.3292   -0.4674 N   0  3  0  0  0  0  0  0  0  0  0  0
    3.4083   -0.0731   -1.1327 C   0  0  0  0  0  0  0  0  0  0  0  0
    4.8088    2.4640    1.7825 C   0  0  0  0  0  0  0  0  0  0  0  0
  1  8  1  0  0  0  0
  1  9  1  1  0  0  0
  1  2  1  0  0  0  0
  2  3  1  0  0  0  0
  3  5  1  0  0  0  0
  3  4  1  6  0  0  0
  5  7  1  0  0  0  0
  5  6  1  6  0  0  0
  7  8  1  0  0  0  0
  9 10  1  0  0  0  0
 11 12  1  0  0  0  0
 11 18  1  0  0  0  0
 11 19  1  1  0  0  0
 12 13  1  0  0  0  0
 13 15  1  0  0  0  0
 13 14  1  1  0  0  0
 15 16  1  0  0  0  0
 15 26  1  6  0  0  0
 16 18  1  0  0  0  0
 16 17  1  1  0  0  0
 18  4  1  6  0  0  0
 20 21  1  0  0  0  0
 20 27  1  0  0  0  0
 21 31  1  1  0  0  0
 21 23  1  0  0  0  0
 21 22  1  0  0  0  0
 23 24  1  0  0  0  0
 23 29  1  1  0  0  0
 24 25  1  0  0  0  0
 24 28  1  6  0  0  0
 25 27  1  0  0  0  0
 25 26  1  1  0  0  0
 29 30  1  0  0  0  0
M  CHG  5   6   1  10   1  14   1  19   1  29   1
M  END
>  <CHROM.1>
172.13143799,59.82765964,-142.60124348,56.33934634,-59.14370867,-40.49008467
-46.90732401,80.62063612,65.65920772,-59.38505563,-94.82095584,-65.49991590
178.70332464,5.59464557,6.34835550,-2.30437561,1.64820624,0.47905759,-0.29676995

>  <Name>
1byj cryst

>  <RI>
0

>  <Rbt.Current_Directory>
/home/itssahil/PROJECTS/Mol_Feturizer/New_Systems/rnas/1byj

>  <Rbt.Executable>
rbdock ($Id: //depot/dev/client3/rdock/2013.1/src/exe/rbdock.cxx#4 $)

>  <Rbt.Library>
libRbt.so (2013.1, Build901 2013/11/27)

>  <Rbt.Parameter_File>
/export/apps/rDock/src/rDock_2013.1_src/data/scripts/dock_solv.prm

>  <Rbt.Receptor>
prm/pocket_docking_7.prm

>  <SCORE>
-36.745

>  <SCORE.INTER>
-30.4071

>  <SCORE.INTER.CONST>
1

>  <SCORE.INTER.POLAR>
-5.30791

>  <SCORE.INTER.ROT>
6

>  <SCORE.INTER.SOLV>
19.1281

>  <SCORE.INTER.VDW>
-16.5544

>  <SCORE.INTER.norm>
-0.980875

>  <SCORE.INTRA>
-6.33789

>  <SCORE.INTRA.DIHEDRAL>
-7.01154

>  <SCORE.INTRA.DIHEDRAL.0>
18.4149

>  <SCORE.INTRA.POLAR>
-0.00781536

>  <SCORE.INTRA.POLAR.0>
0

>  <SCORE.INTRA.REPUL>
-0.092687

>  <SCORE.INTRA.REPUL.0>
0.092687

>  <SCORE.INTRA.SOLV>
-1.49

>  <SCORE.INTRA.SOLV.lig_0>
-120.37

>  <SCORE.INTRA.VDW>
-1.59711

>  <SCORE.INTRA.VDW.0>
-1.75542

>  <SCORE.INTRA.norm>
-0.204448

>  <SCORE.RESTR>
0

>  <SCORE.RESTR.CAVITY>
0

>  <SCORE.RESTR.norm>
0

>  <SCORE.SYSTEM>
0

>  <SCORE.SYSTEM.CONST>
0

>  <SCORE.SYSTEM.DIHEDRAL>
0

>  <SCORE.SYSTEM.SOLV>
0

>  <SCORE.SYSTEM.norm>
0

>  <SCORE.heavy>
31

>  <SCORE.norm>
-1.18532

>  <RMSD>
7.659

$$$$
1byj cryst
 OpenBabel11021811383D
libRbt.so/2013.1/901 2013/11/27
 31 33  0  0  0  0  0  0  0  0999 V2000
    4.7761   10.8779   -4.5830 C   0  0  1  0  0  0  0  0  0  0  0  0
    5.7151   10.5730   -3.5025 O   0  0  0  0  0  0  0  0  0  0  0  0
    5.4164    9.4584   -2.6097 C   0  0  2  0  0  0  0  0  0  0  0  0
    5.5109    8.1778   -3.3082 O   0  0  0  0  0  0  0  0  0  0  0  0
    3.9978    9.6568   -1.9946 C   0  0  2  0  0  0  0  0  0  0  0  0
    3.6058    8.5723   -1.0729 N   0  3  0  0  0  0  0  0  0  0  0  0
    2.9458    9.8135   -3.1228 C   0  0  0  0  0  0  0  0  0  0  0  0
    3.3146   10.9700   -4.0642 C   0  0  0  0  0  0  0  0  0  0  0  0
    5.1673   12.2144   -5.2378 C   0  0  0  0  0  0  0  0  0  0  0  0
    6.5903   12.3096   -5.5888 N   0  3  0  0  0  0  0  0  0  0  0  0
    7.4023    6.9670   -4.3217 C   0  0  1  0  0  0  0  0  0  0  0  0
    8.5319    5.9356   -4.0834 C   0  0  0  0  0  0  0  0  0  0  0  0
    7.9473    4.6065   -3.5342 C   0  0  1  0  0  0  0  0  0  0  0  0
    9.0233    3.6080   -3.3857 N   0  3  0  0  0  0  0  0  0  0  0  0
    7.2008    4.8599   -2.1926 C   0  0  1  0  0  0  0  0  0  0  0  0
    6.1215    5.9617   -2.3386 C   0  0  1  0  0  0  0  0  0  0  0  0
    5.6318    6.2256   -1.0322 O   0  0  0  0  0  0  0  0  0  0  0  0
    6.6277    7.2855   -3.0009 C   0  0  2  0  0  0  0  0  0  0  0  0
    7.9531    8.1866   -4.9387 N   0  3  0  0  0  0  0  0  0  0  0  0
    6.7585    3.4852    1.2918 C   0  0  0  0  0  0  0  0  0  0  0  0
    6.0572    2.1625    1.6873 C   0  0  2  0  0  0  0  0  0  0  0  0
    7.0409    1.3403    2.3137 O   0  0  0  0  0  0  0  0  0  0  0  0
    5.4831    1.4669    0.3958 C   0  0  1  0  0  0  0  0  0  0  0  0
    6.5296    1.3812   -0.7667 C   0  0  2  0  0  0  0  0  0  0  0  0
    7.3144    2.6990   -0.9894 C   0  0  1  0  0  0  0  0  0  0  0  0
    6.5223    3.6507   -1.7474 O   0  0  0  0  0  0  0  0  0  0  0  0
    7.7708    3.2561    0.2755 O   0  0  0  0  0  0  0  0  0  0  0  0
    5.9150    0.9988   -1.9943 O   0  0  0  0  0  0  0  0  0  0  0  0
    4.9657    0.1064    0.7416 N   0  3  0  0  0  0  0  0  0  0  0  0
    3.5166   -0.0141    1.0013 C   0  0  0  0  0  0  0  0  0  0  0  0
    4.9743    2.4747    2.7493 C   0  0  0  0  0  0  0  0  0  0  0  0
  1  8  1  0  0  0  0
  1  9  1  1  0  0  0
  1  2  1  0  0  0  0
  2  3  1  0  0  0  0
  3  5  1  0  0  0  0
  3  4  1  6  0  0  0
  5  7  1  0  0  0  0
  5  6  1  6  0  0  0
  7  8  1  0  0  0  0
  9 10  1  0  0  0  0
 11 12  1  0  0  0  0
 11 18  1  0  0  0  0
 11 19  1  1  0  0  0
 12 13  1  0  0  0  0
 13 15  1  0  0  0  0
 13 14  1  1  0  0  0
 15 16  1  0  0  0  0
 15 26  1  6  0  0  0
 16 18  1  0  0  0  0
 16 17  1  1  0  0  0
 18  4  1  6  0  0  0
 20 21  1  0  0  0  0
 20 27  1  0  0  0  0
 21 31  1  1  0  0  0
 21 23  1  0  0  0  0
 21 22  1  0  0  0  0
 23 24  1  0  0  0  0
 23 29  1  1  0  0  0
 24 25  1  0  0  0  0
 24 28  1  6  0  0  0
 25 27  1  0  0  0  0
 25 26  1  1  0  0  0
 29 30  1  0  0  0  0
M  CHG  5   6   1  10   1  14   1  19   1  29   1
M  END
>  <CHROM.1>
49.01306057,108.79076184,-123.49379075,95.08337355,-81.26369973,175.91367656
68.06759643,84.74096661,59.41256797,57.19383603,-142.35945535,-69.12933711
-171.62138262,6.03011759,5.76310107,-1.89379957,1.65647410,0.66484815,-0.53992650

>  <Name>
1byj cryst

>  <RI>
0

>  <Rbt.Current_Directory>
/home/itssahil/PROJECTS/Mol_Feturizer/New_Systems/rnas/1byj

>  <Rbt.Executable>
rbdock ($Id: //depot/dev/client3/rdock/2013.1/src/exe/rbdock.cxx#4 $)

>  <Rbt.Library>
libRbt.so (2013.1, Build901 2013/11/27)

>  <Rbt.Parameter_File>
/export/apps/rDock/src/rDock_2013.1_src/data/scripts/dock_solv.prm

>  <Rbt.Receptor>
prm/pocket_docking_7.prm

>  <SCORE>
-42.4751

>  <SCORE.INTER>
-39.7563

>  <SCORE.INTER.CONST>
1

>  <SCORE.INTER.POLAR>
-6.4893

>  <SCORE.INTER.ROT>
6

>  <SCORE.INTER.SOLV>
20.9424

>  <SCORE.INTER.VDW>
-19.454

>  <SCORE.INTER.norm>
-1.28246

>  <SCORE.INTRA>
-2.71878

>  <SCORE.INTRA.DIHEDRAL>
5.30466

>  <SCORE.INTRA.DIHEDRAL.0>
18.4149

>  <SCORE.INTRA.POLAR>
-1.24969

>  <SCORE.INTRA.POLAR.0>
0

>  <SCORE.INTRA.REPUL>
-0.092687

>  <SCORE.INTRA.REPUL.0>
0.092687

>  <SCORE.INTRA.SOLV>
0.976823

>  <SCORE.INTRA.SOLV.lig_0>
-120.37

>  <SCORE.INTRA.VDW>
-1.14716

>  <SCORE.INTRA.VDW.0>
-1.75542

>  <SCORE.INTRA.norm>
-0.0877027

>  <SCORE.RESTR>
0

>  <SCORE.RESTR.CAVITY>
0

>  <SCORE.RESTR.norm>
0

>  <SCORE.SYSTEM>
0

>  <SCORE.SYSTEM.CONST>
0

>  <SCORE.SYSTEM.DIHEDRAL>
0

>  <SCORE.SYSTEM.SOLV>
0

>  <SCORE.SYSTEM.norm>
0

>  <SCORE.heavy>
31

>  <SCORE.norm>
-1.37016

>  <RMSD>
7.670

$$$$
1byj cryst
 OpenBabel11021811383D
libRbt.so/2013.1/901 2013/11/27
 31 33  0  0  0  0  0  0  0  0999 V2000
    8.0341    8.5558   -2.1186 C   0  0  1  0  0  0  0  0  0  0  0  0
    7.1692    7.4564   -1.6878 O   0  0  0  0  0  0  0  0  0  0  0  0
    6.3034    6.8194   -2.6743 C   0  0  2  0  0  0  0  0  0  0  0  0
    7.0813    6.0718   -3.6605 O   0  0  0  0  0  0  0  0  0  0  0  0
    5.4218    7.9050   -3.3634 C   0  0  2  0  0  0  0  0  0  0  0  0
    4.5083    7.3523   -4.3828 N   0  3  0  0  0  0  0  0  0  0  0  0
    6.3209    9.0056   -3.9834 C   0  0  0  0  0  0  0  0  0  0  0  0
    7.2451    9.6246   -2.9241 C   0  0  0  0  0  0  0  0  0  0  0  0
    8.6710    9.2185   -0.8844 C   0  0  0  0  0  0  0  0  0  0  0  0
    9.7155   10.1986   -1.2094 N   0  3  0  0  0  0  0  0  0  0  0  0
    9.1839    4.9466   -4.2798 C   0  0  1  0  0  0  0  0  0  0  0  0
   10.2046    3.8481   -3.8950 C   0  0  0  0  0  0  0  0  0  0  0  0
    9.4934    2.4777   -3.7340 C   0  0  1  0  0  0  0  0  0  0  0  0
   10.4877    1.4268   -3.4443 N   0  3  0  0  0  0  0  0  0  0  0  0
    8.4009    2.5641   -2.6292 C   0  0  1  0  0  0  0  0  0  0  0  0
    7.4025    3.7169   -2.9021 C   0  0  1  0  0  0  0  0  0  0  0  0
    6.5664    3.8087   -1.7582 O   0  0  0  0  0  0  0  0  0  0  0  0
    8.0701    5.1015   -3.1929 C   0  0  2  0  0  0  0  0  0  0  0  0
    9.8818    6.2199   -4.5309 N   0  3  0  0  0  0  0  0  0  0  0  0
    9.7452    1.5173   -0.3833 C   0  0  0  0  0  0  0  0  0  0  0  0
    9.0397    2.2025    0.8126 C   0  0  2  0  0  0  0  0  0  0  0  0
    9.0694    1.2782    1.8993 O   0  0  0  0  0  0  0  0  0  0  0  0
    7.5568    2.5548    0.4149 C   0  0  1  0  0  0  0  0  0  0  0  0
    6.8008    1.3520   -0.2454 C   0  0  2  0  0  0  0  0  0  0  0  0
    7.6392    0.6084   -1.3159 C   0  0  1  0  0  0  0  0  0  0  0  0
    7.6283    1.3309   -2.5750 O   0  0  0  0  0  0  0  0  0  0  0  0
    8.9932    0.3621   -0.8415 O   0  0  0  0  0  0  0  0  0  0  0  0
    5.5706    1.7685   -0.8323 O   0  0  0  0  0  0  0  0  0  0  0  0
    6.8147    3.0493    1.6162 N   0  3  0  0  0  0  0  0  0  0  0  0
    6.4402    2.0458    2.6333 C   0  0  0  0  0  0  0  0  0  0  0  0
    9.8716    3.4380    1.2364 C   0  0  0  0  0  0  0  0  0  0  0  0
  1  8  1  0  0  0  0
  1  9  1  1  0  0  0
  1  2  1  0  0  0  0
  2  3  1  0  0  0  0
  3  5  1  0  0  0  0
  3  4  1  6  0  0  0
  5  7  1  0  0  0  0
  5  6  1  6  0  0  0
  7  8  1  0  0  0  0
  9 10  1  0  0  0  0
 11 12  1  0  0  0  0
 11 18  1  0  0  0  0
 11 19  1  1  0  0  0
 12 13  1  0  0  0  0
 13 15  1  0  0  0  0
 13 14  1  1  0  0  0
 15 16  1  0  0  0  0
 15 26  1  6  0  0  0
 16 18  1  0  0  0  0
 16 17  1  1  0  0  0
 18  4  1  6  0  0  0
 20 21  1  0  0  0  0
 20 27  1  0  0  0  0
 21 31  1  1  0  0  0
 21 23  1  0  0  0  0
 21 22  1  0  0  0  0
 23 24  1  0  0  0  0
 23 29  1  1  0  0  0
 24 25  1  0  0  0  0
 24 28  1  6  0  0  0
 25 27  1  0  0  0  0
 25 26  1  6  0  0  0
 29 30  1  0  0  0  0
M  CHG  5   6   1  10   1  14   1  19   1  29   1
M  END
>  <CHROM.1>
171.09449927,51.84566176,-153.58469485,-21.63832380,-139.64456459,-25.79254949
54.55550764,120.52067838,75.97097425,-57.83524676,47.75353028,-59.86184239
72.29385597,7.91166630,4.44617518,-1.75361075,1.87702959,1.18053984,-0.67744747

>  <Name>
1byj cryst

>  <RI>
0

>  <Rbt.Current_Directory>
/home/itssahil/PROJECTS/Mol_Feturizer/New_Systems/rnas/1byj

>  <Rbt.Executable>
rbdock ($Id: //depot/dev/client3/rdock/2013.1/src/exe/rbdock.cxx#4 $)

>  <Rbt.Library>
libRbt.so (2013.1, Build901 2013/11/27)

>  <Rbt.Parameter_File>
/export/apps/rDock/src/rDock_2013.1_src/data/scripts/dock_solv.prm

>  <Rbt.Receptor>
prm/blind_docking_60.prm

>  <SCORE>
-16.1449

>  <SCORE.INTER>
-25.8922

>  <SCORE.INTER.CONST>
1

>  <SCORE.INTER.POLAR>
-3.88641

>  <SCORE.INTER.ROT>
6

>  <SCORE.INTER.SOLV>
30.2333

>  <SCORE.INTER.VDW>
-21.9846

>  <SCORE.INTER.norm>
-0.835232

>  <SCORE.INTRA>
4.261

>  <SCORE.INTRA.DIHEDRAL>
2.54183

>  <SCORE.INTRA.DIHEDRAL.0>
18.4149

>  <SCORE.INTRA.POLAR>
-0.0167147

>  <SCORE.INTRA.POLAR.0>
0

>  <SCORE.INTRA.REPUL>
-0.092687

>  <SCORE.INTRA.REPUL.0>
0.092687

>  <SCORE.INTRA.SOLV>
0.488404

>  <SCORE.INTRA.SOLV.lig_0>
-120.37

>  <SCORE.INTRA.VDW>
3.26615

>  <SCORE.INTRA.VDW.0>
-1.75542

>  <SCORE.INTRA.norm>
0.137451

>  <SCORE.RESTR>
5.48629

>  <SCORE.RESTR.CAVITY>
5.48629

>  <SCORE.RESTR.norm>
0.176977

>  <SCORE.SYSTEM>
0

>  <SCORE.SYSTEM.CONST>
0

>  <SCORE.SYSTEM.DIHEDRAL>
0

>  <SCORE.SYSTEM.SOLV>
0

>  <SCORE.SYSTEM.norm>
0

>  <SCORE.heavy>
31

>  <SCORE.norm>
-0.520803

>  <RMSD>
7.691

$$$$
1byj cryst
 OpenBabel11021811383D
libRbt.so/2013.1/901 2013/11/27
 31 33  0  0  0  0  0  0  0  0999 V2000
    4.0618    8.2474   -3.2948 C   0  0  1  0  0  0  0  0  0  0  0  0
    3.3192    8.1868   -2.0350 O   0  0  0  0  0  0  0  0  0  0  0  0
    1.9353    8.6482   -2.0155 C   0  0  2  0  0  0  0  0  0  0  0  0
    1.0681    7.7605   -2.7880 O   0  0  0  0  0  0  0  0  0  0  0  0
    1.8708   10.1072   -2.5612 C   0  0  2  0  0  0  0  0  0  0  0  0
    0.5031   10.6620   -2.5798 N   0  3  0  0  0  0  0  0  0  0  0  0
    2.5004   10.1742   -3.9765 C   0  0  0  0  0  0  0  0  0  0  0  0
    3.9420    9.6440   -3.9648 C   0  0  0  0  0  0  0  0  0  0  0  0
    5.5455    7.9377   -3.0287 C   0  0  0  0  0  0  0  0  0  0  0  0
    5.7856    6.5858   -2.5074 N   0  3  0  0  0  0  0  0  0  0  0  0
   -0.0316    6.3616   -1.0838 C   0  0  1  0  0  0  0  0  0  0  0  0
   -0.1644    4.9361   -0.4949 C   0  0  0  0  0  0  0  0  0  0  0  0
    1.2269    4.3886   -0.0776 C   0  0  1  0  0  0  0  0  0  0  0  0
    1.0767    3.0630    0.5526 N   0  3  0  0  0  0  0  0  0  0  0  0
    2.1788    4.3423   -1.3078 C   0  0  1  0  0  0  0  0  0  0  0  0
    2.2747    5.7209   -2.0081 C   0  0  1  0  0  0  0  0  0  0  0  0
    3.0220    5.5201   -3.1986 O   0  0  0  0  0  0  0  0  0  0  0  0
    0.8953    6.3784   -2.3434 C   0  0  2  0  0  0  0  0  0  0  0  0
   -1.3657    6.9123   -1.3810 N   0  3  0  0  0  0  0  0  0  0  0  0
    6.0925    2.5338   -1.7139 C   0  0  0  0  0  0  0  0  0  0  0  0
    6.7476    2.0783   -0.3870 C   0  0  2  0  0  0  0  0  0  0  0  0
    6.8213    0.6538   -0.4260 O   0  0  0  0  0  0  0  0  0  0  0  0
    5.8668    2.5624    0.8260 C   0  0  1  0  0  0  0  0  0  0  0  0
    4.3469    2.2277    0.6474 C   0  0  2  0  0  0  0  0  0  0  0  0
    3.8047    2.5551   -0.7671 C   0  0  1  0  0  0  0  0  0  0  0  0
    3.5271    3.9740   -0.8989 O   0  0  0  0  0  0  0  0  0  0  0  0
    4.7151    2.0806   -1.7990 O   0  0  0  0  0  0  0  0  0  0  0  0
    3.5472    2.9034    1.6143 O   0  0  0  0  0  0  0  0  0  0  0  0
    6.3909    1.9746    2.0981 N   0  3  0  0  0  0  0  0  0  0  0  0
    6.0497    2.6769    3.3520 C   0  0  0  0  0  0  0  0  0  0  0  0
    8.2002    2.6132   -0.3429 C   0  0  0  0  0  0  0  0  0  0  0  0
  1  8  1  0  0  0  0
  1  9  1  1  0  0  0
  1  2  1  0  0  0  0
  2  3  1  0  0  0  0
  3  5  1  0  0  0  0
  3  4  1  6  0  0  0
  5  7  1  0  0  0  0
  5  6  1  6  0  0  0
  7  8  1  0  0  0  0
  9 10  1  0  0  0  0
 11 12  1  0  0  0  0
 11 18  1  0  0  0  0
 11 19  1  6  0  0  0
 12 13  1  0  0  0  0
 13 15  1  0  0  0  0
 13 14  1  6  0  0  0
 15 16  1  0  0  0  0
 15 26  1  1  0  0  0
 16 18  1  0  0  0  0
 16 17  1  6  0  0  0
 18  4  1  1  0  0  0
 20 21  1  0  0  0  0
 20 27  1  0  0  0  0
 21 31  1  1  0  0  0
 21 23  1  0  0  0  0
 21 22  1  0  0  0  0
 23 24  1  0  0  0  0
 23 29  1  1  0  0  0
 24 25  1  0  0  0  0
 24 28  1  1  0  0  0
 25 27  1  0  0  0  0
 25 26  1  1  0  0  0
 29 30  1  0  0  0  0
M  CHG  5   6   1  10   1  14   1  19   1  29   1
M  END
>  <CHROM.1>
62.76206751,63.91089468,74.25010978,165.24246019,-85.88569886,-52.90754840
-37.00160228,84.23257510,162.23225676,63.45813571,-81.30195754,54.81707939
-124.56349406,3.41094145,5.28132448,-1.20723488,-2.09954230,-0.18888547,2.58436576

>  <Name>
1byj cryst

>  <RI>
0

>  <Rbt.Current_Directory>
/home/itssahil/PROJECTS/Mol_Feturizer/New_Systems/rnas/1byj

>  <Rbt.Executable>
rbdock ($Id: //depot/dev/client3/rdock/2013.1/src/exe/rbdock.cxx#4 $)

>  <Rbt.Library>
libRbt.so (2013.1, Build901 2013/11/27)

>  <Rbt.Parameter_File>
/export/apps/rDock/src/rDock_2013.1_src/data/scripts/dock_solv.prm

>  <Rbt.Receptor>
prm/pocket_docking_4.prm

>  <SCORE>
-28.5639

>  <SCORE.INTER>
-21.9855

>  <SCORE.INTER.CONST>
1

>  <SCORE.INTER.POLAR>
-4.07972

>  <SCORE.INTER.ROT>
6

>  <SCORE.INTER.SOLV>
19.3245

>  <SCORE.INTER.VDW>
-15.0994

>  <SCORE.INTER.norm>
-0.709209

>  <SCORE.INTRA>
-6.57846

>  <SCORE.INTRA.DIHEDRAL>
-1.53361

>  <SCORE.INTRA.DIHEDRAL.0>
18.4149

>  <SCORE.INTRA.POLAR>
-2.00884

>  <SCORE.INTRA.POLAR.0>
0

>  <SCORE.INTRA.REPUL>
-0.0914912

>  <SCORE.INTRA.REPUL.0>
0.092687

>  <SCORE.INTRA.SOLV>
3.80216

>  <SCORE.INTRA.SOLV.lig_0>
-120.37

>  <SCORE.INTRA.VDW>
-0.425223

>  <SCORE.INTRA.VDW.0>
-1.75542

>  <SCORE.INTRA.norm>
-0.212208

>  <SCORE.RESTR>
0

>  <SCORE.RESTR.CAVITY>
0

>  <SCORE.RESTR.norm>
0

>  <SCORE.SYSTEM>
0

>  <SCORE.SYSTEM.CONST>
0

>  <SCORE.SYSTEM.DIHEDRAL>
0

>  <SCORE.SYSTEM.SOLV>
0

>  <SCORE.SYSTEM.norm>
0

>  <SCORE.heavy>
31

>  <SCORE.norm>
-0.921417

>  <RMSD>
7.709

$$$$
1byj cryst
 OpenBabel11021811383D
libRbt.so/2013.1/901 2013/11/27
 31 33  0  0  0  0  0  0  0  0999 V2000
    7.0977    9.2390   -5.2556 C   0  0  1  0  0  0  0  0  0  0  0  0
    8.2200    8.7338   -4.4635 O   0  0  0  0  0  0  0  0  0  0  0  0
    7.9359    8.0199   -3.2232 C   0  0  2  0  0  0  0  0  0  0  0  0
    7.2959    6.7321   -3.4858 O   0  0  0  0  0  0  0  0  0  0  0  0
    7.0430    8.9121   -2.3082 C   0  0  2  0  0  0  0  0  0  0  0  0
    6.7015    8.2702   -1.0235 N   0  3  0  0  0  0  0  0  0  0  0  0
    5.7545    9.3275   -3.0640 C   0  0  0  0  0  0  0  0  0  0  0  0
    6.0934   10.0401   -4.3819 C   0  0  0  0  0  0  0  0  0  0  0  0
    7.6318   10.1474   -6.3770 C   0  0  0  0  0  0  0  0  0  0  0  0
    8.0745   11.4681   -5.9110 N   0  3  0  0  0  0  0  0  0  0  0  0
    8.9756    5.2040   -4.4418 C   0  0  1  0  0  0  0  0  0  0  0  0
    9.7141    3.8538   -4.2743 C   0  0  0  0  0  0  0  0  0  0  0  0
    8.6956    2.6892   -4.1468 C   0  0  1  0  0  0  0  0  0  0  0  0
    9.4120    1.4019   -4.0662 N   0  3  0  0  0  0  0  0  0  0  0  0
    7.7690    2.9161   -2.9174 C   0  0  1  0  0  0  0  0  0  0  0  0
    7.0761    4.3008   -2.9721 C   0  0  1  0  0  0  0  0  0  0  0  0
    6.4013    4.4659   -1.7338 O   0  0  0  0  0  0  0  0  0  0  0  0
    8.0442    5.5040   -3.2217 C   0  0  2  0  0  0  0  0  0  0  0  0
    9.9482    6.2881   -4.6651 N   0  3  0  0  0  0  0  0  0  0  0  0
    8.9364    1.6114   -0.8027 C   0  0  0  0  0  0  0  0  0  0  0  0
    8.2272    1.6820    0.5720 C   0  0  2  0  0  0  0  0  0  0  0  0
    8.4687    0.4390    1.2298 O   0  0  0  0  0  0  0  0  0  0  0  0
    6.6841    1.9124    0.3547 C   0  0  1  0  0  0  0  0  0  0  0  0
    6.0646    0.9345   -0.7007 C   0  0  2  0  0  0  0  0  0  0  0  0
    6.9224    0.7854   -1.9828 C   0  0  1  0  0  0  0  0  0  0  0  0
    6.7163    1.9107   -2.8766 O   0  0  0  0  0  0  0  0  0  0  0  0
    8.3284    0.6029   -1.6530 O   0  0  0  0  0  0  0  0  0  0  0  0
    4.7480    1.3343   -1.0721 O   0  0  0  0  0  0  0  0  0  0  0  0
    5.9668    1.8006    1.6629 N   0  3  0  0  0  0  0  0  0  0  0  0
    6.2502    2.8394    2.6740 C   0  0  0  0  0  0  0  0  0  0  0  0
    8.8999    2.7896    1.4198 C   0  0  0  0  0  0  0  0  0  0  0  0
  1  8  1  0  0  0  0
  1  9  1  6  0  0  0
  1  2  1  0  0  0  0
  2  3  1  0  0  0  0
  3  5  1  0  0  0  0
  3  4  1  6  0  0  0
  5  7  1  0  0  0  0
  5  6  1  1  0  0  0
  7  8  1  0  0  0  0
  9 10  1  0  0  0  0
 11 12  1  0  0  0  0
 11 18  1  0  0  0  0
 11 19  1  1  0  0  0
 12 13  1  0  0  0  0
 13 15  1  0  0  0  0
 13 14  1  1  0  0  0
 15 16  1  0  0  0  0
 15 26  1  6  0  0  0
 16 18  1  0  0  0  0
 16 17  1  1  0  0  0
 18  4  1  6  0  0  0
 20 21  1  0  0  0  0
 20 27  1  0  0  0  0
 21 31  1  1  0  0  0
 21 23  1  0  0  0  0
 21 22  1  0  0  0  0
 23 24  1  0  0  0  0
 23 29  1  1  0  0  0
 24 25  1  0  0  0  0
 24 28  1  6  0  0  0
 25 27  1  0  0  0  0
 25 26  1  6  0  0  0
 29 30  1  0  0  0  0
M  CHG  5   6   1  10   1  14   1  19   1  29   1
M  END
>  <CHROM.1>
-74.76896341,110.75799251,-82.45134178,-176.56195560,-125.76756533,-46.28392266
40.03170711,98.98497671,64.78783691,-177.08090436,-172.32870478,-58.58015536
103.62993015,7.55119302,4.71006403,-2.33354237,1.52544504,1.02889559,-0.46968472

>  <Name>
1byj cryst

>  <RI>
0

>  <Rbt.Current_Directory>
/home/itssahil/PROJECTS/Mol_Feturizer/New_Systems/rnas/1byj

>  <Rbt.Executable>
rbdock ($Id: //depot/dev/client3/rdock/2013.1/src/exe/rbdock.cxx#4 $)

>  <Rbt.Library>
libRbt.so (2013.1, Build901 2013/11/27)

>  <Rbt.Parameter_File>
/export/apps/rDock/src/rDock_2013.1_src/data/scripts/dock_solv.prm

>  <Rbt.Receptor>
prm/blind_docking_60.prm

>  <SCORE>
-21.4646

>  <SCORE.INTER>
-31.9146

>  <SCORE.INTER.CONST>
1

>  <SCORE.INTER.POLAR>
-5.07796

>  <SCORE.INTER.ROT>
6

>  <SCORE.INTER.SOLV>
31.323

>  <SCORE.INTER.VDW>
-22.3909

>  <SCORE.INTER.norm>
-1.0295

>  <SCORE.INTRA>
6.17256

>  <SCORE.INTRA.DIHEDRAL>
7.98354

>  <SCORE.INTRA.DIHEDRAL.0>
18.4149

>  <SCORE.INTRA.POLAR>
-1.64973

>  <SCORE.INTRA.POLAR.0>
0

>  <SCORE.INTRA.REPUL>
-0.092687

>  <SCORE.INTRA.REPUL.0>
0.092687

>  <SCORE.INTRA.SOLV>
3.76516

>  <SCORE.INTRA.SOLV.lig_0>
-120.37

>  <SCORE.INTRA.VDW>
6.37073

>  <SCORE.INTRA.VDW.0>
-1.75542

>  <SCORE.INTRA.norm>
0.199115

>  <SCORE.RESTR>
4.27746

>  <SCORE.RESTR.CAVITY>
4.27746

>  <SCORE.RESTR.norm>
0.137982

>  <SCORE.SYSTEM>
0

>  <SCORE.SYSTEM.CONST>
0

>  <SCORE.SYSTEM.DIHEDRAL>
0

>  <SCORE.SYSTEM.SOLV>
0

>  <SCORE.SYSTEM.norm>
0

>  <SCORE.heavy>
31

>  <SCORE.norm>
-0.692406

>  <RMSD>
7.739

$$$$
1byj cryst
 OpenBabel11021811383D
libRbt.so/2013.1/901 2013/11/27
 31 33  0  0  0  0  0  0  0  0999 V2000
    2.6540   10.5539   -1.7716 C   0  0  1  0  0  0  0  0  0  0  0  0
    3.2012    9.4093   -1.0419 O   0  0  0  0  0  0  0  0  0  0  0  0
    2.9789    8.0691   -1.5738 C   0  0  2  0  0  0  0  0  0  0  0  0
    3.7116    7.8643   -2.8220 O   0  0  0  0  0  0  0  0  0  0  0  0
    1.4501    7.8433   -1.7791 C   0  0  2  0  0  0  0  0  0  0  0  0
    1.1259    6.5076   -2.3175 N   0  3  0  0  0  0  0  0  0  0  0  0
    0.8668    8.9508   -2.6941 C   0  0  0  0  0  0  0  0  0  0  0  0
    1.1546   10.3471   -2.1224 C   0  0  0  0  0  0  0  0  0  0  0  0
    2.8045   11.8244   -0.9165 C   0  0  0  0  0  0  0  0  0  0  0  0
    4.1848   12.0959   -0.4943 N   0  3  0  0  0  0  0  0  0  0  0  0
    5.6563    8.3022   -4.2701 C   0  0  1  0  0  0  0  0  0  0  0  0
    7.2016    8.3411   -4.3541 C   0  0  0  0  0  0  0  0  0  0  0  0
    7.8040    6.9776   -3.9207 C   0  0  1  0  0  0  0  0  0  0  0  0
    9.2706    7.0031   -4.0797 N   0  3  0  0  0  0  0  0  0  0  0  0
    7.3838    6.6427   -2.4602 C   0  0  1  0  0  0  0  0  0  0  0  0
    5.8454    6.6894   -2.2834 C   0  0  1  0  0  0  0  0  0  0  0  0
    5.5920    6.5400   -0.8944 O   0  0  0  0  0  0  0  0  0  0  0  0
    5.1679    7.9948   -2.8165 C   0  0  2  0  0  0  0  0  0  0  0  0
    5.0902    9.5633   -4.7805 N   0  3  0  0  0  0  0  0  0  0  0  0
    9.2034    2.6134   -2.5175 C   0  0  0  0  0  0  0  0  0  0  0  0
    8.2711    1.5633   -1.8651 C   0  0  2  0  0  0  0  0  0  0  0  0
    7.8629    0.6687   -2.8991 O   0  0  0  0  0  0  0  0  0  0  0  0
    7.0276    2.2903   -1.2275 C   0  0  1  0  0  0  0  0  0  0  0  0
    6.3521    3.3120   -2.2041 C   0  0  2  0  0  0  0  0  0  0  0  0
    7.3661    4.2159   -2.9503 C   0  0  1  0  0  0  0  0  0  0  0  0
    7.8171    5.3006   -2.0973 O   0  0  0  0  0  0  0  0  0  0  0  0
    8.4784    3.4348   -3.4712 O   0  0  0  0  0  0  0  0  0  0  0  0
    5.4117    4.1394   -1.5243 O   0  0  0  0  0  0  0  0  0  0  0  0
    6.0348    1.2750   -0.7563 N   0  3  0  0  0  0  0  0  0  0  0  0
    6.0529    0.9362    0.6813 C   0  0  0  0  0  0  0  0  0  0  0  0
    9.0921    0.7402   -0.8420 C   0  0  0  0  0  0  0  0  0  0  0  0
  1  8  1  0  0  0  0
  1  9  1  1  0  0  0
  1  2  1  0  0  0  0
  2  3  1  0  0  0  0
  3  5  1  0  0  0  0
  3  4  1  6  0  0  0
  5  7  1  0  0  0  0
  5  6  1  6  0  0  0
  7  8  1  0  0  0  0
  9 10  1  0  0  0  0
 11 12  1  0  0  0  0
 11 18  1  0  0  0  0
 11 19  1  1  0  0  0
 12 13  1  0  0  0  0
 13 15  1  0  0  0  0
 13 14  1  1  0  0  0
 15 16  1  0  0  0  0
 15 26  1  6  0  0  0
 16 18  1  0  0  0  0
 16 17  1  1  0  0  0
 18  4  1  6  0  0  0
 20 21  1  0  0  0  0
 20 27  1  0  0  0  0
 21 31  1  1  0  0  0
 21 23  1  0  0  0  0
 21 22  1  0  0  0  0
 23 24  1  0  0  0  0
 23 29  1  6  0  0  0
 24 25  1  0  0  0  0
 24 28  1  1  0  0  0
 25 27  1  0  0  0  0
 25 26  1  1  0  0  0
 29 30  1  0  0  0  0
M  CHG  5   6   1  10   1  14   1  19   1  29   1
M  END
>  <CHROM.1>
55.84867802,59.73791322,-157.62418571,178.58589982,67.11372321,-94.73961033
45.06580790,-56.20880416,-171.42951602,-59.27399139,-140.35969303,-60.92392484
-111.26045529,5.55289171,6.18396740,-2.22218753,2.19595237,0.40912722,-0.30482663

>  <Name>
1byj cryst

>  <RI>
0

>  <Rbt.Current_Directory>
/home/itssahil/PROJECTS/Mol_Feturizer/New_Systems/rnas/1byj

>  <Rbt.Executable>
rbdock ($Id: //depot/dev/client3/rdock/2013.1/src/exe/rbdock.cxx#4 $)

>  <Rbt.Library>
libRbt.so (2013.1, Build901 2013/11/27)

>  <Rbt.Parameter_File>
/export/apps/rDock/src/rDock_2013.1_src/data/scripts/dock_solv.prm

>  <Rbt.Receptor>
prm/pocket_docking_5.prm

>  <SCORE>
-29.7928

>  <SCORE.INTER>
-26.7401

>  <SCORE.INTER.CONST>
1

>  <SCORE.INTER.POLAR>
-3.62993

>  <SCORE.INTER.ROT>
6

>  <SCORE.INTER.SOLV>
20.4936

>  <SCORE.INTER.VDW>
-20.1582

>  <SCORE.INTER.norm>
-0.862584

>  <SCORE.INTRA>
-3.05266

>  <SCORE.INTRA.DIHEDRAL>
-3.21391

>  <SCORE.INTRA.DIHEDRAL.0>
18.4149

>  <SCORE.INTRA.POLAR>
-0.0169372

>  <SCORE.INTRA.POLAR.0>
0

>  <SCORE.INTRA.REPUL>
-0.092687

>  <SCORE.INTRA.REPUL.0>
0.092687

>  <SCORE.INTRA.SOLV>
-2.20487

>  <SCORE.INTRA.SOLV.lig_0>
-120.37

>  <SCORE.INTRA.VDW>
0.177753

>  <SCORE.INTRA.VDW.0>
-1.75542

>  <SCORE.INTRA.norm>
-0.0984729

>  <SCORE.RESTR>
0

>  <SCORE.RESTR.CAVITY>
0

>  <SCORE.RESTR.norm>
0

>  <SCORE.SYSTEM>
0

>  <SCORE.SYSTEM.CONST>
0

>  <SCORE.SYSTEM.DIHEDRAL>
0

>  <SCORE.SYSTEM.SOLV>
0

>  <SCORE.SYSTEM.norm>
0

>  <SCORE.heavy>
31

>  <SCORE.norm>
-0.961057

>  <RMSD>
7.799

$$$$
1byj cryst
 OpenBabel11021811383D
libRbt.so/2013.1/901 2013/11/27
 31 33  0  0  0  0  0  0  0  0999 V2000
    6.9059    9.2957   -5.1693 C   0  0  1  0  0  0  0  0  0  0  0  0
    7.9193    8.9469   -4.1726 O   0  0  0  0  0  0  0  0  0  0  0  0
    7.4979    8.2575   -2.9579 C   0  0  2  0  0  0  0  0  0  0  0  0
    7.0439    6.8987   -3.2482 O   0  0  0  0  0  0  0  0  0  0  0  0
    6.3767    9.0846   -2.2586 C   0  0  2  0  0  0  0  0  0  0  0  0
    5.8842    8.4623   -1.0139 N   0  3  0  0  0  0  0  0  0  0  0  0
    5.2030    9.3279   -3.2421 C   0  0  0  0  0  0  0  0  0  0  0  0
    5.6915   10.0188   -4.5241 C   0  0  0  0  0  0  0  0  0  0  0  0
    7.5325   10.2102   -6.2367 C   0  0  0  0  0  0  0  0  0  0  0  0
    7.8983   11.5420   -5.7369 N   0  3  0  0  0  0  0  0  0  0  0  0
    8.9369    5.7649   -4.3442 C   0  0  1  0  0  0  0  0  0  0  0  0
    9.8896    4.5453   -4.3054 C   0  0  0  0  0  0  0  0  0  0  0  0
    9.0782    3.2220   -4.2895 C   0  0  1  0  0  0  0  0  0  0  0  0
    9.9974    2.0686   -4.3313 N   0  3  0  0  0  0  0  0  0  0  0  0
    8.1456    3.1767   -3.0446 C   0  0  1  0  0  0  0  0  0  0  0  0
    7.2341    4.4270   -2.9679 C   0  0  1  0  0  0  0  0  0  0  0  0
    6.5601    4.3618   -1.7198 O   0  0  0  0  0  0  0  0  0  0  0  0
    7.9875    5.7915   -3.1016 C   0  0  2  0  0  0  0  0  0  0  0  0
    9.7148    7.0107   -4.4631 N   0  3  0  0  0  0  0  0  0  0  0  0
    9.3028    2.0617   -0.8202 C   0  0  0  0  0  0  0  0  0  0  0  0
    8.4625    2.0128    0.4795 C   0  0  2  0  0  0  0  0  0  0  0  0
    8.8340    0.8214    1.1714 O   0  0  0  0  0  0  0  0  0  0  0  0
    6.9305    1.9953    0.1131 C   0  0  1  0  0  0  0  0  0  0  0  0
    6.5787    0.9356   -0.9855 C   0  0  2  0  0  0  0  0  0  0  0  0
    7.5686    0.9304   -2.1780 C   0  0  1  0  0  0  0  0  0  0  0  0
    7.2731    2.0121   -3.1001 O   0  0  0  0  0  0  0  0  0  0  0  0
    8.9474    0.9727   -1.7133 O   0  0  0  0  0  0  0  0  0  0  0  0
    5.2572    1.1221   -1.4856 O   0  0  0  0  0  0  0  0  0  0  0  0
    6.1177    1.7653    1.3480 N   0  3  0  0  0  0  0  0  0  0  0  0
    4.7965    1.1287    1.1723 C   0  0  0  0  0  0  0  0  0  0  0  0
    8.8659    3.2099    1.3751 C   0  0  0  0  0  0  0  0  0  0  0  0
  1  8  1  0  0  0  0
  1  9  1  6  0  0  0
  1  2  1  0  0  0  0
  2  3  1  0  0  0  0
  3  5  1  0  0  0  0
  3  4  1  6  0  0  0
  5  7  1  0  0  0  0
  5  6  1  1  0  0  0
  7  8  1  0  0  0  0
  9 10  1  0  0  0  0
 11 12  1  0  0  0  0
 11 18  1  0  0  0  0
 11 19  1  1  0  0  0
 12 13  1  0  0  0  0
 13 15  1  0  0  0  0
 13 14  1  1  0  0  0
 15 16  1  0  0  0  0
 15 26  1  6  0  0  0
 16 18  1  0  0  0  0
 16 17  1  1  0  0  0
 18  4  1  6  0  0  0
 20 21  1  0  0  0  0
 20 27  1  0  0  0  0
 21 31  1  1  0  0  0
 21 23  1  0  0  0  0
 21 22  1  0  0  0  0
 23 24  1  0  0  0  0
 23 29  1  1  0  0  0
 24 25  1  0  0  0  0
 24 28  1  6  0  0  0
 25 27  1  0  0  0  0
 25 26  1  6  0  0  0
 29 30  1  0  0  0  0
M  CHG  5   6   1  10   1  14   1  19   1  29   1
M  END
>  <CHROM.1>
-68.06485807,95.56304219,-77.99856123,-65.73660933,116.29679792,63.00361731
-151.68517600,107.36844152,63.62493156,-64.74752890,-32.18264315,-60.10819562
103.19435280,7.56348785,4.87759028,-2.42118834,1.61387086,0.81369670,-0.49642505

>  <Name>
1byj cryst

>  <RI>
0

>  <Rbt.Current_Directory>
/home/itssahil/PROJECTS/Mol_Feturizer/New_Systems/rnas/1byj

>  <Rbt.Executable>
rbdock ($Id: //depot/dev/client3/rdock/2013.1/src/exe/rbdock.cxx#4 $)

>  <Rbt.Library>
libRbt.so (2013.1, Build901 2013/11/27)

>  <Rbt.Parameter_File>
/export/apps/rDock/src/rDock_2013.1_src/data/scripts/dock_solv.prm

>  <Rbt.Receptor>
prm/blind_docking_60.prm

>  <SCORE>
-16.8425

>  <SCORE.INTER>
-36.14

>  <SCORE.INTER.CONST>
1

>  <SCORE.INTER.POLAR>
-5.37362

>  <SCORE.INTER.ROT>
6

>  <SCORE.INTER.SOLV>
28.1285

>  <SCORE.INTER.VDW>
-23.1574

>  <SCORE.INTER.norm>
-1.1658

>  <SCORE.INTRA>
14.1502

>  <SCORE.INTRA.DIHEDRAL>
7.45193

>  <SCORE.INTRA.DIHEDRAL.0>
18.4149

>  <SCORE.INTRA.POLAR>
-1.46624

>  <SCORE.INTRA.POLAR.0>
0

>  <SCORE.INTRA.REPUL>
-0.092687

>  <SCORE.INTRA.REPUL.0>
0.092687

>  <SCORE.INTRA.SOLV>
3.13197

>  <SCORE.INTRA.SOLV.lig_0>
-120.37

>  <SCORE.INTRA.VDW>
14.3069

>  <SCORE.INTRA.VDW.0>
-1.75542

>  <SCORE.INTRA.norm>
0.456458

>  <SCORE.RESTR>
5.14728

>  <SCORE.RESTR.CAVITY>
5.14728

>  <SCORE.RESTR.norm>
0.166041

>  <SCORE.SYSTEM>
0

>  <SCORE.SYSTEM.CONST>
0

>  <SCORE.SYSTEM.DIHEDRAL>
0

>  <SCORE.SYSTEM.SOLV>
0

>  <SCORE.SYSTEM.norm>
0

>  <SCORE.heavy>
31

>  <SCORE.norm>
-0.543305

>  <RMSD>
7.804

$$$$
1byj cryst
 OpenBabel11021811383D
libRbt.so/2013.1/901 2013/11/27
 31 33  0  0  0  0  0  0  0  0999 V2000
    2.4915    8.5755    3.1560 C   0  0  1  0  0  0  0  0  0  0  0  0
    2.3537    7.6527    2.0284 O   0  0  0  0  0  0  0  0  0  0  0  0
    1.1246    6.8761    1.9059 C   0  0  2  0  0  0  0  0  0  0  0  0
   -0.0162    7.7330    1.5883 O   0  0  0  0  0  0  0  0  0  0  0  0
    0.8803    6.0863    3.2276 C   0  0  2  0  0  0  0  0  0  0  0  0
   -0.3473    5.2671    3.1980 N   0  3  0  0  0  0  0  0  0  0  0  0
    0.8500    7.0618    4.4324 C   0  0  0  0  0  0  0  0  0  0  0  0
    2.1423    7.8890    4.5053 C   0  0  0  0  0  0  0  0  0  0  0  0
    3.9369    9.1005    3.2129 C   0  0  0  0  0  0  0  0  0  0  0  0
    4.9508    8.0407    3.2914 N   0  3  0  0  0  0  0  0  0  0  0  0
    0.0457    7.4699   -0.8606 C   0  0  1  0  0  0  0  0  0  0  0  0
    0.1674    8.2008   -2.2198 C   0  0  0  0  0  0  0  0  0  0  0  0
    1.4560    9.0656   -2.2585 C   0  0  1  0  0  0  0  0  0  0  0  0
    1.5995    9.6941   -3.5856 N   0  3  0  0  0  0  0  0  0  0  0  0
    1.4310   10.1213   -1.1155 C   0  0  1  0  0  0  0  0  0  0  0  0
    1.2069    9.4604    0.2677 C   0  0  1  0  0  0  0  0  0  0  0  0
    1.0319   10.5179    1.1990 O   0  0  0  0  0  0  0  0  0  0  0  0
   -0.0109    8.4804    0.3317 C   0  0  2  0  0  0  0  0  0  0  0  0
   -1.1235    6.5731   -0.8716 N   0  3  0  0  0  0  0  0  0  0  0  0
    3.1741   12.7832    1.2524 C   0  0  0  0  0  0  0  0  0  0  0  0
    4.4919   13.5177    0.9039 C   0  0  2  0  0  0  0  0  0  0  0  0
    4.1768   14.9042    0.7831 O   0  0  0  0  0  0  0  0  0  0  0  0
    5.0655   12.9518   -0.4497 C   0  0  1  0  0  0  0  0  0  0  0  0
    3.9878   12.8761   -1.5840 C   0  0  2  0  0  0  0  0  0  0  0  0
    2.6352   12.2845   -1.1123 C   0  0  1  0  0  0  0  0  0  0  0  0
    2.6983   10.8355   -1.0497 O   0  0  0  0  0  0  0  0  0  0  0  0
    2.2240   12.8666    0.1569 O   0  0  0  0  0  0  0  0  0  0  0  0
    4.4562   12.1215   -2.6986 O   0  0  0  0  0  0  0  0  0  0  0  0
    6.2353   13.7755   -0.8871 N   0  3  0  0  0  0  0  0  0  0  0  0
    7.0870   13.2163   -1.9566 C   0  0  0  0  0  0  0  0  0  0  0  0
    5.4707   13.3703    2.0947 C   0  0  0  0  0  0  0  0  0  0  0  0
  1  8  1  0  0  0  0
  1  9  1  1  0  0  0
  1  2  1  0  0  0  0
  2  3  1  0  0  0  0
  3  5  1  0  0  0  0
  3  4  1  1  0  0  0
  5  7  1  0  0  0  0
  5  6  1  6  0  0  0
  7  8  1  0  0  0  0
  9 10  1  0  0  0  0
 11 12  1  0  0  0  0
 11 18  1  0  0  0  0
 11 19  1  6  0  0  0
 12 13  1  0  0  0  0
 13 15  1  0  0  0  0
 13 14  1  6  0  0  0
 15 16  1  0  0  0  0
 15 26  1  1  0  0  0
 16 18  1  0  0  0  0
 16 17  1  1  0  0  0
 18  4  1  1  0  0  0
 20 21  1  0  0  0  0
 20 27  1  0  0  0  0
 21 31  1  1  0  0  0
 21 23  1  0  0  0  0
 21 22  1  0  0  0  0
 23 24  1  0  0  0  0
 23 29  1  6  0  0  0
 24 25  1  0  0  0  0
 24 28  1  6  0  0  0
 25 27  1  0  0  0  0
 25 26  1  1  0  0  0
 29 30  1  0  0  0  0
M  CHG  5   6   1  10   1  14   1  19   1  29   1
M  END
>  <CHROM.1>
-55.95660218,62.31581558,61.21338278,68.85220381,-175.70561597,-42.04430892
172.94574295,125.70435668,66.63954534,-176.58031954,-72.64071584,-178.37443800
-157.81706719,2.45691528,9.98661883,0.52718475,-2.43996230,-0.81717389,-1.11155149

>  <Name>
1byj cryst

>  <RI>
0

>  <Rbt.Current_Directory>
/home/itssahil/PROJECTS/Mol_Feturizer/New_Systems/rnas/1byj

>  <Rbt.Executable>
rbdock ($Id: //depot/dev/client3/rdock/2013.1/src/exe/rbdock.cxx#4 $)

>  <Rbt.Library>
libRbt.so (2013.1, Build901 2013/11/27)

>  <Rbt.Parameter_File>
/export/apps/rDock/src/rDock_2013.1_src/data/scripts/dock_solv.prm

>  <Rbt.Receptor>
prm/pocket_docking_8.prm

>  <SCORE>
-28.4014

>  <SCORE.INTER>
-22.8488

>  <SCORE.INTER.CONST>
1

>  <SCORE.INTER.POLAR>
-4.0462

>  <SCORE.INTER.ROT>
6

>  <SCORE.INTER.SOLV>
13.6409

>  <SCORE.INTER.VDW>
-13.8922

>  <SCORE.INTER.norm>
-0.73706

>  <SCORE.INTRA>
-5.55258

>  <SCORE.INTRA.DIHEDRAL>
-6.91064

>  <SCORE.INTRA.DIHEDRAL.0>
18.4149

>  <SCORE.INTRA.POLAR>
-0.00424003

>  <SCORE.INTRA.POLAR.0>
0

>  <SCORE.INTRA.REPUL>
-0.092687

>  <SCORE.INTRA.REPUL.0>
0.092687

>  <SCORE.INTRA.SOLV>
0.0204862

>  <SCORE.INTRA.SOLV.lig_0>
-120.37

>  <SCORE.INTRA.VDW>
-1.62965

>  <SCORE.INTRA.VDW.0>
-1.75542

>  <SCORE.INTRA.norm>
-0.179116

>  <SCORE.RESTR>
0

>  <SCORE.RESTR.CAVITY>
0

>  <SCORE.RESTR.norm>
0

>  <SCORE.SYSTEM>
0

>  <SCORE.SYSTEM.CONST>
0

>  <SCORE.SYSTEM.DIHEDRAL>
0

>  <SCORE.SYSTEM.SOLV>
0

>  <SCORE.SYSTEM.norm>
0

>  <SCORE.heavy>
31

>  <SCORE.norm>
-0.916175

>  <RMSD>
7.886

$$$$
1byj cryst
 OpenBabel11021811383D
libRbt.so/2013.1/901 2013/11/27
 31 33  0  0  0  0  0  0  0  0999 V2000
    3.2603   10.5334   -1.7772 C   0  0  1  0  0  0  0  0  0  0  0  0
    3.3392    9.2424   -1.0923 O   0  0  0  0  0  0  0  0  0  0  0  0
    2.1888    8.7898   -0.3176 C   0  0  2  0  0  0  0  0  0  0  0  0
    1.0550    8.4740   -1.1846 O   0  0  0  0  0  0  0  0  0  0  0  0
    1.8076    9.8837    0.7257 C   0  0  2  0  0  0  0  0  0  0  0  0
    0.6479    9.5132    1.5605 N   0  3  0  0  0  0  0  0  0  0  0  0
    1.5485   11.2344    0.0098 C   0  0  0  0  0  0  0  0  0  0  0  0
    2.7654   11.6580   -0.8264 C   0  0  0  0  0  0  0  0  0  0  0  0
    4.6490   10.9068   -2.3252 C   0  0  0  0  0  0  0  0  0  0  0  0
    5.0918   10.0647   -3.4441 N   0  3  0  0  0  0  0  0  0  0  0  0
   -0.1377    6.3214   -1.0655 C   0  0  1  0  0  0  0  0  0  0  0  0
   -0.1957    4.8643   -1.5852 C   0  0  0  0  0  0  0  0  0  0  0  0
    1.1624    4.1494   -1.3516 C   0  0  1  0  0  0  0  0  0  0  0  0
    1.0685    2.7406   -1.7797 N   0  3  0  0  0  0  0  0  0  0  0  0
    2.3038    4.9063   -2.0905 C   0  0  1  0  0  0  0  0  0  0  0  0
    2.3496    6.4023   -1.6905 C   0  0  1  0  0  0  0  0  0  0  0  0
    3.3026    7.0209   -2.5421 O   0  0  0  0  0  0  0  0  0  0  0  0
    0.9766    7.1455   -1.7902 C   0  0  2  0  0  0  0  0  0  0  0  0
   -1.4600    6.9582   -1.1972 N   0  3  0  0  0  0  0  0  0  0  0  0
    5.5171    5.4430   -3.8556 C   0  0  0  0  0  0  0  0  0  0  0  0
    6.9034    4.8518   -3.5001 C   0  0  2  0  0  0  0  0  0  0  0  0
    7.3205    4.0670   -4.6165 O   0  0  0  0  0  0  0  0  0  0  0  0
    6.7785    3.9644   -2.2046 C   0  0  1  0  0  0  0  0  0  0  0  0
    5.5848    2.9523   -2.2720 C   0  0  2  0  0  0  0  0  0  0  0  0
    4.2709    3.5813   -2.8010 C   0  0  1  0  0  0  0  0  0  0  0  0
    3.5996    4.3325   -1.7557 O   0  0  0  0  0  0  0  0  0  0  0  0
    4.5192    4.3952   -3.9821 O   0  0  0  0  0  0  0  0  0  0  0  0
    5.3316    2.3594   -1.0009 O   0  0  0  0  0  0  0  0  0  0  0  0
    8.0670    3.2453   -1.9579 N   0  3  0  0  0  0  0  0  0  0  0  0
    8.2082    2.5469   -0.6640 C   0  0  0  0  0  0  0  0  0  0  0  0
    7.9145    6.0153   -3.3521 C   0  0  0  0  0  0  0  0  0  0  0  0
  1  8  1  0  0  0  0
  1  9  1  1  0  0  0
  1  2  1  0  0  0  0
  2  3  1  0  0  0  0
  3  5  1  0  0  0  0
  3  4  1  6  0  0  0
  5  7  1  0  0  0  0
  5  6  1  6  0  0  0
  7  8  1  0  0  0  0
  9 10  1  0  0  0  0
 11 12  1  0  0  0  0
 11 18  1  0  0  0  0
 11 19  1  6  0  0  0
 12 13  1  0  0  0  0
 13 15  1  0  0  0  0
 13 14  1  6  0  0  0
 15 16  1  0  0  0  0
 15 26  1  1  0  0  0
 16 18  1  0  0  0  0
 16 17  1  6  0  0  0
 18  4  1  1  0  0  0
 20 21  1  0  0  0  0
 20 27  1  0  0  0  0
 21 31  1  1  0  0  0
 21 23  1  0  0  0  0
 21 22  1  0  0  0  0
 23 24  1  0  0  0  0
 23 29  1  6  0  0  0
 24 25  1  0  0  0  0
 24 28  1  1  0  0  0
 25 27  1  0  0  0  0
 25 26  1  1  0  0  0
 29 30  1  0  0  0  0
M  CHG  5   6   1  10   1  14   1  19   1  29   1
M  END
>  <CHROM.1>
69.67132366,84.96101562,106.44995778,-67.77841366,-57.13648141,-4.98865779
-176.54123627,108.92528518,-172.48169960,49.77932450,-68.96910772,-173.79558145
-176.09624873,3.55047349,6.38143440,-1.80938291,-2.29396721,-0.28818246,-3.05932339

>  <Name>
1byj cryst

>  <RI>
0

>  <Rbt.Current_Directory>
/home/itssahil/PROJECTS/Mol_Feturizer/New_Systems/rnas/1byj

>  <Rbt.Executable>
rbdock ($Id: //depot/dev/client3/rdock/2013.1/src/exe/rbdock.cxx#4 $)

>  <Rbt.Library>
libRbt.so (2013.1, Build901 2013/11/27)

>  <Rbt.Parameter_File>
/export/apps/rDock/src/rDock_2013.1_src/data/scripts/dock_solv.prm

>  <Rbt.Receptor>
prm/pocket_docking_7.prm

>  <SCORE>
-28.347

>  <SCORE.INTER>
-26.0885

>  <SCORE.INTER.CONST>
1

>  <SCORE.INTER.POLAR>
-4.95761

>  <SCORE.INTER.ROT>
6

>  <SCORE.INTER.SOLV>
16.6281

>  <SCORE.INTER.VDW>
-14.0096

>  <SCORE.INTER.norm>
-0.841563

>  <SCORE.INTRA>
-2.25849

>  <SCORE.INTRA.DIHEDRAL>
2.75628

>  <SCORE.INTRA.DIHEDRAL.0>
18.4149

>  <SCORE.INTRA.POLAR>
-1

>  <SCORE.INTRA.POLAR.0>
0

>  <SCORE.INTRA.REPUL>
-0.092687

>  <SCORE.INTRA.REPUL.0>
0.092687

>  <SCORE.INTRA.SOLV>
-1.74147

>  <SCORE.INTRA.SOLV.lig_0>
-120.37

>  <SCORE.INTRA.VDW>
1.09754

>  <SCORE.INTRA.VDW.0>
-1.75542

>  <SCORE.INTRA.norm>
-0.0728547

>  <SCORE.RESTR>
0

>  <SCORE.RESTR.CAVITY>
0

>  <SCORE.RESTR.norm>
0

>  <SCORE.SYSTEM>
0

>  <SCORE.SYSTEM.CONST>
0

>  <SCORE.SYSTEM.DIHEDRAL>
0

>  <SCORE.SYSTEM.SOLV>
0

>  <SCORE.SYSTEM.norm>
0

>  <SCORE.heavy>
31

>  <SCORE.norm>
-0.914418

>  <RMSD>
7.934

$$$$
1byj cryst
 OpenBabel11021811383D
libRbt.so/2013.1/901 2013/11/27
 31 33  0  0  0  0  0  0  0  0999 V2000
    3.2230   10.6674    3.7966 C   0  0  1  0  0  0  0  0  0  0  0  0
    3.9349    9.7670    2.8886 O   0  0  0  0  0  0  0  0  0  0  0  0
    3.5628    8.3564    2.8677 C   0  0  2  0  0  0  0  0  0  0  0  0
    2.2251    8.1678    2.3094 O   0  0  0  0  0  0  0  0  0  0  0  0
    3.6525    7.7785    4.3128 C   0  0  2  0  0  0  0  0  0  0  0  0
    3.2919    6.3492    4.3918 N   0  3  0  0  0  0  0  0  0  0  0  0
    2.7683    8.6127    5.2753 C   0  0  0  0  0  0  0  0  0  0  0  0
    3.1631   10.0968    5.2404 C   0  0  0  0  0  0  0  0  0  0  0  0
    3.9305   12.0338    3.8199 C   0  0  0  0  0  0  0  0  0  0  0  0
    4.0142   12.6816    2.5044 N   0  3  0  0  0  0  0  0  0  0  0  0
    0.4267    8.4398    0.6474 C   0  0  1  0  0  0  0  0  0  0  0  0
    0.0309    9.0608   -0.7143 C   0  0  0  0  0  0  0  0  0  0  0  0
    1.0183    8.6109   -1.8244 C   0  0  1  0  0  0  0  0  0  0  0  0
    0.5849    9.1462   -3.1292 N   0  3  0  0  0  0  0  0  0  0  0  0
    2.4674    9.0521   -1.4679 C   0  0  1  0  0  0  0  0  0  0  0  0
    2.8893    8.5477   -0.0651 C   0  0  1  0  0  0  0  0  0  0  0  0
    4.1447    9.1464    0.2206 O   0  0  0  0  0  0  0  0  0  0  0  0
    1.8685    8.8679    1.0763 C   0  0  2  0  0  0  0  0  0  0  0  0
   -0.5733    8.7884    1.6720 N   0  3  0  0  0  0  0  0  0  0  0  0
    5.5970   10.5203   -1.7039 C   0  0  0  0  0  0  0  0  0  0  0  0
    6.8708   10.0276   -2.4336 C   0  0  2  0  0  0  0  0  0  0  0  0
    7.2585   11.0605   -3.3386 O   0  0  0  0  0  0  0  0  0  0  0  0
    6.5490    8.6939   -3.2075 C   0  0  1  0  0  0  0  0  0  0  0  0
    5.2441    8.7887   -4.0689 C   0  0  2  0  0  0  0  0  0  0  0  0
    4.0583    9.4511   -3.3226 C   0  0  1  0  0  0  0  0  0  0  0  0
    3.4195    8.5058   -2.4248 O   0  0  0  0  0  0  0  0  0  0  0  0
    4.4853   10.6573   -2.6286 O   0  0  0  0  0  0  0  0  0  0  0  0
    4.8343    7.5066   -4.5373 O   0  0  0  0  0  0  0  0  0  0  0  0
    7.7171    8.3090   -4.0594 N   0  3  0  0  0  0  0  0  0  0  0  0
    8.0509    6.8718   -4.1303 C   0  0  0  0  0  0  0  0  0  0  0  0
    8.0088    9.8752   -1.3945 C   0  0  0  0  0  0  0  0  0  0  0  0
  1  8  1  0  0  0  0
  1  9  1  1  0  0  0
  1  2  1  0  0  0  0
  2  3  1  0  0  0  0
  3  5  1  0  0  0  0
  3  4  1  1  0  0  0
  5  7  1  0  0  0  0
  5  6  1  6  0  0  0
  7  8  1  0  0  0  0
  9 10  1  0  0  0  0
 11 12  1  0  0  0  0
 11 18  1  0  0  0  0
 11 19  1  1  0  0  0
 12 13  1  0  0  0  0
 13 15  1  0  0  0  0
 13 14  1  6  0  0  0
 15 16  1  0  0  0  0
 15 26  1  6  0  0  0
 16 18  1  0  0  0  0
 16 17  1  1  0  0  0
 18  4  1  1  0  0  0
 20 21  1  0  0  0  0
 20 27  1  0  0  0  0
 21 31  1  1  0  0  0
 21 23  1  0  0  0  0
 21 22  1  0  0  0  0
 23 24  1  0  0  0  0
 23 29  1  6  0  0  0
 24 25  1  0  0  0  0
 24 28  1  1  0  0  0
 25 27  1  0  0  0  0
 25 26  1  1  0  0  0
 29 30  1  0  0  0  0
M  CHG  5   6   1  10   1  14   1  19   1  29   1
M  END
>  <CHROM.1>
58.85000019,46.18949761,176.84050736,58.81966666,-85.10976742,-48.56167726
-164.45327340,110.61997974,-78.29979051,-178.56137291,-98.35173486,-150.63067392
168.16637515,3.84152882,9.17762107,-0.14347830,-2.05201873,-0.21006915,-1.70825643

>  <Name>
1byj cryst

>  <RI>
0

>  <Rbt.Current_Directory>
/home/itssahil/PROJECTS/Mol_Feturizer/New_Systems/rnas/1byj

>  <Rbt.Executable>
rbdock ($Id: //depot/dev/client3/rdock/2013.1/src/exe/rbdock.cxx#4 $)

>  <Rbt.Library>
libRbt.so (2013.1, Build901 2013/11/27)

>  <Rbt.Parameter_File>
/export/apps/rDock/src/rDock_2013.1_src/data/scripts/dock_solv.prm

>  <Rbt.Receptor>
prm/pocket_docking_8.prm

>  <SCORE>
-39.528

>  <SCORE.INTER>
-37.1873

>  <SCORE.INTER.CONST>
1

>  <SCORE.INTER.POLAR>
-6.61693

>  <SCORE.INTER.ROT>
6

>  <SCORE.INTER.SOLV>
22.1158

>  <SCORE.INTER.VDW>
-17.707

>  <SCORE.INTER.norm>
-1.19959

>  <SCORE.INTRA>
-2.34068

>  <SCORE.INTRA.DIHEDRAL>
0.0887179

>  <SCORE.INTRA.DIHEDRAL.0>
18.4149

>  <SCORE.INTRA.POLAR>
-0.00527335

>  <SCORE.INTRA.POLAR.0>
0

>  <SCORE.INTRA.REPUL>
-0.0461306

>  <SCORE.INTRA.REPUL.0>
0.092687

>  <SCORE.INTRA.SOLV>
-3.28622

>  <SCORE.INTRA.SOLV.lig_0>
-120.37

>  <SCORE.INTRA.VDW>
-0.493352

>  <SCORE.INTRA.VDW.0>
-1.75542

>  <SCORE.INTRA.norm>
-0.075506

>  <SCORE.RESTR>
0

>  <SCORE.RESTR.CAVITY>
0

>  <SCORE.RESTR.norm>
0

>  <SCORE.SYSTEM>
0

>  <SCORE.SYSTEM.CONST>
0

>  <SCORE.SYSTEM.DIHEDRAL>
0

>  <SCORE.SYSTEM.SOLV>
0

>  <SCORE.SYSTEM.norm>
0

>  <SCORE.heavy>
31

>  <SCORE.norm>
-1.2751

>  <RMSD>
7.948

$$$$
1byj cryst
 OpenBabel11021811383D
libRbt.so/2013.1/901 2013/11/27
 31 33  0  0  0  0  0  0  0  0999 V2000
   -1.1955    0.4736   -0.7892 C   0  0  1  0  0  0  0  0  0  0  0  0
   -0.6775    1.8233   -1.0177 O   0  0  0  0  0  0  0  0  0  0  0  0
   -0.5115    2.7122    0.1272 C   0  0  2  0  0  0  0  0  0  0  0  0
    0.5566    2.2477    1.0105 O   0  0  0  0  0  0  0  0  0  0  0  0
   -1.8640    2.8220    0.8946 C   0  0  2  0  0  0  0  0  0  0  0  0
   -1.7936    3.7052    2.0754 N   0  3  0  0  0  0  0  0  0  0  0  0
   -2.3595    1.4110    1.3040 C   0  0  0  0  0  0  0  0  0  0  0  0
   -2.4840    0.4929    0.0788 C   0  0  0  0  0  0  0  0  0  0  0  0
   -1.5052   -0.1907   -2.1423 C   0  0  0  0  0  0  0  0  0  0  0  0
   -1.3561   -1.6518   -2.1342 N   0  3  0  0  0  0  0  0  0  0  0  0
    2.5988    0.9745    1.5385 C   0  0  1  0  0  0  0  0  0  0  0  0
    3.9514    0.4505    0.9976 C   0  0  0  0  0  0  0  0  0  0  0  0
    4.8009    1.6205    0.4326 C   0  0  1  0  0  0  0  0  0  0  0  0
    6.1168    1.1190   -0.0075 N   0  3  0  0  0  0  0  0  0  0  0  0
    4.0362    2.3341   -0.7197 C   0  0  1  0  0  0  0  0  0  0  0  0
    2.6263    2.7935   -0.2710 C   0  0  1  0  0  0  0  0  0  0  0  0
    1.9656    3.2697   -1.4341 O   0  0  0  0  0  0  0  0  0  0  0  0
    1.7679    1.6820    0.4182 C   0  0  2  0  0  0  0  0  0  0  0  0
    1.8444   -0.1254    2.1650 N   0  3  0  0  0  0  0  0  0  0  0  0
    4.2677    5.7081   -3.2285 C   0  0  0  0  0  0  0  0  0  0  0  0
    5.6521    6.3548   -3.4788 C   0  0  2  0  0  0  0  0  0  0  0  0
    5.9622    6.1555   -4.8573 O   0  0  0  0  0  0  0  0  0  0  0  0
    6.7270    5.6664   -2.5558 C   0  0  1  0  0  0  0  0  0  0  0  0
    6.6672    4.1021   -2.6126 C   0  0  2  0  0  0  0  0  0  0  0  0
    5.2271    3.5358   -2.5274 C   0  0  1  0  0  0  0  0  0  0  0  0
    4.7569    3.5226   -1.1539 O   0  0  0  0  0  0  0  0  0  0  0  0
    4.3246    4.2674   -3.4045 O   0  0  0  0  0  0  0  0  0  0  0  0
    7.4550    3.5125   -1.5817 O   0  0  0  0  0  0  0  0  0  0  0  0
    8.0934    6.1559   -2.9187 N   0  3  0  0  0  0  0  0  0  0  0  0
    8.6377    5.7209   -4.2211 C   0  0  0  0  0  0  0  0  0  0  0  0
    5.5338    7.8818   -3.2499 C   0  0  0  0  0  0  0  0  0  0  0  0
  1  8  1  0  0  0  0
  1  9  1  6  0  0  0
  1  2  1  0  0  0  0
  2  3  1  0  0  0  0
  3  5  1  0  0  0  0
  3  4  1  1  0  0  0
  5  7  1  0  0  0  0
  5  6  1  1  0  0  0
  7  8  1  0  0  0  0
  9 10  1  0  0  0  0
 11 12  1  0  0  0  0
 11 18  1  0  0  0  0
 11 19  1  6  0  0  0
 12 13  1  0  0  0  0
 13 15  1  0  0  0  0
 13 14  1  6  0  0  0
 15 16  1  0  0  0  0
 15 26  1  1  0  0  0
 16 18  1  0  0  0  0
 16 17  1  6  0  0  0
 18  4  1  1  0  0  0
 20 21  1  0  0  0  0
 20 27  1  0  0  0  0
 21 31  1  1  0  0  0
 21 23  1  0  0  0  0
 21 22  1  0  0  0  0
 23 24  1  0  0  0  0
 23 29  1  6  0  0  0
 24 25  1  0  0  0  0
 24 28  1  1  0  0  0
 25 27  1  0  0  0  0
 25 26  1  1  0  0  0
 29 30  1  0  0  0  0
M  CHG  5   6   1  10   1  14   1  19   1  29   1
M  END
>  <CHROM.1>
150.11894739,38.84048711,-167.32769793,-61.82206463,35.71892936,-74.38603809
52.06888745,117.59725329,62.82135042,-71.64068646,51.31205030,-53.02988115
-137.40152446,2.92128636,2.91105927,-1.08262751,2.51622674,0.00162027,2.48551795

>  <Name>
1byj cryst

>  <RI>
0

>  <Rbt.Current_Directory>
/home/itssahil/PROJECTS/Mol_Feturizer/New_Systems/rnas/1byj

>  <Rbt.Executable>
rbdock ($Id: //depot/dev/client3/rdock/2013.1/src/exe/rbdock.cxx#4 $)

>  <Rbt.Library>
libRbt.so (2013.1, Build901 2013/11/27)

>  <Rbt.Parameter_File>
/export/apps/rDock/src/rDock_2013.1_src/data/scripts/dock_solv.prm

>  <Rbt.Receptor>
prm/pocket_docking_8.prm

>  <SCORE>
-33.8727

>  <SCORE.INTER>
-28.8876

>  <SCORE.INTER.CONST>
1

>  <SCORE.INTER.POLAR>
-5.14928

>  <SCORE.INTER.ROT>
6

>  <SCORE.INTER.SOLV>
22.8851

>  <SCORE.INTER.VDW>
-17.3225

>  <SCORE.INTER.norm>
-0.931858

>  <SCORE.INTRA>
-4.98515

>  <SCORE.INTRA.DIHEDRAL>
3.18945

>  <SCORE.INTRA.DIHEDRAL.0>
18.4149

>  <SCORE.INTRA.POLAR>
-1.14285

>  <SCORE.INTRA.POLAR.0>
0

>  <SCORE.INTRA.REPUL>
-0.092687

>  <SCORE.INTRA.REPUL.0>
0.092687

>  <SCORE.INTRA.SOLV>
-3.71913

>  <SCORE.INTRA.SOLV.lig_0>
-120.37

>  <SCORE.INTRA.VDW>
-0.371182

>  <SCORE.INTRA.VDW.0>
-1.75542

>  <SCORE.INTRA.norm>
-0.160811

>  <SCORE.RESTR>
0

>  <SCORE.RESTR.CAVITY>
0

>  <SCORE.RESTR.norm>
0

>  <SCORE.SYSTEM>
0

>  <SCORE.SYSTEM.CONST>
0

>  <SCORE.SYSTEM.DIHEDRAL>
0

>  <SCORE.SYSTEM.SOLV>
0

>  <SCORE.SYSTEM.norm>
0

>  <SCORE.heavy>
31

>  <SCORE.norm>
-1.09267

>  <RMSD>
7.972

$$$$
1byj cryst
 OpenBabel11021811383D
libRbt.so/2013.1/901 2013/11/27
 31 33  0  0  0  0  0  0  0  0999 V2000
   -1.1471    3.7569   -0.3439 C   0  0  1  0  0  0  0  0  0  0  0  0
   -0.7707    2.4194   -0.8038 O   0  0  0  0  0  0  0  0  0  0  0  0
    0.2734    2.2954   -1.8153 C   0  0  2  0  0  0  0  0  0  0  0  0
    1.5779    2.6856   -1.2834 O   0  0  0  0  0  0  0  0  0  0  0  0
   -0.1060    3.1596   -3.0561 C   0  0  2  0  0  0  0  0  0  0  0  0
    0.8965    3.0970   -4.1378 N   0  3  0  0  0  0  0  0  0  0  0  0
   -0.3468    4.6299   -2.6269 C   0  0  0  0  0  0  0  0  0  0  0  0
   -1.4228    4.7165   -1.5342 C   0  0  0  0  0  0  0  0  0  0  0  0
   -2.4084    3.6597    0.5323 C   0  0  0  0  0  0  0  0  0  0  0  0
   -2.1400    3.2448    1.9154 N   0  3  0  0  0  0  0  0  0  0  0  0
    3.5492    1.2099   -1.2021 C   0  0  1  0  0  0  0  0  0  0  0  0
    4.8961    0.8419   -1.8709 C   0  0  0  0  0  0  0  0  0  0  0  0
    5.8096    2.0925   -1.9775 C   0  0  1  0  0  0  0  0  0  0  0  0
    7.1175    1.7122   -2.5445 N   0  3  0  0  0  0  0  0  0  0  0  0
    5.1114    3.1996   -2.8191 C   0  0  1  0  0  0  0  0  0  0  0  0
    3.7076    3.5421   -2.2603 C   0  0  1  0  0  0  0  0  0  0  0  0
    3.1040    4.4257   -3.1935 O   0  0  0  0  0  0  0  0  0  0  0  0
    2.7836    2.3035   -2.0170 C   0  0  2  0  0  0  0  0  0  0  0  0
    2.7315   -0.0011   -1.0120 N   0  3  0  0  0  0  0  0  0  0  0  0
    5.5384    7.2805   -3.8274 C   0  0  0  0  0  0  0  0  0  0  0  0
    6.9660    7.8774   -3.8847 C   0  0  2  0  0  0  0  0  0  0  0  0
    7.2224    8.2145   -5.2473 O   0  0  0  0  0  0  0  0  0  0  0  0
    8.0018    6.8103   -3.3653 C   0  0  1  0  0  0  0  0  0  0  0  0
    7.8075    5.4019   -4.0231 C   0  0  2  0  0  0  0  0  0  0  0  0
    6.3270    4.9473   -4.0831 C   0  0  1  0  0  0  0  0  0  0  0  0
    5.8930    4.4282   -2.7987 O   0  0  0  0  0  0  0  0  0  0  0  0
    5.4679    6.0243   -4.5532 O   0  0  0  0  0  0  0  0  0  0  0  0
    8.5685    4.4026   -3.3498 O   0  0  0  0  0  0  0  0  0  0  0  0
    9.3951    7.3084   -3.5863 N   0  3  0  0  0  0  0  0  0  0  0  0
   10.1790    6.6560   -4.6549 C   0  0  0  0  0  0  0  0  0  0  0  0
    6.9841    9.1961   -3.0731 C   0  0  0  0  0  0  0  0  0  0  0  0
  1  8  1  0  0  0  0
  1  9  1  1  0  0  0
  1  2  1  0  0  0  0
  2  3  1  0  0  0  0
  3  5  1  0  0  0  0
  3  4  1  1  0  0  0
  5  7  1  0  0  0  0
  5  6  1  6  0  0  0
  7  8  1  0  0  0  0
  9 10  1  0  0  0  0
 11 12  1  0  0  0  0
 11 18  1  0  0  0  0
 11 19  1  6  0  0  0
 12 13  1  0  0  0  0
 13 15  1  0  0  0  0
 13 14  1  6  0  0  0
 15 16  1  0  0  0  0
 15 26  1  1  0  0  0
 16 18  1  0  0  0  0
 16 17  1  6  0  0  0
 18  4  1  1  0  0  0
 20 21  1  0  0  0  0
 20 27  1  0  0  0  0
 21 31  1  1  0  0  0
 21 23  1  0  0  0  0
 21 22  1  0  0  0  0
 23 24  1  0  0  0  0
 23 29  1  6  0  0  0
 24 25  1  0  0  0  0
 24 28  1  1  0  0  0
 25 27  1  0  0  0  0
 25 26  1  1  0  0  0
 29 30  1  0  0  0  0
M  CHG  5   6   1  10   1  14   1  19   1  29   1
M  END
>  <CHROM.1>
80.43427877,164.13318862,-109.96525692,-69.40290930,156.36626722,64.58014229
164.92946319,121.79700636,-55.11221807,-89.59502053,13.29130659,30.31966838
-136.01229087,3.94568350,4.23697980,-2.53240649,2.67964760,-0.24228425,2.88300748

>  <Name>
1byj cryst

>  <RI>
0

>  <Rbt.Current_Directory>
/home/itssahil/PROJECTS/Mol_Feturizer/New_Systems/rnas/1byj

>  <Rbt.Executable>
rbdock ($Id: //depot/dev/client3/rdock/2013.1/src/exe/rbdock.cxx#4 $)

>  <Rbt.Library>
libRbt.so (2013.1, Build901 2013/11/27)

>  <Rbt.Parameter_File>
/export/apps/rDock/src/rDock_2013.1_src/data/scripts/dock_solv.prm

>  <Rbt.Receptor>
prm/pocket_docking_6.prm

>  <SCORE>
-28.1582

>  <SCORE.INTER>
-29.4747

>  <SCORE.INTER.CONST>
1

>  <SCORE.INTER.POLAR>
-4.44471

>  <SCORE.INTER.ROT>
6

>  <SCORE.INTER.SOLV>
25.3252

>  <SCORE.INTER.VDW>
-20.8758

>  <SCORE.INTER.norm>
-0.950796

>  <SCORE.INTRA>
1.31647

>  <SCORE.INTRA.DIHEDRAL>
16.3313

>  <SCORE.INTRA.DIHEDRAL.0>
18.4149

>  <SCORE.INTRA.POLAR>
-2.49349

>  <SCORE.INTRA.POLAR.0>
0

>  <SCORE.INTRA.REPUL>
-0.092687

>  <SCORE.INTRA.REPUL.0>
0.092687

>  <SCORE.INTRA.SOLV>
1.41443

>  <SCORE.INTRA.SOLV.lig_0>
-120.37

>  <SCORE.INTRA.VDW>
1.38491

>  <SCORE.INTRA.VDW.0>
-1.75542

>  <SCORE.INTRA.norm>
0.0424666

>  <SCORE.RESTR>
0

>  <SCORE.RESTR.CAVITY>
0

>  <SCORE.RESTR.norm>
0

>  <SCORE.SYSTEM>
0

>  <SCORE.SYSTEM.CONST>
0

>  <SCORE.SYSTEM.DIHEDRAL>
0

>  <SCORE.SYSTEM.SOLV>
0

>  <SCORE.SYSTEM.norm>
0

>  <SCORE.heavy>
31

>  <SCORE.norm>
-0.90833

>  <RMSD>
7.995

$$$$
1byj cryst
 OpenBabel11021811383D
libRbt.so/2013.1/901 2013/11/27
 31 33  0  0  0  0  0  0  0  0999 V2000
    2.0210    8.3663    0.4024 C   0  0  1  0  0  0  0  0  0  0  0  0
    2.3507    6.9956    0.7956 O   0  0  0  0  0  0  0  0  0  0  0  0
    1.3230    6.1867    1.4423 C   0  0  2  0  0  0  0  0  0  0  0  0
    0.2409    5.8614    0.5149 O   0  0  0  0  0  0  0  0  0  0  0  0
    0.7802    6.9456    2.6913 C   0  0  2  0  0  0  0  0  0  0  0  0
   -0.2697    6.2011    3.4141 N   0  3  0  0  0  0  0  0  0  0  0  0
    0.2617    8.3472    2.2784 C   0  0  0  0  0  0  0  0  0  0  0  0
    1.3582    9.1535    1.5663 C   0  0  0  0  0  0  0  0  0  0  0  0
    3.3036    9.0943   -0.0370 C   0  0  0  0  0  0  0  0  0  0  0  0
    3.8390    8.6296   -1.3234 N   0  3  0  0  0  0  0  0  0  0  0  0
   -0.3179    3.5257   -0.0352 C   0  0  1  0  0  0  0  0  0  0  0  0
   -0.0418    2.3385   -0.9896 C   0  0  0  0  0  0  0  0  0  0  0  0
    1.4741    2.0053   -1.0185 C   0  0  1  0  0  0  0  0  0  0  0  0
    1.7127    0.8244   -1.8701 N   0  3  0  0  0  0  0  0  0  0  0  0
    2.2884    3.2416   -1.4983 C   0  0  1  0  0  0  0  0  0  0  0  0
    1.9777    4.4966   -0.6448 C   0  0  1  0  0  0  0  0  0  0  0  0
    2.6361    5.5870   -1.2721 O   0  0  0  0  0  0  0  0  0  0  0  0
    0.4541    4.8111   -0.4797 C   0  0  2  0  0  0  0  0  0  0  0  0
   -1.7680    3.7675    0.0649 N   0  3  0  0  0  0  0  0  0  0  0  0
    5.2159    4.8013   -3.3323 C   0  0  0  0  0  0  0  0  0  0  0  0
    6.7093    4.4201   -3.1829 C   0  0  2  0  0  0  0  0  0  0  0  0
    7.1475    3.9452   -4.4551 O   0  0  0  0  0  0  0  0  0  0  0  0
    6.8575    3.3014   -2.0839 C   0  0  1  0  0  0  0  0  0  0  0  0
    5.8514    2.1169   -2.2804 C   0  0  2  0  0  0  0  0  0  0  0  0
    4.4065    2.5799   -2.5963 C   0  0  1  0  0  0  0  0  0  0  0  0
    3.7180    2.9887   -1.3853 O   0  0  0  0  0  0  0  0  0  0  0  0
    4.4024    3.6293   -3.6052 O   0  0  0  0  0  0  0  0  0  0  0  0
    5.8217    1.2634   -1.1393 O   0  0  0  0  0  0  0  0  0  0  0  0
    8.2665    2.7989   -2.0605 N   0  3  0  0  0  0  0  0  0  0  0  0
    8.6261    1.8609   -0.9776 C   0  0  0  0  0  0  0  0  0  0  0  0
    7.5182    5.7023   -2.8668 C   0  0  0  0  0  0  0  0  0  0  0  0
  1  8  1  0  0  0  0
  1  9  1  1  0  0  0
  1  2  1  0  0  0  0
  2  3  1  0  0  0  0
  3  5  1  0  0  0  0
  3  4  1  6  0  0  0
  5  7  1  0  0  0  0
  5  6  1  6  0  0  0
  7  8  1  0  0  0  0
  9 10  1  0  0  0  0
 11 12  1  0  0  0  0
 11 18  1  0  0  0  0
 11 19  1  6  0  0  0
 12 13  1  0  0  0  0
 13 15  1  0  0  0  0
 13 14  1  6  0  0  0
 15 16  1  0  0  0  0
 15 26  1  1  0  0  0
 16 18  1  0  0  0  0
 16 17  1  6  0  0  0
 18  4  1  1  0  0  0
 20 21  1  0  0  0  0
 20 27  1  0  0  0  0
 21 31  1  1  0  0  0
 21 23  1  0  0  0  0
 21 22  1  0  0  0  0
 23 24  1  0  0  0  0
 23 29  1  6  0  0  0
 24 25  1  0  0  0  0
 24 28  1  1  0  0  0
 25 27  1  0  0  0  0
 25 26  1  1  0  0  0
 29 30  1  0  0  0  0
M  CHG  5   6   1  10   1  14   1  19   1  29   1
M  END
>  <CHROM.1>
71.25096830,77.11528377,104.75576863,-57.14212615,-30.31528972,-46.83277129
-170.18938226,98.48983977,-163.28968398,179.20010175,-66.13296571,-148.70468623
-170.35336545,3.18411691,4.68260307,-0.85308888,-2.53907062,-0.39693460,-2.83225916

>  <Name>
1byj cryst

>  <RI>
0

>  <Rbt.Current_Directory>
/home/itssahil/PROJECTS/Mol_Feturizer/New_Systems/rnas/1byj

>  <Rbt.Executable>
rbdock ($Id: //depot/dev/client3/rdock/2013.1/src/exe/rbdock.cxx#4 $)

>  <Rbt.Library>
libRbt.so (2013.1, Build901 2013/11/27)

>  <Rbt.Parameter_File>
/export/apps/rDock/src/rDock_2013.1_src/data/scripts/dock_solv.prm

>  <Rbt.Receptor>
prm/pocket_docking_8.prm

>  <SCORE>
-30.283

>  <SCORE.INTER>
-27.1509

>  <SCORE.INTER.CONST>
1

>  <SCORE.INTER.POLAR>
-4.56754

>  <SCORE.INTER.ROT>
6

>  <SCORE.INTER.SOLV>
11.8386

>  <SCORE.INTER.VDW>
-14.4216

>  <SCORE.INTER.norm>
-0.875834

>  <SCORE.INTRA>
-3.13218

>  <SCORE.INTRA.DIHEDRAL>
3.01721

>  <SCORE.INTRA.DIHEDRAL.0>
18.4149

>  <SCORE.INTRA.POLAR>
-1.6065

>  <SCORE.INTRA.POLAR.0>
0

>  <SCORE.INTRA.REPUL>
-0.092687

>  <SCORE.INTRA.REPUL.0>
0.092687

>  <SCORE.INTRA.SOLV>
-0.265861

>  <SCORE.INTRA.SOLV.lig_0>
-120.37

>  <SCORE.INTRA.VDW>
1.41768

>  <SCORE.INTRA.VDW.0>
-1.75542

>  <SCORE.INTRA.norm>
-0.101038

>  <SCORE.RESTR>
0

>  <SCORE.RESTR.CAVITY>
0

>  <SCORE.RESTR.norm>
0

>  <SCORE.SYSTEM>
0

>  <SCORE.SYSTEM.CONST>
0

>  <SCORE.SYSTEM.DIHEDRAL>
0

>  <SCORE.SYSTEM.SOLV>
0

>  <SCORE.SYSTEM.norm>
0

>  <SCORE.heavy>
31

>  <SCORE.norm>
-0.976872

>  <RMSD>
8.001

$$$$
1byj cryst
 OpenBabel11021811383D
libRbt.so/2013.1/901 2013/11/27
 31 33  0  0  0  0  0  0  0  0999 V2000
    1.7632    6.0427   -0.6308 C   0  0  1  0  0  0  0  0  0  0  0  0
    1.1421    4.7181   -0.6720 O   0  0  0  0  0  0  0  0  0  0  0  0
   -0.0852    4.5444   -1.4415 C   0  0  2  0  0  0  0  0  0  0  0  0
    0.1627    4.6808   -2.8756 O   0  0  0  0  0  0  0  0  0  0  0  0
   -1.1478    5.5771   -0.9567 C   0  0  2  0  0  0  0  0  0  0  0  0
   -2.4299    5.4773   -1.6815 N   0  3  0  0  0  0  0  0  0  0  0  0
   -0.5784    7.0155   -1.0617 C   0  0  0  0  0  0  0  0  0  0  0  0
    0.7327    7.1488   -0.2725 C   0  0  0  0  0  0  0  0  0  0  0  0
    2.8935    6.0448    0.4136 C   0  0  0  0  0  0  0  0  0  0  0  0
    3.6163    7.3202    0.5037 N   0  3  0  0  0  0  0  0  0  0  0  0
    0.1459    2.2872   -3.4594 C   0  0  1  0  0  0  0  0  0  0  0  0
    0.9542    1.1176   -4.0720 C   0  0  0  0  0  0  0  0  0  0  0  0
    2.3113    0.9509   -3.3369 C   0  0  1  0  0  0  0  0  0  0  0  0
    3.0361   -0.2144   -3.8785 N   0  3  0  0  0  0  0  0  0  0  0  0
    3.1481    2.2583   -3.4476 C   0  0  1  0  0  0  0  0  0  0  0  0
    2.3535    3.4895   -2.9446 C   0  0  1  0  0  0  0  0  0  0  0  0
    3.1399    4.6318   -3.2491 O   0  0  0  0  0  0  0  0  0  0  0  0
    0.9246    3.6396   -3.5635 C   0  0  2  0  0  0  0  0  0  0  0  0
   -1.1813    2.3717   -4.0940 N   0  3  0  0  0  0  0  0  0  0  0  0
    5.2823    3.9511   -0.3413 C   0  0  0  0  0  0  0  0  0  0  0  0
    6.7794    3.6127   -0.1367 C   0  0  2  0  0  0  0  0  0  0  0  0
    7.5144    4.8119   -0.3771 O   0  0  0  0  0  0  0  0  0  0  0  0
    7.2041    2.4812   -1.1469 C   0  0  1  0  0  0  0  0  0  0  0  0
    6.7498    2.7748   -2.6171 C   0  0  2  0  0  0  0  0  0  0  0  0
    5.2865    3.2743   -2.7232 C   0  0  1  0  0  0  0  0  0  0  0  0
    4.3539    2.1650   -2.6365 O   0  0  0  0  0  0  0  0  0  0  0  0
    5.0095    4.2973   -1.7254 O   0  0  0  0  0  0  0  0  0  0  0  0
    6.9062    1.6288   -3.4498 O   0  0  0  0  0  0  0  0  0  0  0  0
    8.6847    2.2756   -1.0830 N   0  3  0  0  0  0  0  0  0  0  0  0
    9.1898    1.3556   -0.0437 C   0  0  0  0  0  0  0  0  0  0  0  0
    7.0013    3.2264    1.3464 C   0  0  0  0  0  0  0  0  0  0  0  0
  1  8  1  0  0  0  0
  1  9  1  1  0  0  0
  1  2  1  0  0  0  0
  2  3  1  0  0  0  0
  3  5  1  0  0  0  0
  3  4  1  6  0  0  0
  5  7  1  0  0  0  0
  5  6  1  6  0  0  0
  7  8  1  0  0  0  0
  9 10  1  0  0  0  0
 11 12  1  0  0  0  0
 11 18  1  0  0  0  0
 11 19  1  6  0  0  0
 12 13  1  0  0  0  0
 13 15  1  0  0  0  0
 13 14  1  6  0  0  0
 15 16  1  0  0  0  0
 15 26  1  1  0  0  0
 16 18  1  0  0  0  0
 16 17  1  6  0  0  0
 18  4  1  1  0  0  0
 20 21  1  0  0  0  0
 20 27  1  0  0  0  0
 21 31  1  1  0  0  0
 21 23  1  0  0  0  0
 21 22  1  0  0  0  0
 23 24  1  0  0  0  0
 23 29  1  6  0  0  0
 24 25  1  0  0  0  0
 24 28  1  6  0  0  0
 25 27  1  0  0  0  0
 25 26  1  1  0  0  0
 29 30  1  0  0  0  0
M  CHG  5   6   1  10   1  14   1  19   1  29   1
M  END
>  <CHROM.1>
178.04967008,69.82133385,62.08493214,50.59943999,64.00328417,41.93780534
166.54770536,175.37876495,-174.48846563,59.97809901,-153.38171101,54.87551216
-144.61288837,3.27144521,3.71168777,-1.80277566,-3.01450007,0.26031539,-2.48830158

>  <Name>
1byj cryst

>  <RI>
0

>  <Rbt.Current_Directory>
/home/itssahil/PROJECTS/Mol_Feturizer/New_Systems/rnas/1byj

>  <Rbt.Executable>
rbdock ($Id: //depot/dev/client3/rdock/2013.1/src/exe/rbdock.cxx#4 $)

>  <Rbt.Library>
libRbt.so (2013.1, Build901 2013/11/27)

>  <Rbt.Parameter_File>
/export/apps/rDock/src/rDock_2013.1_src/data/scripts/dock_solv.prm

>  <Rbt.Receptor>
prm/pocket_docking_8.prm

>  <SCORE>
-41.0571

>  <SCORE.INTER>
-35.7662

>  <SCORE.INTER.CONST>
1

>  <SCORE.INTER.POLAR>
-5.5339

>  <SCORE.INTER.ROT>
6

>  <SCORE.INTER.SOLV>
24.5183

>  <SCORE.INTER.VDW>
-21.1706

>  <SCORE.INTER.norm>
-1.15375

>  <SCORE.INTRA>
-5.29087

>  <SCORE.INTRA.DIHEDRAL>
-9.82188

>  <SCORE.INTRA.DIHEDRAL.0>
18.4149

>  <SCORE.INTRA.POLAR>
-0.0999512

>  <SCORE.INTRA.POLAR.0>
0

>  <SCORE.INTRA.REPUL>
-0.092687

>  <SCORE.INTRA.REPUL.0>
0.092687

>  <SCORE.INTRA.SOLV>
-1.47047

>  <SCORE.INTRA.SOLV.lig_0>
-120.37

>  <SCORE.INTRA.VDW>
1.15857

>  <SCORE.INTRA.VDW.0>
-1.75542

>  <SCORE.INTRA.norm>
-0.170673

>  <SCORE.RESTR>
0

>  <SCORE.RESTR.CAVITY>
0

>  <SCORE.RESTR.norm>
0

>  <SCORE.SYSTEM>
0

>  <SCORE.SYSTEM.CONST>
0

>  <SCORE.SYSTEM.DIHEDRAL>
0

>  <SCORE.SYSTEM.SOLV>
0

>  <SCORE.SYSTEM.norm>
0

>  <SCORE.heavy>
31

>  <SCORE.norm>
-1.32442

>  <RMSD>
8.020

$$$$
1byj cryst
 OpenBabel11021811383D
libRbt.so/2013.1/901 2013/11/27
 31 33  0  0  0  0  0  0  0  0999 V2000
    6.7584    9.5389   -5.0436 C   0  0  1  0  0  0  0  0  0  0  0  0
    7.5144    9.0969   -3.8709 O   0  0  0  0  0  0  0  0  0  0  0  0
    6.8948    8.1422   -2.9580 C   0  0  2  0  0  0  0  0  0  0  0  0
    6.7378    6.8315   -3.5857 O   0  0  0  0  0  0  0  0  0  0  0  0
    5.5203    8.7026   -2.4814 C   0  0  2  0  0  0  0  0  0  0  0  0
    4.8153    7.8006   -1.5495 N   0  3  0  0  0  0  0  0  0  0  0  0
    4.6236    9.0237   -3.7049 C   0  0  0  0  0  0  0  0  0  0  0  0
    5.3246    9.9996   -4.6618 C   0  0  0  0  0  0  0  0  0  0  0  0
    7.5019   10.7032   -5.7216 C   0  0  0  0  0  0  0  0  0  0  0  0
    7.8834   11.7811   -4.7998 N   0  3  0  0  0  0  0  0  0  0  0  0
    8.9331    6.0323   -4.3683 C   0  0  1  0  0  0  0  0  0  0  0  0
    9.9991    4.9156   -4.2546 C   0  0  0  0  0  0  0  0  0  0  0  0
    9.3662    3.5283   -4.5456 C   0  0  1  0  0  0  0  0  0  0  0  0
   10.4077    2.4838   -4.5105 N   0  3  0  0  0  0  0  0  0  0  0  0
    8.2178    3.2377   -3.5365 C   0  0  1  0  0  0  0  0  0  0  0  0
    7.1652    4.3744   -3.5261 C   0  0  1  0  0  0  0  0  0  0  0  0
    6.2702    4.0887   -2.4614 O   0  0  0  0  0  0  0  0  0  0  0  0
    7.7602    5.8114   -3.3577 C   0  0  2  0  0  0  0  0  0  0  0  0
    9.5632    7.3527   -4.1925 N   0  3  0  0  0  0  0  0  0  0  0  0
    9.8059    1.5806   -1.9154 C   0  0  0  0  0  0  0  0  0  0  0  0
    9.1627    1.6995   -0.5119 C   0  0  2  0  0  0  0  0  0  0  0  0
    9.3553    0.4462    0.1423 O   0  0  0  0  0  0  0  0  0  0  0  0
    7.6289    2.0245   -0.6638 C   0  0  1  0  0  0  0  0  0  0  0  0
    6.9048    1.0833   -1.6856 C   0  0  2  0  0  0  0  0  0  0  0  0
    7.6953    0.8772   -3.0026 C   0  0  1  0  0  0  0  0  0  0  0  0
    7.5205    2.0101   -3.8934 O   0  0  0  0  0  0  0  0  0  0  0  0
    9.1003    0.6089   -2.7327 O   0  0  0  0  0  0  0  0  0  0  0  0
    5.6006    1.5628   -2.0022 O   0  0  0  0  0  0  0  0  0  0  0  0
    6.9635    1.9617    0.6748 N   0  3  0  0  0  0  0  0  0  0  0  0
    6.5204    0.6323    1.1418 C   0  0  0  0  0  0  0  0  0  0  0  0
    9.9388    2.7662    0.2994 C   0  0  0  0  0  0  0  0  0  0  0  0
  1  8  1  0  0  0  0
  1  9  1  1  0  0  0
  1  2  1  0  0  0  0
  2  3  1  0  0  0  0
  3  5  1  0  0  0  0
  3  4  1  6  0  0  0
  5  7  1  0  0  0  0
  5  6  1  1  0  0  0
  7  8  1  0  0  0  0
  9 10  1  0  0  0  0
 11 12  1  0  0  0  0
 11 18  1  0  0  0  0
 11 19  1  1  0  0  0
 12 13  1  0  0  0  0
 13 15  1  0  0  0  0
 13 14  1  1  0  0  0
 15 16  1  0  0  0  0
 15 26  1  6  0  0  0
 16 18  1  0  0  0  0
 16 17  1  1  0  0  0
 18  4  1  6  0  0  0
 20 21  1  0  0  0  0
 20 27  1  0  0  0  0
 21 31  1  1  0  0  0
 21 23  1  0  0  0  0
 21 22  1  0  0  0  0
 23 24  1  0  0  0  0
 23 29  1  1  0  0  0
 24 25  1  0  0  0  0
 24 28  1  6  0  0  0
 25 27  1  0  0  0  0
 25 26  1  6  0  0  0
 29 30  1  0  0  0  0
M  CHG  5   6   1  10   1  14   1  19   1  29   1
M  END
>  <CHROM.1>
-50.42387947,95.72619866,-83.97416542,74.10432855,56.73061184,87.52147574
-74.01080547,110.77436613,67.68736405,177.76739280,36.37827619,-175.40971396
73.54621967,7.65961999,4.85683016,-2.78847572,-1.77277987,-0.63378679,2.67067664

>  <Name>
1byj cryst

>  <RI>
0

>  <Rbt.Current_Directory>
/home/itssahil/PROJECTS/Mol_Feturizer/New_Systems/rnas/1byj

>  <Rbt.Executable>
rbdock ($Id: //depot/dev/client3/rdock/2013.1/src/exe/rbdock.cxx#4 $)

>  <Rbt.Library>
libRbt.so (2013.1, Build901 2013/11/27)

>  <Rbt.Parameter_File>
/export/apps/rDock/src/rDock_2013.1_src/data/scripts/dock_solv.prm

>  <Rbt.Receptor>
prm/blind_docking_100.prm

>  <SCORE>
-12.7514

>  <SCORE.INTER>
-23.5379

>  <SCORE.INTER.CONST>
1

>  <SCORE.INTER.POLAR>
-3.28846

>  <SCORE.INTER.ROT>
6

>  <SCORE.INTER.SOLV>
27.7274

>  <SCORE.INTER.VDW>
-21.5729

>  <SCORE.INTER.norm>
-0.759287

>  <SCORE.INTRA>
3.33178

>  <SCORE.INTRA.DIHEDRAL>
1.23453

>  <SCORE.INTRA.DIHEDRAL.0>
18.4149

>  <SCORE.INTRA.POLAR>
-1.41234

>  <SCORE.INTRA.POLAR.0>
0

>  <SCORE.INTRA.REPUL>
-0.0865587

>  <SCORE.INTRA.REPUL.0>
0.092687

>  <SCORE.INTRA.SOLV>
4.89213

>  <SCORE.INTRA.SOLV.lig_0>
-120.37

>  <SCORE.INTRA.VDW>
5.50318

>  <SCORE.INTRA.VDW.0>
-1.75542

>  <SCORE.INTRA.norm>
0.107477

>  <SCORE.RESTR>
7.45475

>  <SCORE.RESTR.CAVITY>
7.45475

>  <SCORE.RESTR.norm>
0.240476

>  <SCORE.SYSTEM>
0

>  <SCORE.SYSTEM.CONST>
0

>  <SCORE.SYSTEM.DIHEDRAL>
0

>  <SCORE.SYSTEM.SOLV>
0

>  <SCORE.SYSTEM.norm>
0

>  <SCORE.heavy>
31

>  <SCORE.norm>
-0.411335

>  <RMSD>
8.036

$$$$
1byj cryst
 OpenBabel11021811383D
libRbt.so/2013.1/901 2013/11/27
 31 33  0  0  0  0  0  0  0  0999 V2000
    1.8559    9.1824   -0.0848 C   0  0  1  0  0  0  0  0  0  0  0  0
    2.7931    8.0693    0.0726 O   0  0  0  0  0  0  0  0  0  0  0  0
    2.7946    7.0088   -0.9293 C   0  0  2  0  0  0  0  0  0  0  0  0
    3.2921    7.4933   -2.2155 O   0  0  0  0  0  0  0  0  0  0  0  0
    1.3539    6.4298   -1.0689 C   0  0  2  0  0  0  0  0  0  0  0  0
    1.2561    5.3454   -2.0656 N   0  3  0  0  0  0  0  0  0  0  0  0
    0.3543    7.5660   -1.4068 C   0  0  0  0  0  0  0  0  0  0  0  0
    0.4097    8.6814   -0.3521 C   0  0  0  0  0  0  0  0  0  0  0  0
    1.8669   10.0438    1.1903 C   0  0  0  0  0  0  0  0  0  0  0  0
    1.7567    9.2675    2.4323 N   0  3  0  0  0  0  0  0  0  0  0  0
    5.0243    8.0905   -3.8627 C   0  0  1  0  0  0  0  0  0  0  0  0
    6.5410    8.2825   -4.1067 C   0  0  0  0  0  0  0  0  0  0  0  0
    7.3206    6.9968   -3.7208 C   0  0  1  0  0  0  0  0  0  0  0  0
    8.7531    7.1659   -4.0311 N   0  3  0  0  0  0  0  0  0  0  0  0
    7.0877    6.6554   -2.2205 C   0  0  1  0  0  0  0  0  0  0  0  0
    5.5786    6.5514   -1.8859 C   0  0  1  0  0  0  0  0  0  0  0  0
    5.4844    6.4096   -0.4763 O   0  0  0  0  0  0  0  0  0  0  0  0
    4.7204    7.7695   -2.3625 C   0  0  2  0  0  0  0  0  0  0  0  0
    4.2833    9.2762   -4.3278 N   0  3  0  0  0  0  0  0  0  0  0  0
    8.5284    3.6808   -4.2866 C   0  0  0  0  0  0  0  0  0  0  0  0
    8.9871    2.3257   -3.6942 C   0  0  2  0  0  0  0  0  0  0  0  0
    8.1278    1.3226   -4.2341 O   0  0  0  0  0  0  0  0  0  0  0  0
    8.8756    2.3754   -2.1237 C   0  0  1  0  0  0  0  0  0  0  0  0
    7.4937    2.9217   -1.6278 C   0  0  2  0  0  0  0  0  0  0  0  0
    7.0205    4.1862   -2.3887 C   0  0  1  0  0  0  0  0  0  0  0  0
    7.6906    5.3724   -1.8874 O   0  0  0  0  0  0  0  0  0  0  0  0
    7.1957    4.0283   -3.8251 O   0  0  0  0  0  0  0  0  0  0  0  0
    7.5164    3.2066   -0.2316 O   0  0  0  0  0  0  0  0  0  0  0  0
    9.1414    1.0175   -1.5545 N   0  3  0  0  0  0  0  0  0  0  0  0
   10.5452    0.5579   -1.5436 C   0  0  0  0  0  0  0  0  0  0  0  0
   10.4199    2.0245   -4.1987 C   0  0  0  0  0  0  0  0  0  0  0  0
  1  8  1  0  0  0  0
  1  9  1  1  0  0  0
  1  2  1  0  0  0  0
  2  3  1  0  0  0  0
  3  5  1  0  0  0  0
  3  4  1  6  0  0  0
  5  7  1  0  0  0  0
  5  6  1  6  0  0  0
  7  8  1  0  0  0  0
  9 10  1  0  0  0  0
 11 12  1  0  0  0  0
 11 18  1  0  0  0  0
 11 19  1  1  0  0  0
 12 13  1  0  0  0  0
 13 15  1  0  0  0  0
 13 14  1  1  0  0  0
 15 16  1  0  0  0  0
 15 26  1  6  0  0  0
 16 18  1  0  0  0  0
 16 17  1  1  0  0  0
 18  4  1  6  0  0  0
 20 21  1  0  0  0  0
 20 27  1  0  0  0  0
 21 31  1  6  0  0  0
 21 23  1  0  0  0  0
 21 22  1  0  0  0  0
 23 24  1  0  0  0  0
 23 29  1  1  0  0  0
 24 25  1  0  0  0  0
 24 28  1  1  0  0  0
 25 27  1  0  0  0  0
 25 26  1  1  0  0  0
 29 30  1  0  0  0  0
M  CHG  5   6   1  10   1  14   1  19   1  29   1
M  END
>  <CHROM.1>
-47.83953865,72.65440198,172.68940011,60.70569152,73.50729881,77.57589880
167.50238133,-73.11494069,60.13083509,173.02695801,-164.36704332,-177.92397618
-162.83275088,5.62084049,5.76485907,-2.01530722,2.78097736,0.66010490,-0.63596162

>  <Name>
1byj cryst

>  <RI>
0

>  <Rbt.Current_Directory>
/home/itssahil/PROJECTS/Mol_Feturizer/New_Systems/rnas/1byj

>  <Rbt.Executable>
rbdock ($Id: //depot/dev/client3/rdock/2013.1/src/exe/rbdock.cxx#4 $)

>  <Rbt.Library>
libRbt.so (2013.1, Build901 2013/11/27)

>  <Rbt.Parameter_File>
/export/apps/rDock/src/rDock_2013.1_src/data/scripts/dock_solv.prm

>  <Rbt.Receptor>
prm/pocket_docking_5.prm

>  <SCORE>
-38.337

>  <SCORE.INTER>
-32.3914

>  <SCORE.INTER.CONST>
1

>  <SCORE.INTER.POLAR>
-4.47998

>  <SCORE.INTER.ROT>
6

>  <SCORE.INTER.SOLV>
21.0498

>  <SCORE.INTER.VDW>
-21.2776

>  <SCORE.INTER.norm>
-1.04488

>  <SCORE.INTRA>
-5.94559

>  <SCORE.INTRA.DIHEDRAL>
-12.1199

>  <SCORE.INTRA.DIHEDRAL.0>
18.4149

>  <SCORE.INTRA.POLAR>
-0.0166995

>  <SCORE.INTRA.POLAR.0>
0

>  <SCORE.INTRA.REPUL>
-0.092687

>  <SCORE.INTRA.REPUL.0>
0.092687

>  <SCORE.INTRA.SOLV>
-2.5234

>  <SCORE.INTRA.SOLV.lig_0>
-120.37

>  <SCORE.INTRA.VDW>
1.89626

>  <SCORE.INTRA.VDW.0>
-1.75542

>  <SCORE.INTRA.norm>
-0.191793

>  <SCORE.RESTR>
0

>  <SCORE.RESTR.CAVITY>
0

>  <SCORE.RESTR.norm>
0

>  <SCORE.SYSTEM>
0

>  <SCORE.SYSTEM.CONST>
0

>  <SCORE.SYSTEM.DIHEDRAL>
0

>  <SCORE.SYSTEM.SOLV>
0

>  <SCORE.SYSTEM.norm>
0

>  <SCORE.heavy>
31

>  <SCORE.norm>
-1.23668

>  <RMSD>
8.075

$$$$
1byj cryst
 OpenBabel11021811383D
libRbt.so/2013.1/901 2013/11/27
 31 33  0  0  0  0  0  0  0  0999 V2000
    3.6505   10.8937   -1.0334 C   0  0  1  0  0  0  0  0  0  0  0  0
    3.3244    9.5228   -0.6381 O   0  0  0  0  0  0  0  0  0  0  0  0
    2.6095    8.6730   -1.5843 C   0  0  2  0  0  0  0  0  0  0  0  0
    3.4441    8.3428   -2.7381 O   0  0  0  0  0  0  0  0  0  0  0  0
    1.2974    9.3877   -2.0293 C   0  0  2  0  0  0  0  0  0  0  0  0
    0.5029    8.5999   -2.9921 N   0  3  0  0  0  0  0  0  0  0  0  0
    1.6252   10.7854   -2.6150 C   0  0  0  0  0  0  0  0  0  0  0  0
    2.4115   11.6358   -1.6061 C   0  0  0  0  0  0  0  0  0  0  0  0
    4.1841   11.6642    0.1871 C   0  0  0  0  0  0  0  0  0  0  0  0
    3.2490   11.7047    1.3190 N   0  3  0  0  0  0  0  0  0  0  0  0
    5.5333    8.5138   -4.0328 C   0  0  1  0  0  0  0  0  0  0  0  0
    7.0799    8.4926   -3.9681 C   0  0  0  0  0  0  0  0  0  0  0  0
    7.5779    7.1847   -3.2963 C   0  0  1  0  0  0  0  0  0  0  0  0
    9.0526    7.1422   -3.3116 N   0  3  0  0  0  0  0  0  0  0  0  0
    7.0084    7.0698   -1.8527 C   0  0  1  0  0  0  0  0  0  0  0  0
    5.4638    7.1885   -1.8368 C   0  0  1  0  0  0  0  0  0  0  0  0
    5.0750    7.2421   -0.4722 O   0  0  0  0  0  0  0  0  0  0  0  0
    4.8978    8.4274   -2.6064 C   0  0  2  0  0  0  0  0  0  0  0  0
    5.0741    9.7085   -4.7631 N   0  3  0  0  0  0  0  0  0  0  0  0
    7.9277    4.0044   -3.6853 C   0  0  0  0  0  0  0  0  0  0  0  0
    8.3218    2.6269   -3.0981 C   0  0  2  0  0  0  0  0  0  0  0  0
    7.3653    1.6815   -3.5750 O   0  0  0  0  0  0  0  0  0  0  0  0
    8.3014    2.7022   -1.5248 C   0  0  1  0  0  0  0  0  0  0  0  0
    6.9911    3.3512   -0.9627 C   0  0  2  0  0  0  0  0  0  0  0  0
    6.5668    4.6375   -1.7159 C   0  0  1  0  0  0  0  0  0  0  0  0
    7.3457    5.7786   -1.2700 O   0  0  0  0  0  0  0  0  0  0  0  0
    6.6505    4.4513   -3.1572 O   0  0  0  0  0  0  0  0  0  0  0  0
    7.1113    3.6497    0.4257 O   0  0  0  0  0  0  0  0  0  0  0  0
    8.5020    1.3354   -0.9503 N   0  3  0  0  0  0  0  0  0  0  0  0
    8.7364    1.2476    0.5054 C   0  0  0  0  0  0  0  0  0  0  0  0
    9.6996    2.2186   -3.6753 C   0  0  0  0  0  0  0  0  0  0  0  0
  1  8  1  0  0  0  0
  1  9  1  1  0  0  0
  1  2  1  0  0  0  0
  2  3  1  0  0  0  0
  3  5  1  0  0  0  0
  3  4  1  6  0  0  0
  5  7  1  0  0  0  0
  5  6  1  6  0  0  0
  7  8  1  0  0  0  0
  9 10  1  0  0  0  0
 11 12  1  0  0  0  0
 11 18  1  0  0  0  0
 11 19  1  1  0  0  0
 12 13  1  0  0  0  0
 13 15  1  0  0  0  0
 13 14  1  1  0  0  0
 15 16  1  0  0  0  0
 15 26  1  6  0  0  0
 16 18  1  0  0  0  0
 16 17  1  1  0  0  0
 18  4  1  6  0  0  0
 20 21  1  0  0  0  0
 20 27  1  0  0  0  0
 21 31  1  6  0  0  0
 21 23  1  0  0  0  0
 21 22  1  0  0  0  0
 23 24  1  0  0  0  0
 23 29  1  1  0  0  0
 24 25  1  0  0  0  0
 24 28  1  1  0  0  0
 25 27  1  0  0  0  0
 25 26  1  1  0  0  0
 29 30  1  0  0  0  0
M  CHG  5   6   1  10   1  14   1  19   1  29   1
M  END
>  <CHROM.1>
-57.90931814,22.16074314,-160.89834882,169.26328183,58.64002890,-88.88817919
37.54835930,-76.94743176,165.53783266,-82.17947225,-68.87091779,58.80515588
-177.25816218,5.69025390,6.75496718,-2.00049492,2.74980676,0.89454525,-1.03033941

>  <Name>
1byj cryst

>  <RI>
0

>  <Rbt.Current_Directory>
/home/itssahil/PROJECTS/Mol_Feturizer/New_Systems/rnas/1byj

>  <Rbt.Executable>
rbdock ($Id: //depot/dev/client3/rdock/2013.1/src/exe/rbdock.cxx#4 $)

>  <Rbt.Library>
libRbt.so (2013.1, Build901 2013/11/27)

>  <Rbt.Parameter_File>
/export/apps/rDock/src/rDock_2013.1_src/data/scripts/dock_solv.prm

>  <Rbt.Receptor>
prm/pocket_docking_8.prm

>  <SCORE>
-32.8723

>  <SCORE.INTER>
-29.3985

>  <SCORE.INTER.CONST>
1

>  <SCORE.INTER.POLAR>
-4.38842

>  <SCORE.INTER.ROT>
6

>  <SCORE.INTER.SOLV>
24.6026

>  <SCORE.INTER.VDW>
-20.7718

>  <SCORE.INTER.norm>
-0.948339

>  <SCORE.INTRA>
-3.4738

>  <SCORE.INTRA.DIHEDRAL>
-3.6912

>  <SCORE.INTRA.DIHEDRAL.0>
18.4149

>  <SCORE.INTRA.POLAR>
-0.581483

>  <SCORE.INTRA.POLAR.0>
0

>  <SCORE.INTRA.REPUL>
-0.092687

>  <SCORE.INTRA.REPUL.0>
0.092687

>  <SCORE.INTRA.SOLV>
-1.45395

>  <SCORE.INTRA.SOLV.lig_0>
-120.37

>  <SCORE.INTRA.VDW>
1.53925

>  <SCORE.INTRA.VDW.0>
-1.75542

>  <SCORE.INTRA.norm>
-0.112058

>  <SCORE.RESTR>
0

>  <SCORE.RESTR.CAVITY>
0

>  <SCORE.RESTR.norm>
0

>  <SCORE.SYSTEM>
0

>  <SCORE.SYSTEM.CONST>
0

>  <SCORE.SYSTEM.DIHEDRAL>
0

>  <SCORE.SYSTEM.SOLV>
0

>  <SCORE.SYSTEM.norm>
0

>  <SCORE.heavy>
31

>  <SCORE.norm>
-1.0604

>  <RMSD>
8.082

$$$$
1byj cryst
 OpenBabel11021811383D
libRbt.so/2013.1/901 2013/11/27
 31 33  0  0  0  0  0  0  0  0999 V2000
    1.2227    7.1304    2.8360 C   0  0  1  0  0  0  0  0  0  0  0  0
    0.3479    7.6064    1.7634 O   0  0  0  0  0  0  0  0  0  0  0  0
    0.8948    8.5238    0.7696 C   0  0  2  0  0  0  0  0  0  0  0  0
    1.8865    7.8619   -0.0761 O   0  0  0  0  0  0  0  0  0  0  0  0
    1.5119    9.7592    1.4932 C   0  0  2  0  0  0  0  0  0  0  0  0
    2.0933   10.7479    0.5640 N   0  3  0  0  0  0  0  0  0  0  0  0
    2.5739    9.2965    2.5238 C   0  0  0  0  0  0  0  0  0  0  0  0
    1.9717    8.3025    3.5281 C   0  0  0  0  0  0  0  0  0  0  0  0
    0.3839    6.3758    3.8824 C   0  0  0  0  0  0  0  0  0  0  0  0
   -0.9153    7.0002    4.1645 N   0  3  0  0  0  0  0  0  0  0  0  0
    0.0863    6.7560   -1.3437 C   0  0  1  0  0  0  0  0  0  0  0  0
   -0.4027    5.4276   -1.9704 C   0  0  0  0  0  0  0  0  0  0  0  0
   -0.4336    4.3016   -0.9023 C   0  0  1  0  0  0  0  0  0  0  0  0
   -0.9746    3.0629   -1.4938 N   0  3  0  0  0  0  0  0  0  0  0  0
    0.9869    4.0873   -0.3040 C   0  0  1  0  0  0  0  0  0  0  0  0
    1.5787    5.4077    0.2496 C   0  0  1  0  0  0  0  0  0  0  0  0
    2.9245    5.1305    0.6076 O   0  0  0  0  0  0  0  0  0  0  0  0
    1.5244    6.6135   -0.7456 C   0  0  2  0  0  0  0  0  0  0  0  0
    0.0141    7.8411   -2.3381 N   0  3  0  0  0  0  0  0  0  0  0  0
    3.0346    1.3685   -0.5357 C   0  0  0  0  0  0  0  0  0  0  0  0
    3.4563    0.3431    0.5451 C   0  0  2  0  0  0  0  0  0  0  0  0
    3.1256   -0.9511    0.0435 O   0  0  0  0  0  0  0  0  0  0  0  0
    2.6804    0.6424    1.8830 C   0  0  1  0  0  0  0  0  0  0  0  0
    1.1409    0.8331    1.6650 C   0  0  2  0  0  0  0  0  0  0  0  0
    0.7960    1.7386    0.4555 C   0  0  1  0  0  0  0  0  0  0  0  0
    0.9397    3.1411    0.8019 O   0  0  0  0  0  0  0  0  0  0  0  0
    1.5925    1.3813   -0.7093 O   0  0  0  0  0  0  0  0  0  0  0  0
    0.5111    1.3612    2.8294 O   0  0  0  0  0  0  0  0  0  0  0  0
    2.9423   -0.4472    2.8742 N   0  3  0  0  0  0  0  0  0  0  0  0
    2.4560   -0.2314    4.2522 C   0  0  0  0  0  0  0  0  0  0  0  0
    4.9959    0.3957    0.7035 C   0  0  0  0  0  0  0  0  0  0  0  0
  1  8  1  0  0  0  0
  1  9  1  1  0  0  0
  1  2  1  0  0  0  0
  2  3  1  0  0  0  0
  3  5  1  0  0  0  0
  3  4  1  1  0  0  0
  5  7  1  0  0  0  0
  5  6  1  6  0  0  0
  7  8  1  0  0  0  0
  9 10  1  0  0  0  0
 11 12  1  0  0  0  0
 11 18  1  0  0  0  0
 11 19  1  6  0  0  0
 12 13  1  0  0  0  0
 13 15  1  0  0  0  0
 13 14  1  6  0  0  0
 15 16  1  0  0  0  0
 15 26  1  1  0  0  0
 16 18  1  0  0  0  0
 16 17  1  6  0  0  0
 18  4  1  1  0  0  0
 20 21  1  0  0  0  0
 20 27  1  0  0  0  0
 21 31  1  1  0  0  0
 21 23  1  0  0  0  0
 21 22  1  0  0  0  0
 23 24  1  0  0  0  0
 23 29  1  1  0  0  0
 24 25  1  0  0  0  0
 24 28  1  1  0  0  0
 25 27  1  0  0  0  0
 25 26  1  1  0  0  0
 29 30  1  0  0  0  0
M  CHG  5   6   1  10   1  14   1  19   1  29   1
M  END
>  <CHROM.1>
-40.05231342,52.74054065,43.44814093,-65.22057787,56.90799344,-174.62159199
69.36399306,75.63848107,-61.07684820,178.16981258,-67.70163620,59.49024303
164.68269091,1.44028226,4.52934049,0.90807697,-2.26391202,1.30371315,-2.49144887

>  <Name>
1byj cryst

>  <RI>
0

>  <Rbt.Current_Directory>
/home/itssahil/PROJECTS/Mol_Feturizer/New_Systems/rnas/1byj

>  <Rbt.Executable>
rbdock ($Id: //depot/dev/client3/rdock/2013.1/src/exe/rbdock.cxx#4 $)

>  <Rbt.Library>
libRbt.so (2013.1, Build901 2013/11/27)

>  <Rbt.Parameter_File>
/export/apps/rDock/src/rDock_2013.1_src/data/scripts/dock_solv.prm

>  <Rbt.Receptor>
prm/pocket_docking_8.prm

>  <SCORE>
-36.6492

>  <SCORE.INTER>
-29.3544

>  <SCORE.INTER.CONST>
1

>  <SCORE.INTER.POLAR>
-4.98066

>  <SCORE.INTER.ROT>
6

>  <SCORE.INTER.SOLV>
22.2666

>  <SCORE.INTER.VDW>
-17.9896

>  <SCORE.INTER.norm>
-0.946917

>  <SCORE.INTRA>
-7.32924

>  <SCORE.INTRA.DIHEDRAL>
-12.3783

>  <SCORE.INTRA.DIHEDRAL.0>
18.4149

>  <SCORE.INTRA.POLAR>
-0.00874114

>  <SCORE.INTRA.POLAR.0>
0

>  <SCORE.INTRA.REPUL>
-0.092687

>  <SCORE.INTRA.REPUL.0>
0.092687

>  <SCORE.INTRA.SOLV>
-0.137959

>  <SCORE.INTRA.SOLV.lig_0>
-120.37

>  <SCORE.INTRA.VDW>
-0.577971

>  <SCORE.INTRA.VDW.0>
-1.75542

>  <SCORE.INTRA.norm>
-0.236427

>  <SCORE.RESTR>
0.0344784

>  <SCORE.RESTR.CAVITY>
0.0344784

>  <SCORE.RESTR.norm>
0.00111221

>  <SCORE.SYSTEM>
0

>  <SCORE.SYSTEM.CONST>
0

>  <SCORE.SYSTEM.DIHEDRAL>
0

>  <SCORE.SYSTEM.SOLV>
0

>  <SCORE.SYSTEM.norm>
0

>  <SCORE.heavy>
31

>  <SCORE.norm>
-1.18223

>  <RMSD>
8.151

$$$$
1byj cryst
 OpenBabel11021811383D
libRbt.so/2013.1/901 2013/11/27
 31 33  0  0  0  0  0  0  0  0999 V2000
    3.5563    7.5080   -0.5715 C   0  0  1  0  0  0  0  0  0  0  0  0
    4.7961    6.7459   -0.4159 O   0  0  0  0  0  0  0  0  0  0  0  0
    5.2977    6.4930    0.9306 C   0  0  2  0  0  0  0  0  0  0  0  0
    4.4218    5.5789    1.6613 O   0  0  0  0  0  0  0  0  0  0  0  0
    5.4485    7.8478    1.6872 C   0  0  2  0  0  0  0  0  0  0  0  0
    5.9528    7.6920    3.0657 N   0  3  0  0  0  0  0  0  0  0  0  0
    4.0979    8.6094    1.6888 C   0  0  0  0  0  0  0  0  0  0  0  0
    3.5825    8.8218    0.2574 C   0  0  0  0  0  0  0  0  0  0  0  0
    3.3498    7.8497   -2.0576 C   0  0  0  0  0  0  0  0  0  0  0  0
    2.0507    8.4699   -2.3492 N   0  3  0  0  0  0  0  0  0  0  0  0
    5.3772    3.5551    2.6918 C   0  0  1  0  0  0  0  0  0  0  0  0
    5.6861    2.0502    2.5008 C   0  0  0  0  0  0  0  0  0  0  0  0
    6.5390    1.8283    1.2229 C   0  0  1  0  0  0  0  0  0  0  0  0
    6.8913    0.4013    1.0957 N   0  3  0  0  0  0  0  0  0  0  0  0
    5.7793    2.3530   -0.0298 C   0  0  1  0  0  0  0  0  0  0  0  0
    5.3485    3.8313    0.1410 C   0  0  1  0  0  0  0  0  0  0  0  0
    4.5265    4.1456   -0.9732 O   0  0  0  0  0  0  0  0  0  0  0  0
    4.5887    4.1385    1.4736 C   0  0  2  0  0  0  0  0  0  0  0  0
    4.6566    3.7665    3.9597 N   0  3  0  0  0  0  0  0  0  0  0  0
    9.4258    1.2625   -1.8832 C   0  0  0  0  0  0  0  0  0  0  0  0
    9.8310    1.9977   -3.1843 C   0  0  2  0  0  0  0  0  0  0  0  0
   10.9969    2.7637   -2.8844 O   0  0  0  0  0  0  0  0  0  0  0  0
    8.6498    2.9305   -3.6490 C   0  0  1  0  0  0  0  0  0  0  0  0
    8.0852    3.8217   -2.4909 C   0  0  2  0  0  0  0  0  0  0  0  0
    7.8664    3.0473   -1.1664 C   0  0  1  0  0  0  0  0  0  0  0  0
    6.6302    2.2874   -1.2098 O   0  0  0  0  0  0  0  0  0  0  0  0
    9.0125    2.2047   -0.8578 O   0  0  0  0  0  0  0  0  0  0  0  0
    6.8610    4.4485   -2.8649 O   0  0  0  0  0  0  0  0  0  0  0  0
    9.0968    3.7786   -4.7977 N   0  3  0  0  0  0  0  0  0  0  0  0
    9.2206    5.2298   -4.5517 C   0  0  0  0  0  0  0  0  0  0  0  0
   10.2335    0.9428   -4.2441 C   0  0  0  0  0  0  0  0  0  0  0  0
  1  8  1  0  0  0  0
  1  9  1  6  0  0  0
  1  2  1  0  0  0  0
  2  3  1  0  0  0  0
  3  5  1  0  0  0  0
  3  4  1  1  0  0  0
  5  7  1  0  0  0  0
  5  6  1  1  0  0  0
  7  8  1  0  0  0  0
  9 10  1  0  0  0  0
 11 12  1  0  0  0  0
 11 18  1  0  0  0  0
 11 19  1  1  0  0  0
 12 13  1  0  0  0  0
 13 15  1  0  0  0  0
 13 14  1  6  0  0  0
 15 16  1  0  0  0  0
 15 26  1  6  0  0  0
 16 18  1  0  0  0  0
 16 17  1  6  0  0  0
 18  4  1  1  0  0  0
 20 21  1  0  0  0  0
 20 27  1  0  0  0  0
 21 31  1  6  0  0  0
 21 23  1  0  0  0  0
 21 22  1  0  0  0  0
 23 24  1  0  0  0  0
 23 29  1  6  0  0  0
 24 25  1  0  0  0  0
 24 28  1  6  0  0  0
 25 27  1  0  0  0  0
 25 26  1  6  0  0  0
 29 30  1  0  0  0  0
M  CHG  5   6   1  10   1  14   1  19   1  29   1
M  END
>  <CHROM.1>
172.81480092,84.06619759,101.38102395,170.32736103,-60.01901570,-168.02842813
-169.91616556,-59.72006277,-166.91263410,-62.65552513,8.91064752,-175.16754735
-135.21041526,6.37827337,4.40978477,-0.58183951,3.13683461,-0.86940147,2.23590853

>  <Name>
1byj cryst

>  <RI>
0

>  <Rbt.Current_Directory>
/home/itssahil/PROJECTS/Mol_Feturizer/New_Systems/rnas/1byj

>  <Rbt.Executable>
rbdock ($Id: //depot/dev/client3/rdock/2013.1/src/exe/rbdock.cxx#4 $)

>  <Rbt.Library>
libRbt.so (2013.1, Build901 2013/11/27)

>  <Rbt.Parameter_File>
/export/apps/rDock/src/rDock_2013.1_src/data/scripts/dock_solv.prm

>  <Rbt.Receptor>
prm/pocket_docking_6.prm

>  <SCORE>
-25.2168

>  <SCORE.INTER>
-24.1155

>  <SCORE.INTER.CONST>
1

>  <SCORE.INTER.POLAR>
-3.98254

>  <SCORE.INTER.ROT>
6

>  <SCORE.INTER.SOLV>
19.7484

>  <SCORE.INTER.VDW>
-16.9847

>  <SCORE.INTER.norm>
-0.777918

>  <SCORE.INTRA>
-1.10136

>  <SCORE.INTRA.DIHEDRAL>
1.40126

>  <SCORE.INTRA.DIHEDRAL.0>
18.4149

>  <SCORE.INTRA.POLAR>
-0.952381

>  <SCORE.INTRA.POLAR.0>
0

>  <SCORE.INTRA.REPUL>
-0.092687

>  <SCORE.INTRA.REPUL.0>
0.092687

>  <SCORE.INTRA.SOLV>
-2.30971

>  <SCORE.INTRA.SOLV.lig_0>
-120.37

>  <SCORE.INTRA.VDW>
3.05439

>  <SCORE.INTRA.VDW.0>
-1.75542

>  <SCORE.INTRA.norm>
-0.0355278

>  <SCORE.RESTR>
0

>  <SCORE.RESTR.CAVITY>
0

>  <SCORE.RESTR.norm>
0

>  <SCORE.SYSTEM>
0

>  <SCORE.SYSTEM.CONST>
0

>  <SCORE.SYSTEM.DIHEDRAL>
0

>  <SCORE.SYSTEM.SOLV>
0

>  <SCORE.SYSTEM.norm>
0

>  <SCORE.heavy>
31

>  <SCORE.norm>
-0.813446

>  <RMSD>
8.165

$$$$
1byj cryst
 OpenBabel11021811383D
libRbt.so/2013.1/901 2013/11/27
 31 33  0  0  0  0  0  0  0  0999 V2000
    6.3258    7.0977   -0.6133 C   0  0  1  0  0  0  0  0  0  0  0  0
    6.9751    6.4655    0.5360 O   0  0  0  0  0  0  0  0  0  0  0  0
    6.3159    6.5314    1.8358 C   0  0  2  0  0  0  0  0  0  0  0  0
    5.0898    5.7356    1.8510 O   0  0  0  0  0  0  0  0  0  0  0  0
    6.0205    8.0209    2.1888 C   0  0  2  0  0  0  0  0  0  0  0  0
    5.3505    8.1883    3.4935 N   0  3  0  0  0  0  0  0  0  0  0  0
    5.1819    8.6783    1.0625 C   0  0  0  0  0  0  0  0  0  0  0  0
    5.8887    8.5544   -0.2957 C   0  0  0  0  0  0  0  0  0  0  0  0
    7.2970    7.1082   -1.8069 C   0  0  0  0  0  0  0  0  0  0  0  0
    8.4617    7.9827   -1.6170 N   0  3  0  0  0  0  0  0  0  0  0  0
    6.1258    3.7501    2.8780 C   0  0  1  0  0  0  0  0  0  0  0  0
    6.3641    2.2257    2.7516 C   0  0  0  0  0  0  0  0  0  0  0  0
    7.0224    1.8898    1.3865 C   0  0  1  0  0  0  0  0  0  0  0  0
    7.3146    0.4455    1.3116 N   0  3  0  0  0  0  0  0  0  0  0  0
    6.1083    2.3587    0.2176 C   0  0  1  0  0  0  0  0  0  0  0  0
    5.7458    3.8598    0.3428 C   0  0  1  0  0  0  0  0  0  0  0  0
    4.7839    4.1303   -0.6659 O   0  0  0  0  0  0  0  0  0  0  0  0
    5.1898    4.2809    1.7431 C   0  0  2  0  0  0  0  0  0  0  0  0
    5.5969    4.0700    4.2156 N   0  3  0  0  0  0  0  0  0  0  0  0
    9.7258    1.3857   -0.9299 C   0  0  0  0  0  0  0  0  0  0  0  0
   10.2328    1.4416   -2.3919 C   0  0  2  0  0  0  0  0  0  0  0  0
   11.2722    2.4183   -2.4355 O   0  0  0  0  0  0  0  0  0  0  0  0
    9.0440    1.8430   -3.3442 C   0  0  1  0  0  0  0  0  0  0  0  0
    8.2490    3.0923   -2.8332 C   0  0  2  0  0  0  0  0  0  0  0  0
    7.9263    3.0416   -1.3182 C   0  0  1  0  0  0  0  0  0  0  0  0
    6.7825    2.1852   -1.0614 O   0  0  0  0  0  0  0  0  0  0  0  0
    9.0933    2.6363   -0.5482 O   0  0  0  0  0  0  0  0  0  0  0  0
    7.0337    3.2686   -3.5566 O   0  0  0  0  0  0  0  0  0  0  0  0
    9.5614    2.0765   -4.7284 N   0  3  0  0  0  0  0  0  0  0  0  0
    9.9752    0.8865   -5.4994 C   0  0  0  0  0  0  0  0  0  0  0  0
   10.8698    0.0756   -2.7474 C   0  0  0  0  0  0  0  0  0  0  0  0
  1  8  1  0  0  0  0
  1  9  1  6  0  0  0
  1  2  1  0  0  0  0
  2  3  1  0  0  0  0
  3  5  1  0  0  0  0
  3  4  1  6  0  0  0
  5  7  1  0  0  0  0
  5  6  1  1  0  0  0
  7  8  1  0  0  0  0
  9 10  1  0  0  0  0
 11 12  1  0  0  0  0
 11 18  1  0  0  0  0
 11 19  1  1  0  0  0
 12 13  1  0  0  0  0
 13 15  1  0  0  0  0
 13 14  1  6  0  0  0
 15 16  1  0  0  0  0
 15 26  1  6  0  0  0
 16 18  1  0  0  0  0
 16 17  1  6  0  0  0
 18  4  1  6  0  0  0
 20 21  1  0  0  0  0
 20 27  1  0  0  0  0
 21 31  1  6  0  0  0
 21 23  1  0  0  0  0
 21 22  1  0  0  0  0
 23 24  1  0  0  0  0
 23 29  1  6  0  0  0
 24 25  1  0  0  0  0
 24 28  1  6  0  0  0
 25 27  1  0  0  0  0
 25 26  1  6  0  0  0
 29 30  1  0  0  0  0
M  CHG  5   6   1  10   1  14   1  19   1  29   1
M  END
>  <CHROM.1>
-67.48618939,67.08908630,55.66768438,-60.59180370,177.29198492,-59.64016813
-61.24087202,-68.20398687,62.98327657,-63.32968930,-166.60888445,92.49150685
-161.37928045,7.32621499,4.05969359,-0.34664608,-2.79734564,-1.03684604,2.72184166

>  <Name>
1byj cryst

>  <RI>
0

>  <Rbt.Current_Directory>
/home/itssahil/PROJECTS/Mol_Feturizer/New_Systems/rnas/1byj

>  <Rbt.Executable>
rbdock ($Id: //depot/dev/client3/rdock/2013.1/src/exe/rbdock.cxx#4 $)

>  <Rbt.Library>
libRbt.so (2013.1, Build901 2013/11/27)

>  <Rbt.Parameter_File>
/export/apps/rDock/src/rDock_2013.1_src/data/scripts/dock_solv.prm

>  <Rbt.Receptor>
prm/pocket_docking_5.prm

>  <SCORE>
-37.2379

>  <SCORE.INTER>
-30.5465

>  <SCORE.INTER.CONST>
1

>  <SCORE.INTER.POLAR>
-4.21515

>  <SCORE.INTER.ROT>
6

>  <SCORE.INTER.SOLV>
24.3442

>  <SCORE.INTER.VDW>
-22.0286

>  <SCORE.INTER.norm>
-0.985371

>  <SCORE.INTRA>
-6.77972

>  <SCORE.INTRA.DIHEDRAL>
-11.1669

>  <SCORE.INTRA.DIHEDRAL.0>
18.4149

>  <SCORE.INTRA.POLAR>
-0.272483

>  <SCORE.INTRA.POLAR.0>
0

>  <SCORE.INTRA.REPUL>
-0.092687

>  <SCORE.INTRA.REPUL.0>
0.092687

>  <SCORE.INTRA.SOLV>
-0.291553

>  <SCORE.INTRA.SOLV.lig_0>
-120.37

>  <SCORE.INTRA.VDW>
0.33939

>  <SCORE.INTRA.VDW.0>
-1.75542

>  <SCORE.INTRA.norm>
-0.218701

>  <SCORE.RESTR>
0.0883305

>  <SCORE.RESTR.CAVITY>
0.0883305

>  <SCORE.RESTR.norm>
0.00284937

>  <SCORE.SYSTEM>
0

>  <SCORE.SYSTEM.CONST>
0

>  <SCORE.SYSTEM.DIHEDRAL>
0

>  <SCORE.SYSTEM.SOLV>
0

>  <SCORE.SYSTEM.norm>
0

>  <SCORE.heavy>
31

>  <SCORE.norm>
-1.20122

>  <RMSD>
8.234

$$$$
1byj cryst
 OpenBabel11021811383D
libRbt.so/2013.1/901 2013/11/27
 31 33  0  0  0  0  0  0  0  0999 V2000
    4.1004    8.9218   -2.9573 C   0  0  1  0  0  0  0  0  0  0  0  0
    4.5629    8.3295   -1.7013 O   0  0  0  0  0  0  0  0  0  0  0  0
    4.0289    7.0320   -1.3012 C   0  0  2  0  0  0  0  0  0  0  0  0
    4.4913    5.9692   -2.1920 O   0  0  0  0  0  0  0  0  0  0  0  0
    2.4717    7.1016   -1.2745 C   0  0  2  0  0  0  0  0  0  0  0  0
    1.8386    5.8283   -0.8787 N   0  3  0  0  0  0  0  0  0  0  0  0
    1.9362    7.5656   -2.6536 C   0  0  0  0  0  0  0  0  0  0  0  0
    2.5501    8.9142   -3.0587 C   0  0  0  0  0  0  0  0  0  0  0  0
    4.6083   10.3710   -3.0562 C   0  0  0  0  0  0  0  0  0  0  0  0
    4.3438   11.0055   -4.3542 N   0  3  0  0  0  0  0  0  0  0  0  0
    6.3170    5.1007   -3.6001 C   0  0  1  0  0  0  0  0  0  0  0  0
    7.7768    4.5857   -3.6223 C   0  0  0  0  0  0  0  0  0  0  0  0
    7.9520    3.4054   -2.6294 C   0  0  1  0  0  0  0  0  0  0  0  0
    9.3257    2.8745   -2.7176 N   0  3  0  0  0  0  0  0  0  0  0  0
    7.5966    3.8598   -1.1841 C   0  0  1  0  0  0  0  0  0  0  0  0
    6.1800    4.4832   -1.1134 C   0  0  1  0  0  0  0  0  0  0  0  0
    6.0338    5.0104    0.1968 O   0  0  0  0  0  0  0  0  0  0  0  0
    5.9055    5.5983   -2.1757 C   0  0  2  0  0  0  0  0  0  0  0  0
    6.1356    6.1504   -4.6182 N   0  3  0  0  0  0  0  0  0  0  0  0
    9.0480    4.4433    1.8031 C   0  0  0  0  0  0  0  0  0  0  0  0
    8.9731    3.6404    3.1249 C   0  0  2  0  0  0  0  0  0  0  0  0
   10.3156    3.3630    3.5208 O   0  0  0  0  0  0  0  0  0  0  0  0
    8.1714    2.3061    2.8832 C   0  0  1  0  0  0  0  0  0  0  0  0
    8.6595    1.5226    1.6176 C   0  0  2  0  0  0  0  0  0  0  0  0
    8.8760    2.4262    0.3773 C   0  0  1  0  0  0  0  0  0  0  0  0
    7.6122    2.7249   -0.2718 O   0  0  0  0  0  0  0  0  0  0  0  0
    9.6046    3.6354    0.7320 O   0  0  0  0  0  0  0  0  0  0  0  0
    7.7562    0.4758    1.2720 O   0  0  0  0  0  0  0  0  0  0  0  0
    8.2490    1.4415    4.1018 N   0  3  0  0  0  0  0  0  0  0  0  0
    7.3448    1.7768    5.2207 C   0  0  0  0  0  0  0  0  0  0  0  0
    8.3482    4.5426    4.2175 C   0  0  0  0  0  0  0  0  0  0  0  0
  1  8  1  0  0  0  0
  1  9  1  1  0  0  0
  1  2  1  0  0  0  0
  2  3  1  0  0  0  0
  3  5  1  0  0  0  0
  3  4  1  6  0  0  0
  5  7  1  0  0  0  0
  5  6  1  6  0  0  0
  7  8  1  0  0  0  0
  9 10  1  0  0  0  0
 11 12  1  0  0  0  0
 11 18  1  0  0  0  0
 11 19  1  6  0  0  0
 12 13  1  0  0  0  0
 13 15  1  0  0  0  0
 13 14  1  1  0  0  0
 15 16  1  0  0  0  0
 15 26  1  1  0  0  0
 16 18  1  0  0  0  0
 16 17  1  1  0  0  0
 18  4  1  6  0  0  0
 20 21  1  0  0  0  0
 20 27  1  0  0  0  0
 21 31  1  1  0  0  0
 21 23  1  0  0  0  0
 21 22  1  0  0  0  0
 23 24  1  0  0  0  0
 23 29  1  1  0  0  0
 24 25  1  0  0  0  0
 24 28  1  6  0  0  0
 25 27  1  0  0  0  0
 25 26  1  1  0  0  0
 29 30  1  0  0  0  0
M  CHG  5   6   1  10   1  14   1  19   1  29   1
M  END
>  <CHROM.1>
172.73586966,68.32786487,-149.38900449,59.88927822,-172.10284809,58.20507156
71.15629200,89.87047132,62.89324661,56.20170245,-159.26304970,-66.18277906
162.09263330,6.50071249,4.97209749,-0.51860187,2.32135082,0.71744865,-1.31022561

>  <Name>
1byj cryst

>  <RI>
0

>  <Rbt.Current_Directory>
/home/itssahil/PROJECTS/Mol_Feturizer/New_Systems/rnas/1byj

>  <Rbt.Executable>
rbdock ($Id: //depot/dev/client3/rdock/2013.1/src/exe/rbdock.cxx#4 $)

>  <Rbt.Library>
libRbt.so (2013.1, Build901 2013/11/27)

>  <Rbt.Parameter_File>
/export/apps/rDock/src/rDock_2013.1_src/data/scripts/dock_solv.prm

>  <Rbt.Receptor>
prm/pocket_docking_5.prm

>  <SCORE>
-26.3956

>  <SCORE.INTER>
-20.0126

>  <SCORE.INTER.CONST>
1

>  <SCORE.INTER.POLAR>
-3.45349

>  <SCORE.INTER.ROT>
6

>  <SCORE.INTER.SOLV>
23.6633

>  <SCORE.INTER.VDW>
-17.3178

>  <SCORE.INTER.norm>
-0.645566

>  <SCORE.INTRA>
-6.38304

>  <SCORE.INTRA.DIHEDRAL>
-7.16042

>  <SCORE.INTRA.DIHEDRAL.0>
18.4149

>  <SCORE.INTRA.POLAR>
-0.0804149

>  <SCORE.INTRA.POLAR.0>
0

>  <SCORE.INTRA.REPUL>
-0.092687

>  <SCORE.INTRA.REPUL.0>
0.092687

>  <SCORE.INTRA.SOLV>
-2.84388

>  <SCORE.INTRA.SOLV.lig_0>
-120.37

>  <SCORE.INTRA.VDW>
-0.64404

>  <SCORE.INTRA.VDW.0>
-1.75542

>  <SCORE.INTRA.norm>
-0.205904

>  <SCORE.RESTR>
0

>  <SCORE.RESTR.CAVITY>
0

>  <SCORE.RESTR.norm>
0

>  <SCORE.SYSTEM>
0

>  <SCORE.SYSTEM.CONST>
0

>  <SCORE.SYSTEM.DIHEDRAL>
0

>  <SCORE.SYSTEM.SOLV>
0

>  <SCORE.SYSTEM.norm>
0

>  <SCORE.heavy>
31

>  <SCORE.norm>
-0.851471

>  <RMSD>
8.251

$$$$
1byj cryst
 OpenBabel11021811383D
libRbt.so/2013.1/901 2013/11/27
 31 33  0  0  0  0  0  0  0  0999 V2000
    2.9120   11.2495    1.6582 C   0  0  1  0  0  0  0  0  0  0  0  0
    1.5548   11.2137    1.1115 O   0  0  0  0  0  0  0  0  0  0  0  0
    1.2943   10.3850   -0.0607 C   0  0  2  0  0  0  0  0  0  0  0  0
    1.4064    8.9629    0.2581 O   0  0  0  0  0  0  0  0  0  0  0  0
    2.2798   10.7819   -1.2016 C   0  0  2  0  0  0  0  0  0  0  0  0
    2.0911    9.9928   -2.4348 N   0  3  0  0  0  0  0  0  0  0  0  0
    3.7438   10.6657   -0.7045 C   0  0  0  0  0  0  0  0  0  0  0  0
    3.9692   11.5197    0.5522 C   0  0  0  0  0  0  0  0  0  0  0  0
    3.0031   12.3524    2.7276 C   0  0  0  0  0  0  0  0  0  0  0  0
    2.9380   11.8496    4.1060 N   0  3  0  0  0  0  0  0  0  0  0  0
   -0.4995    7.4850   -0.2458 C   0  0  1  0  0  0  0  0  0  0  0  0
   -1.0328    6.3587   -1.1643 C   0  0  0  0  0  0  0  0  0  0  0  0
   -0.0663    5.1440   -1.1522 C   0  0  1  0  0  0  0  0  0  0  0  0
   -0.6248    4.0496   -1.9689 N   0  3  0  0  0  0  0  0  0  0  0  0
    1.3458    5.5741   -1.6448 C   0  0  1  0  0  0  0  0  0  0  0  0
    1.8951    6.7715   -0.8296 C   0  0  1  0  0  0  0  0  0  0  0  0
    3.0944    7.1819   -1.4694 O   0  0  0  0  0  0  0  0  0  0  0  0
    0.9108    7.9811   -0.7053 C   0  0  2  0  0  0  0  0  0  0  0  0
   -1.4726    8.5897   -0.1831 N   0  3  0  0  0  0  0  0  0  0  0  0
    4.7423    3.4238   -2.9839 C   0  0  0  0  0  0  0  0  0  0  0  0
    4.8965    1.9518   -2.5288 C   0  0  2  0  0  0  0  0  0  0  0  0
    4.7648    1.1393   -3.6944 O   0  0  0  0  0  0  0  0  0  0  0  0
    3.7769    1.6087   -1.4752 C   0  0  1  0  0  0  0  0  0  0  0  0
    2.3472    2.0493   -1.9398 C   0  0  2  0  0  0  0  0  0  0  0  0
    2.3064    3.4763   -2.5430 C   0  0  1  0  0  0  0  0  0  0  0  0
    2.2959    4.4807   -1.4948 O   0  0  0  0  0  0  0  0  0  0  0  0
    3.4014    3.6795   -3.4803 O   0  0  0  0  0  0  0  0  0  0  0  0
    1.4059    1.9741   -0.8722 O   0  0  0  0  0  0  0  0  0  0  0  0
    3.8040    0.1450   -1.1668 N   0  3  0  0  0  0  0  0  0  0  0  0
    3.5954   -0.2476    0.2418 C   0  0  0  0  0  0  0  0  0  0  0  0
    6.3327    1.7492   -1.9864 C   0  0  0  0  0  0  0  0  0  0  0  0
  1  8  1  0  0  0  0
  1  9  1  1  0  0  0
  1  2  1  0  0  0  0
  2  3  1  0  0  0  0
  3  5  1  0  0  0  0
  3  4  1  1  0  0  0
  5  7  1  0  0  0  0
  5  6  1  6  0  0  0
  7  8  1  0  0  0  0
  9 10  1  0  0  0  0
 11 12  1  0  0  0  0
 11 18  1  0  0  0  0
 11 19  1  6  0  0  0
 12 13  1  0  0  0  0
 13 15  1  0  0  0  0
 13 14  1  6  0  0  0
 15 16  1  0  0  0  0
 15 26  1  1  0  0  0
 16 18  1  0  0  0  0
 16 17  1  6  0  0  0
 18  4  1  1  0  0  0
 20 21  1  0  0  0  0
 20 27  1  0  0  0  0
 21 31  1  1  0  0  0
 21 23  1  0  0  0  0
 21 22  1  0  0  0  0
 23 24  1  0  0  0  0
 23 29  1  6  0  0  0
 24 25  1  0  0  0  0
 24 28  1  1  0  0  0
 25 27  1  0  0  0  0
 25 26  1  1  0  0  0
 29 30  1  0  0  0  0
M  CHG  5   6   1  10   1  14   1  19   1  29   1
M  END
>  <CHROM.1>
101.15494930,167.31830690,-100.18434816,-68.83228219,-176.57551314,179.30235816
-44.28793577,82.14091351,-56.74912541,-64.98626455,-98.90051886,-62.62959690
-134.83534277,2.32489786,6.21753391,-0.87828133,-1.72386338,0.07294564,-2.82437855

>  <Name>
1byj cryst

>  <RI>
0

>  <Rbt.Current_Directory>
/home/itssahil/PROJECTS/Mol_Feturizer/New_Systems/rnas/1byj

>  <Rbt.Executable>
rbdock ($Id: //depot/dev/client3/rdock/2013.1/src/exe/rbdock.cxx#4 $)

>  <Rbt.Library>
libRbt.so (2013.1, Build901 2013/11/27)

>  <Rbt.Parameter_File>
/export/apps/rDock/src/rDock_2013.1_src/data/scripts/dock_solv.prm

>  <Rbt.Receptor>
prm/pocket_docking_8.prm

>  <SCORE>
-38.9971

>  <SCORE.INTER>
-31.9732

>  <SCORE.INTER.CONST>
1

>  <SCORE.INTER.POLAR>
-5.2225

>  <SCORE.INTER.ROT>
6

>  <SCORE.INTER.SOLV>
22.3178

>  <SCORE.INTER.VDW>
-18.9464

>  <SCORE.INTER.norm>
-1.03139

>  <SCORE.INTRA>
-7.02387

>  <SCORE.INTRA.DIHEDRAL>
4.04975

>  <SCORE.INTRA.DIHEDRAL.0>
18.4149

>  <SCORE.INTRA.POLAR>
-2.32944

>  <SCORE.INTRA.POLAR.0>
0

>  <SCORE.INTRA.REPUL>
-0.092687

>  <SCORE.INTRA.REPUL.0>
0.092687

>  <SCORE.INTRA.SOLV>
2.39721

>  <SCORE.INTRA.SOLV.lig_0>
-120.37

>  <SCORE.INTRA.VDW>
-1.86382

>  <SCORE.INTRA.VDW.0>
-1.75542

>  <SCORE.INTRA.norm>
-0.226576

>  <SCORE.RESTR>
0

>  <SCORE.RESTR.CAVITY>
0

>  <SCORE.RESTR.norm>
0

>  <SCORE.SYSTEM>
0

>  <SCORE.SYSTEM.CONST>
0

>  <SCORE.SYSTEM.DIHEDRAL>
0

>  <SCORE.SYSTEM.SOLV>
0

>  <SCORE.SYSTEM.norm>
0

>  <SCORE.heavy>
31

>  <SCORE.norm>
-1.25797

>  <RMSD>
8.253

$$$$
1byj cryst
 OpenBabel11021811383D
libRbt.so/2013.1/901 2013/11/27
 31 33  0  0  0  0  0  0  0  0999 V2000
    7.8070    6.9983   -4.0750 C   0  0  1  0  0  0  0  0  0  0  0  0
    6.9343    7.3566   -2.9561 O   0  0  0  0  0  0  0  0  0  0  0  0
    5.6680    8.0227   -3.2417 C   0  0  2  0  0  0  0  0  0  0  0  0
    4.7383    7.1260   -3.9260 O   0  0  0  0  0  0  0  0  0  0  0  0
    5.9387    9.3019   -4.0906 C   0  0  2  0  0  0  0  0  0  0  0  0
    4.7100   10.0459   -4.4305 N   0  3  0  0  0  0  0  0  0  0  0  0
    6.7192    8.9308   -5.3779 C   0  0  0  0  0  0  0  0  0  0  0  0
    8.0255    8.1971   -5.0389 C   0  0  0  0  0  0  0  0  0  0  0  0
    9.1683    6.5296   -3.5316 C   0  0  0  0  0  0  0  0  0  0  0  0
   10.3079    6.9105   -4.3763 N   0  3  0  0  0  0  0  0  0  0  0  0
    4.2957    5.9390   -1.8128 C   0  0  1  0  0  0  0  0  0  0  0  0
    4.1366    4.5563   -1.1351 C   0  0  0  0  0  0  0  0  0  0  0  0
    5.3908    3.6780   -1.3908 C   0  0  1  0  0  0  0  0  0  0  0  0
    5.2595    2.3943   -0.6755 N   0  3  0  0  0  0  0  0  0  0  0  0
    5.6022    3.4725   -2.9188 C   0  0  1  0  0  0  0  0  0  0  0  0
    5.6662    4.8240   -3.6735 C   0  0  1  0  0  0  0  0  0  0  0  0
    5.6874    4.5143   -5.0590 O   0  0  0  0  0  0  0  0  0  0  0  0
    4.4863    5.8020   -3.3590 C   0  0  2  0  0  0  0  0  0  0  0  0
    3.1481    6.8009   -1.4789 N   0  3  0  0  0  0  0  0  0  0  0  0
    8.8656    1.4475   -1.2995 C   0  0  0  0  0  0  0  0  0  0  0  0
   10.1616    1.2885   -2.1317 C   0  0  2  0  0  0  0  0  0  0  0  0
   11.1765    2.0432   -1.4709 O   0  0  0  0  0  0  0  0  0  0  0  0
    9.9180    1.8308   -3.5904 C   0  0  1  0  0  0  0  0  0  0  0  0
    9.2453    3.2454   -3.6103 C   0  0  2  0  0  0  0  0  0  0  0  0
    8.0585    3.3787   -2.6225 C   0  0  1  0  0  0  0  0  0  0  0  0
    6.8569    2.7788   -3.1737 O   0  0  0  0  0  0  0  0  0  0  0  0
    8.3966    2.8221   -1.3206 O   0  0  0  0  0  0  0  0  0  0  0  0
    8.7962    3.5908   -4.9180 O   0  0  0  0  0  0  0  0  0  0  0  0
   11.2096    1.8499   -4.3453 N   0  3  0  0  0  0  0  0  0  0  0  0
   11.3877    0.8266   -5.3955 C   0  0  0  0  0  0  0  0  0  0  0  0
   10.5950   -0.1977   -2.0937 C   0  0  0  0  0  0  0  0  0  0  0  0
  1  8  1  0  0  0  0
  1  9  1  1  0  0  0
  1  2  1  0  0  0  0
  2  3  1  0  0  0  0
  3  5  1  0  0  0  0
  3  4  1  6  0  0  0
  5  7  1  0  0  0  0
  5  6  1  6  0  0  0
  7  8  1  0  0  0  0
  9 10  1  0  0  0  0
 11 12  1  0  0  0  0
 11 18  1  0  0  0  0
 11 19  1  6  0  0  0
 12 13  1  0  0  0  0
 13 15  1  0  0  0  0
 13 14  1  1  0  0  0
 15 16  1  0  0  0  0
 15 26  1  1  0  0  0
 16 18  1  0  0  0  0
 16 17  1  6  0  0  0
 18  4  1  1  0  0  0
 20 21  1  0  0  0  0
 20 27  1  0  0  0  0
 21 31  1  6  0  0  0
 21 23  1  0  0  0  0
 21 22  1  0  0  0  0
 23 24  1  0  0  0  0
 23 29  1  1  0  0  0
 24 25  1  0  0  0  0
 24 28  1  6  0  0  0
 25 27  1  0  0  0  0
 25 26  1  6  0  0  0
 29 30  1  0  0  0  0
M  CHG  5   6   1  10   1  14   1  19   1  29   1
M  END
>  <CHROM.1>
-144.75899070,50.78069778,43.92583720,177.18016299,-174.43589594,-50.22969125
-168.20174188,-55.52542878,-75.68861383,60.95005543,-131.74169397,-175.02621859
-141.38861722,7.38044909,4.72276418,-3.18506012,-2.30188241,-0.42147640,2.67970361

>  <Name>
1byj cryst

>  <RI>
0

>  <Rbt.Current_Directory>
/home/itssahil/PROJECTS/Mol_Feturizer/New_Systems/rnas/1byj

>  <Rbt.Executable>
rbdock ($Id: //depot/dev/client3/rdock/2013.1/src/exe/rbdock.cxx#4 $)

>  <Rbt.Library>
libRbt.so (2013.1, Build901 2013/11/27)

>  <Rbt.Parameter_File>
/export/apps/rDock/src/rDock_2013.1_src/data/scripts/dock_solv.prm

>  <Rbt.Receptor>
prm/blind_docking_100.prm

>  <SCORE>
-20.7168

>  <SCORE.INTER>
-28.9249

>  <SCORE.INTER.CONST>
1

>  <SCORE.INTER.POLAR>
-5.2613

>  <SCORE.INTER.ROT>
6

>  <SCORE.INTER.SOLV>
34.4997

>  <SCORE.INTER.VDW>
-20.8455

>  <SCORE.INTER.norm>
-0.933063

>  <SCORE.INTRA>
-2.51754

>  <SCORE.INTRA.DIHEDRAL>
-2.83744

>  <SCORE.INTRA.DIHEDRAL.0>
18.4149

>  <SCORE.INTRA.POLAR>
-0.261589

>  <SCORE.INTRA.POLAR.0>
0

>  <SCORE.INTRA.REPUL>
-0.092687

>  <SCORE.INTRA.REPUL.0>
0.092687

>  <SCORE.INTRA.SOLV>
0.380322

>  <SCORE.INTRA.SOLV.lig_0>
-120.37

>  <SCORE.INTRA.VDW>
0.0638569

>  <SCORE.INTRA.VDW.0>
-1.75542

>  <SCORE.INTRA.norm>
-0.0812109

>  <SCORE.RESTR>
10.7257

>  <SCORE.RESTR.CAVITY>
10.7257

>  <SCORE.RESTR.norm>
0.34599

>  <SCORE.SYSTEM>
0

>  <SCORE.SYSTEM.CONST>
0

>  <SCORE.SYSTEM.DIHEDRAL>
0

>  <SCORE.SYSTEM.SOLV>
0

>  <SCORE.SYSTEM.norm>
0

>  <SCORE.heavy>
31

>  <SCORE.norm>
-0.668284

>  <RMSD>
8.254

$$$$
1byj cryst
 OpenBabel11021811383D
libRbt.so/2013.1/901 2013/11/27
 31 33  0  0  0  0  0  0  0  0999 V2000
    2.8936    7.9673   -2.8956 C   0  0  1  0  0  0  0  0  0  0  0  0
    2.6832    6.9151   -1.9003 O   0  0  0  0  0  0  0  0  0  0  0  0
    1.3349    6.3910   -1.7104 C   0  0  2  0  0  0  0  0  0  0  0  0
    0.8885    5.6360   -2.8798 O   0  0  0  0  0  0  0  0  0  0  0  0
    0.3628    7.5698   -1.4010 C   0  0  2  0  0  0  0  0  0  0  0  0
   -1.0324    7.1347   -1.1928 N   0  3  0  0  0  0  0  0  0  0  0  0
    0.4354    8.6297   -2.5303 C   0  0  0  0  0  0  0  0  0  0  0  0
    1.8749    9.1282   -2.7274 C   0  0  0  0  0  0  0  0  0  0  0  0
    4.3224    8.5221   -2.7584 C   0  0  0  0  0  0  0  0  0  0  0  0
    5.1270    8.3993   -3.9810 N   0  3  0  0  0  0  0  0  0  0  0  0
    0.1856    3.2875   -2.6334 C   0  0  1  0  0  0  0  0  0  0  0  0
    0.6396    1.8082   -2.6792 C   0  0  0  0  0  0  0  0  0  0  0  0
    1.8318    1.5754   -1.7126 C   0  0  1  0  0  0  0  0  0  0  0  0
    2.2033    0.1475   -1.7080 N   0  3  0  0  0  0  0  0  0  0  0  0
    3.0306    2.4861   -2.1065 C   0  0  1  0  0  0  0  0  0  0  0  0
    2.6153    3.9768   -2.1805 C   0  0  1  0  0  0  0  0  0  0  0  0
    3.7287    4.6824   -2.7083 O   0  0  0  0  0  0  0  0  0  0  0  0
    1.3423    4.2560   -3.0458 C   0  0  2  0  0  0  0  0  0  0  0  0
   -1.0096    3.4759   -3.4744 N   0  3  0  0  0  0  0  0  0  0  0  0
    7.0894    2.0540   -1.6199 C   0  0  0  0  0  0  0  0  0  0  0  0
    7.6911    1.6389   -0.2548 C   0  0  2  0  0  0  0  0  0  0  0  0
    8.2778    0.3504   -0.4325 O   0  0  0  0  0  0  0  0  0  0  0  0
    6.5491    1.5919    0.8291 C   0  0  1  0  0  0  0  0  0  0  0  0
    5.2878    0.7952    0.3513 C   0  0  2  0  0  0  0  0  0  0  0  0
    4.8477    1.1440   -1.0931 C   0  0  1  0  0  0  0  0  0  0  0  0
    4.0963    2.3859   -1.1191 O   0  0  0  0  0  0  0  0  0  0  0  0
    5.9907    1.1806   -1.9937 O   0  0  0  0  0  0  0  0  0  0  0  0
    4.1828    0.9931    1.2294 O   0  0  0  0  0  0  0  0  0  0  0  0
    7.0843    1.0186    2.1032 N   0  3  0  0  0  0  0  0  0  0  0  0
    7.9065    1.9101    2.9465 C   0  0  0  0  0  0  0  0  0  0  0  0
    8.8351    2.6203    0.1008 C   0  0  0  0  0  0  0  0  0  0  0  0
  1  8  1  0  0  0  0
  1  9  1  1  0  0  0
  1  2  1  0  0  0  0
  2  3  1  0  0  0  0
  3  5  1  0  0  0  0
  3  4  1  6  0  0  0
  5  7  1  0  0  0  0
  5  6  1  6  0  0  0
  7  8  1  0  0  0  0
  9 10  1  0  0  0  0
 11 12  1  0  0  0  0
 11 18  1  0  0  0  0
 11 19  1  6  0  0  0
 12 13  1  0  0  0  0
 13 15  1  0  0  0  0
 13 14  1  6  0  0  0
 15 16  1  0  0  0  0
 15 26  1  1  0  0  0
 16 18  1  0  0  0  0
 16 17  1  6  0  0  0
 18  4  1  1  0  0  0
 20 21  1  0  0  0  0
 20 27  1  0  0  0  0
 21 31  1  1  0  0  0
 21 23  1  0  0  0  0
 21 22  1  0  0  0  0
 23 24  1  0  0  0  0
 23 29  1  1  0  0  0
 24 25  1  0  0  0  0
 24 28  1  1  0  0  0
 25 27  1  0  0  0  0
 25 26  1  1  0  0  0
 29 30  1  0  0  0  0
M  CHG  5   6   1  10   1  14   1  19   1  29   1
M  END
>  <CHROM.1>
121.47809824,80.23040146,102.38968463,85.84209055,42.17238929,73.03615601
-165.49154315,71.53845769,-167.03389338,60.24872511,-161.47766610,-63.37246114
-146.38961899,3.60061936,3.84120285,-1.45450773,-2.32845353,0.27970172,2.92743767

>  <Name>
1byj cryst

>  <RI>
0

>  <Rbt.Current_Directory>
/home/itssahil/PROJECTS/Mol_Feturizer/New_Systems/rnas/1byj

>  <Rbt.Executable>
rbdock ($Id: //depot/dev/client3/rdock/2013.1/src/exe/rbdock.cxx#4 $)

>  <Rbt.Library>
libRbt.so (2013.1, Build901 2013/11/27)

>  <Rbt.Parameter_File>
/export/apps/rDock/src/rDock_2013.1_src/data/scripts/dock_solv.prm

>  <Rbt.Receptor>
prm/pocket_docking_7.prm

>  <SCORE>
-36.4917

>  <SCORE.INTER>
-37.0396

>  <SCORE.INTER.CONST>
1

>  <SCORE.INTER.POLAR>
-5.97313

>  <SCORE.INTER.ROT>
6

>  <SCORE.INTER.SOLV>
23.1187

>  <SCORE.INTER.VDW>
-20.0889

>  <SCORE.INTER.norm>
-1.19482

>  <SCORE.INTRA>
0.547901

>  <SCORE.INTRA.DIHEDRAL>
4.22794

>  <SCORE.INTRA.DIHEDRAL.0>
18.4149

>  <SCORE.INTRA.POLAR>
-0.989695

>  <SCORE.INTRA.POLAR.0>
0

>  <SCORE.INTRA.REPUL>
-0.0608439

>  <SCORE.INTRA.REPUL.0>
0.092687

>  <SCORE.INTRA.SOLV>
-1.18551

>  <SCORE.INTRA.SOLV.lig_0>
-120.37

>  <SCORE.INTRA.VDW>
2.69587

>  <SCORE.INTRA.VDW.0>
-1.75542

>  <SCORE.INTRA.norm>
0.0176742

>  <SCORE.RESTR>
0

>  <SCORE.RESTR.CAVITY>
0

>  <SCORE.RESTR.norm>
0

>  <SCORE.SYSTEM>
0

>  <SCORE.SYSTEM.CONST>
0

>  <SCORE.SYSTEM.DIHEDRAL>
0

>  <SCORE.SYSTEM.SOLV>
0

>  <SCORE.SYSTEM.norm>
0

>  <SCORE.heavy>
31

>  <SCORE.norm>
-1.17715

>  <RMSD>
8.279

$$$$
1byj cryst
 OpenBabel11021811383D
libRbt.so/2013.1/901 2013/11/27
 31 33  0  0  0  0  0  0  0  0999 V2000
    2.5080   11.7877   -1.6343 C   0  0  1  0  0  0  0  0  0  0  0  0
    3.3339   10.6730   -1.1679 O   0  0  0  0  0  0  0  0  0  0  0  0
    3.0775   10.1186    0.1571 C   0  0  2  0  0  0  0  0  0  0  0  0
    1.7885    9.4310    0.2052 O   0  0  0  0  0  0  0  0  0  0  0  0
    3.1416   11.2618    1.2151 C   0  0  2  0  0  0  0  0  0  0  0  0
    2.8933   10.7945    2.5931 N   0  3  0  0  0  0  0  0  0  0  0  0
    2.1469   12.3905    0.8398 C   0  0  0  0  0  0  0  0  0  0  0  0
    2.4227   12.9210   -0.5751 C   0  0  0  0  0  0  0  0  0  0  0  0
    3.1018   12.3536   -2.9364 C   0  0  0  0  0  0  0  0  0  0  0  0
    2.2399   13.3386   -3.6029 N   0  3  0  0  0  0  0  0  0  0  0  0
    0.2421    7.5716   -0.2659 C   0  0  1  0  0  0  0  0  0  0  0  0
   -0.0050    6.3018   -1.1163 C   0  0  0  0  0  0  0  0  0  0  0  0
    1.1783    5.3083   -0.9661 C   0  0  1  0  0  0  0  0  0  0  0  0
    0.8943    4.0714   -1.7187 N   0  3  0  0  0  0  0  0  0  0  0  0
    2.5054    5.9772   -1.4275 C   0  0  1  0  0  0  0  0  0  0  0  0
    2.7603    7.3127   -0.6848 C   0  0  1  0  0  0  0  0  0  0  0  0
    3.8917    7.9099   -1.3007 O   0  0  0  0  0  0  0  0  0  0  0  0
    1.5526    8.3069   -0.6996 C   0  0  2  0  0  0  0  0  0  0  0  0
   -0.9305    8.4614   -0.3332 N   0  3  0  0  0  0  0  0  0  0  0  0
    5.4367    5.7772   -3.5264 C   0  0  0  0  0  0  0  0  0  0  0  0
    6.7423    4.9783   -3.2927 C   0  0  2  0  0  0  0  0  0  0  0  0
    6.8851    4.0817   -4.3935 O   0  0  0  0  0  0  0  0  0  0  0  0
    6.6374    4.1880   -1.9341 C   0  0  1  0  0  0  0  0  0  0  0  0
    5.2967    3.3897   -1.7953 C   0  0  2  0  0  0  0  0  0  0  0  0
    4.0465    4.2053   -2.2120 C   0  0  1  0  0  0  0  0  0  0  0  0
    3.6406    5.1083   -1.1502 O   0  0  0  0  0  0  0  0  0  0  0  0
    4.2745    4.9079   -3.4663 O   0  0  0  0  0  0  0  0  0  0  0  0
    5.1109    2.9098   -0.4663 O   0  0  0  0  0  0  0  0  0  0  0  0
    7.8133    3.2745   -1.7882 N   0  3  0  0  0  0  0  0  0  0  0  0
    8.0015    2.6284   -0.4733 C   0  0  0  0  0  0  0  0  0  0  0  0
    7.9388    5.9603   -3.3409 C   0  0  0  0  0  0  0  0  0  0  0  0
  1  8  1  0  0  0  0
  1  9  1  6  0  0  0
  1  2  1  0  0  0  0
  2  3  1  0  0  0  0
  3  5  1  0  0  0  0
  3  4  1  6  0  0  0
  5  7  1  0  0  0  0
  5  6  1  1  0  0  0
  7  8  1  0  0  0  0
  9 10  1  0  0  0  0
 11 12  1  0  0  0  0
 11 18  1  0  0  0  0
 11 19  1  6  0  0  0
 12 13  1  0  0  0  0
 13 15  1  0  0  0  0
 13 14  1  6  0  0  0
 15 16  1  0  0  0  0
 15 26  1  1  0  0  0
 16 18  1  0  0  0  0
 16 17  1  6  0  0  0
 18  4  1  1  0  0  0
 20 21  1  0  0  0  0
 20 27  1  0  0  0  0
 21 31  1  1  0  0  0
 21 23  1  0  0  0  0
 21 22  1  0  0  0  0
 23 24  1  0  0  0  0
 23 29  1  6  0  0  0
 24 25  1  0  0  0  0
 24 28  1  1  0  0  0
 25 27  1  0  0  0  0
 25 26  1  1  0  0  0
 29 30  1  0  0  0  0
M  CHG  5   6   1  10   1  14   1  19   1  29   1
M  END
>  <CHROM.1>
171.04578726,59.21286519,168.79404233,-73.44616969,-59.09442161,70.01555021
179.43460318,92.03301254,-58.17305618,175.67641433,-69.14677822,-167.84762078
177.66361289,3.57247316,7.32793009,-1.33868691,-2.10291166,-0.38201398,-3.13420500

>  <Name>
1byj cryst

>  <RI>
0

>  <Rbt.Current_Directory>
/home/itssahil/PROJECTS/Mol_Feturizer/New_Systems/rnas/1byj

>  <Rbt.Executable>
rbdock ($Id: //depot/dev/client3/rdock/2013.1/src/exe/rbdock.cxx#4 $)

>  <Rbt.Library>
libRbt.so (2013.1, Build901 2013/11/27)

>  <Rbt.Parameter_File>
/export/apps/rDock/src/rDock_2013.1_src/data/scripts/dock_solv.prm

>  <Rbt.Receptor>
prm/pocket_docking_7.prm

>  <SCORE>
-31.0419

>  <SCORE.INTER>
-23.2752

>  <SCORE.INTER.CONST>
1

>  <SCORE.INTER.POLAR>
-4.15708

>  <SCORE.INTER.ROT>
6

>  <SCORE.INTER.SOLV>
16.9774

>  <SCORE.INTER.VDW>
-14.919

>  <SCORE.INTER.norm>
-0.750812

>  <SCORE.INTRA>
-7.76671

>  <SCORE.INTRA.DIHEDRAL>
-11.4173

>  <SCORE.INTRA.DIHEDRAL.0>
18.4149

>  <SCORE.INTRA.POLAR>
-0.0123571

>  <SCORE.INTRA.POLAR.0>
0

>  <SCORE.INTRA.REPUL>
-0.0393551

>  <SCORE.INTRA.REPUL.0>
0.092687

>  <SCORE.INTRA.SOLV>
-3.29913

>  <SCORE.INTRA.SOLV.lig_0>
-120.37

>  <SCORE.INTRA.VDW>
-0.169686

>  <SCORE.INTRA.VDW.0>
-1.75542

>  <SCORE.INTRA.norm>
-0.250539

>  <SCORE.RESTR>
0

>  <SCORE.RESTR.CAVITY>
0

>  <SCORE.RESTR.norm>
0

>  <SCORE.SYSTEM>
0

>  <SCORE.SYSTEM.CONST>
0

>  <SCORE.SYSTEM.DIHEDRAL>
0

>  <SCORE.SYSTEM.SOLV>
0

>  <SCORE.SYSTEM.norm>
0

>  <SCORE.heavy>
31

>  <SCORE.norm>
-1.00135

>  <RMSD>
8.337

$$$$
1byj cryst
 OpenBabel11021811383D
libRbt.so/2013.1/901 2013/11/27
 31 33  0  0  0  0  0  0  0  0999 V2000
    6.7006   10.7068   -4.2228 C   0  0  1  0  0  0  0  0  0  0  0  0
    7.1994    9.3885   -4.6171 O   0  0  0  0  0  0  0  0  0  0  0  0
    7.3696    8.3683   -3.5881 C   0  0  2  0  0  0  0  0  0  0  0  0
    6.0808    7.9304   -3.0553 O   0  0  0  0  0  0  0  0  0  0  0  0
    8.2827    8.9270   -2.4547 C   0  0  2  0  0  0  0  0  0  0  0  0
    8.5132    7.9606   -1.3630 N   0  3  0  0  0  0  0  0  0  0  0  0
    7.6884   10.2445   -1.8935 C   0  0  0  0  0  0  0  0  0  0  0  0
    7.4868   11.2789   -3.0111 C   0  0  0  0  0  0  0  0  0  0  0  0
    6.8243   11.6763   -5.4114 C   0  0  0  0  0  0  0  0  0  0  0  0
    7.7820   11.2403   -6.4361 N   0  3  0  0  0  0  0  0  0  0  0  0
    4.4920    6.1481   -2.4472 C   0  0  1  0  0  0  0  0  0  0  0  0
    3.9500    4.7439   -2.8090 C   0  0  0  0  0  0  0  0  0  0  0  0
    5.1103    3.7151   -2.8800 C   0  0  1  0  0  0  0  0  0  0  0  0
    4.5715    2.3681   -3.1484 N   0  3  0  0  0  0  0  0  0  0  0  0
    6.1504    4.1491   -3.9531 C   0  0  1  0  0  0  0  0  0  0  0  0
    6.6574    5.5921   -3.7064 C   0  0  1  0  0  0  0  0  0  0  0  0
    7.4582    5.9378   -4.8268 O   0  0  0  0  0  0  0  0  0  0  0  0
    5.5266    6.6543   -3.5052 C   0  0  2  0  0  0  0  0  0  0  0  0
    3.3745    7.0941   -2.2810 N   0  3  0  0  0  0  0  0  0  0  0  0
    7.5923    2.8485   -0.9121 C   0  0  0  0  0  0  0  0  0  0  0  0
    8.7524    1.8365   -0.7455 C   0  0  2  0  0  0  0  0  0  0  0  0
    9.7720    2.4916    0.0078 O   0  0  0  0  0  0  0  0  0  0  0  0
    9.2869    1.4131   -2.1655 C   0  0  1  0  0  0  0  0  0  0  0  0
    9.5585    2.6374   -3.1043 C   0  0  2  0  0  0  0  0  0  0  0  0
    8.4242    3.6932   -3.0860 C   0  0  1  0  0  0  0  0  0  0  0  0
    7.3140    3.2741   -3.9223 O   0  0  0  0  0  0  0  0  0  0  0  0
    8.0005    3.9820   -1.7236 O   0  0  0  0  0  0  0  0  0  0  0  0
    9.7798    2.2233   -4.4500 O   0  0  0  0  0  0  0  0  0  0  0  0
   10.5205    0.5802   -2.0139 N   0  3  0  0  0  0  0  0  0  0  0  0
   10.9949   -0.1402   -3.2130 C   0  0  0  0  0  0  0  0  0  0  0  0
    8.2494    0.6421    0.1022 C   0  0  0  0  0  0  0  0  0  0  0  0
  1  8  1  0  0  0  0
  1  9  1  6  0  0  0
  1  2  1  0  0  0  0
  2  3  1  0  0  0  0
  3  5  1  0  0  0  0
  3  4  1  1  0  0  0
  5  7  1  0  0  0  0
  5  6  1  1  0  0  0
  7  8  1  0  0  0  0
  9 10  1  0  0  0  0
 11 12  1  0  0  0  0
 11 18  1  0  0  0  0
 11 19  1  6  0  0  0
 12 13  1  0  0  0  0
 13 15  1  0  0  0  0
 13 14  1  6  0  0  0
 15 16  1  0  0  0  0
 15 26  1  1  0  0  0
 16 18  1  0  0  0  0
 16 17  1  6  0  0  0
 18  4  1  1  0  0  0
 20 21  1  0  0  0  0
 20 27  1  0  0  0  0
 21 31  1  1  0  0  0
 21 23  1  0  0  0  0
 21 22  1  0  0  0  0
 23 24  1  0  0  0  0
 23 29  1  1  0  0  0
 24 25  1  0  0  0  0
 24 28  1  6  0  0  0
 25 27  1  0  0  0  0
 25 26  1  6  0  0  0
 29 30  1  0  0  0  0
M  CHG  5   6   1  10   1  14   1  19   1  29   1
M  END
>  <CHROM.1>
-19.80561194,102.26579979,158.39106609,-71.50490339,56.29264139,49.68648289
-179.22345855,-92.47474661,61.63426612,-61.89996643,-71.52094803,-157.59467623
177.48686371,7.42095695,5.45759196,-2.94515512,-1.80990464,-0.04141281,2.89810236

>  <Name>
1byj cryst

>  <RI>
0

>  <Rbt.Current_Directory>
/home/itssahil/PROJECTS/Mol_Feturizer/New_Systems/rnas/1byj

>  <Rbt.Executable>
rbdock ($Id: //depot/dev/client3/rdock/2013.1/src/exe/rbdock.cxx#4 $)

>  <Rbt.Library>
libRbt.so (2013.1, Build901 2013/11/27)

>  <Rbt.Parameter_File>
/export/apps/rDock/src/rDock_2013.1_src/data/scripts/dock_solv.prm

>  <Rbt.Receptor>
prm/blind_docking_100.prm

>  <SCORE>
-20.5998

>  <SCORE.INTER>
-32.5949

>  <SCORE.INTER.CONST>
1

>  <SCORE.INTER.POLAR>
-5.61163

>  <SCORE.INTER.ROT>
6

>  <SCORE.INTER.SOLV>
33.2387

>  <SCORE.INTER.VDW>
-21.704

>  <SCORE.INTER.norm>
-1.05145

>  <SCORE.INTRA>
0.926846

>  <SCORE.INTRA.DIHEDRAL>
0.979374

>  <SCORE.INTRA.DIHEDRAL.0>
18.4149

>  <SCORE.INTRA.POLAR>
0

>  <SCORE.INTRA.POLAR.0>
0

>  <SCORE.INTRA.REPUL>
-0.092687

>  <SCORE.INTRA.REPUL.0>
0.092687

>  <SCORE.INTRA.SOLV>
-1.86964

>  <SCORE.INTRA.SOLV.lig_0>
-120.37

>  <SCORE.INTRA.VDW>
1.83541

>  <SCORE.INTRA.VDW.0>
-1.75542

>  <SCORE.INTRA.norm>
0.0298983

>  <SCORE.RESTR>
11.0682

>  <SCORE.RESTR.CAVITY>
11.0682

>  <SCORE.RESTR.norm>
0.357039

>  <SCORE.SYSTEM>
0

>  <SCORE.SYSTEM.CONST>
0

>  <SCORE.SYSTEM.DIHEDRAL>
0

>  <SCORE.SYSTEM.SOLV>
0

>  <SCORE.SYSTEM.norm>
0

>  <SCORE.heavy>
31

>  <SCORE.norm>
-0.66451

>  <RMSD>
8.416

$$$$
1byj cryst
 OpenBabel11021811383D
libRbt.so/2013.1/901 2013/11/27
 31 33  0  0  0  0  0  0  0  0999 V2000
    1.5893    8.0761   -2.9627 C   0  0  1  0  0  0  0  0  0  0  0  0
    2.4502    7.3903   -1.9980 O   0  0  0  0  0  0  0  0  0  0  0  0
    1.8616    6.3713   -1.1355 C   0  0  2  0  0  0  0  0  0  0  0  0
    1.4614    5.1927   -1.9018 O   0  0  0  0  0  0  0  0  0  0  0  0
    0.6468    6.9814   -0.3723 C   0  0  2  0  0  0  0  0  0  0  0  0
   -0.0168    6.0196    0.5298 N   0  3  0  0  0  0  0  0  0  0  0  0
   -0.3740    7.5695   -1.3803 C   0  0  0  0  0  0  0  0  0  0  0  0
    0.2907    8.6082   -2.2961 C   0  0  0  0  0  0  0  0  0  0  0  0
    2.3584    9.2536   -3.5871 C   0  0  0  0  0  0  0  0  0  0  0  0
    3.7751    8.9661   -3.8475 N   0  3  0  0  0  0  0  0  0  0  0  0
    1.8241    3.0200   -3.0057 C   0  0  1  0  0  0  0  0  0  0  0  0
    2.8783    1.9932   -3.4861 C   0  0  0  0  0  0  0  0  0  0  0  0
    3.8051    1.5761   -2.3127 C   0  0  1  0  0  0  0  0  0  0  0  0
    4.7536    0.5407   -2.7654 N   0  3  0  0  0  0  0  0  0  0  0  0
    4.5373    2.8221   -1.7354 C   0  0  1  0  0  0  0  0  0  0  0  0
    3.5383    3.9346   -1.3298 C   0  0  1  0  0  0  0  0  0  0  0  0
    4.3157    5.0712   -0.9834 O   0  0  0  0  0  0  0  0  0  0  0  0
    2.4983    4.3112   -2.4361 C   0  0  2  0  0  0  0  0  0  0  0  0
    0.8864    3.3313   -4.0989 N   0  3  0  0  0  0  0  0  0  0  0  0
    8.2439    3.2393   -0.5976 C   0  0  0  0  0  0  0  0  0  0  0  0
    8.8542    2.6254    0.6862 C   0  0  2  0  0  0  0  0  0  0  0  0
    9.8580    1.7009    0.2697 O   0  0  0  0  0  0  0  0  0  0  0  0
    7.7245    1.8964    1.5071 C   0  0  1  0  0  0  0  0  0  0  0  0
    6.8497    0.9420    0.6251 C   0  0  2  0  0  0  0  0  0  0  0  0
    6.4191    1.5704   -0.7245 C   0  0  1  0  0  0  0  0  0  0  0  0
    5.2912    2.4659   -0.5415 O   0  0  0  0  0  0  0  0  0  0  0  0
    7.5404    2.2333   -1.3742 O   0  0  0  0  0  0  0  0  0  0  0  0
    5.6851    0.5087    1.3232 O   0  0  0  0  0  0  0  0  0  0  0  0
    8.3331    1.1482    2.6508 N   0  3  0  0  0  0  0  0  0  0  0  0
    7.9621    1.5859    4.0119 C   0  0  0  0  0  0  0  0  0  0  0  0
    9.5642    3.7480    1.4824 C   0  0  0  0  0  0  0  0  0  0  0  0
  1  8  1  0  0  0  0
  1  9  1  1  0  0  0
  1  2  1  0  0  0  0
  2  3  1  0  0  0  0
  3  5  1  0  0  0  0
  3  4  1  6  0  0  0
  5  7  1  0  0  0  0
  5  6  1  6  0  0  0
  7  8  1  0  0  0  0
  9 10  1  0  0  0  0
 11 12  1  0  0  0  0
 11 18  1  0  0  0  0
 11 19  1  6  0  0  0
 12 13  1  0  0  0  0
 13 15  1  0  0  0  0
 13 14  1  6  0  0  0
 15 16  1  0  0  0  0
 15 26  1  1  0  0  0
 16 18  1  0  0  0  0
 16 17  1  6  0  0  0
 18  4  1  1  0  0  0
 20 21  1  0  0  0  0
 20 27  1  0  0  0  0
 21 31  1  1  0  0  0
 21 23  1  0  0  0  0
 21 22  1  0  0  0  0
 23 24  1  0  0  0  0
 23 29  1  1  0  0  0
 24 25  1  0  0  0  0
 24 28  1  1  0  0  0
 25 27  1  0  0  0  0
 25 26  1  1  0  0  0
 29 30  1  0  0  0  0
M  CHG  5   6   1  10   1  14   1  19   1  29   1
M  END
>  <CHROM.1>
38.37602378,71.63492883,170.93604455,-59.11115477,85.71744091,43.12652302
-32.81062046,66.50215350,-143.08131433,165.38432750,-122.77409402,-179.23453497
-162.69626542,4.38964403,4.00234048,-1.01745910,-2.62233418,0.57155673,-2.93666083

>  <Name>
1byj cryst

>  <RI>
0

>  <Rbt.Current_Directory>
/home/itssahil/PROJECTS/Mol_Feturizer/New_Systems/rnas/1byj

>  <Rbt.Executable>
rbdock ($Id: //depot/dev/client3/rdock/2013.1/src/exe/rbdock.cxx#4 $)

>  <Rbt.Library>
libRbt.so (2013.1, Build901 2013/11/27)

>  <Rbt.Parameter_File>
/export/apps/rDock/src/rDock_2013.1_src/data/scripts/dock_solv.prm

>  <Rbt.Receptor>
prm/pocket_docking_5.prm

>  <SCORE>
-31.2549

>  <SCORE.INTER>
-29.9523

>  <SCORE.INTER.CONST>
1

>  <SCORE.INTER.POLAR>
-5.30601

>  <SCORE.INTER.ROT>
6

>  <SCORE.INTER.SOLV>
28.4017

>  <SCORE.INTER.VDW>
-19.3488

>  <SCORE.INTER.norm>
-0.966204

>  <SCORE.INTRA>
-1.30259

>  <SCORE.INTRA.DIHEDRAL>
-1.1492

>  <SCORE.INTRA.DIHEDRAL.0>
18.4149

>  <SCORE.INTRA.POLAR>
-0.184653

>  <SCORE.INTRA.POLAR.0>
0

>  <SCORE.INTRA.REPUL>
-0.092687

>  <SCORE.INTRA.REPUL.0>
0.092687

>  <SCORE.INTRA.SOLV>
-2.1983

>  <SCORE.INTRA.SOLV.lig_0>
-120.37

>  <SCORE.INTRA.VDW>
1.46241

>  <SCORE.INTRA.VDW.0>
-1.75542

>  <SCORE.INTRA.norm>
-0.0420192

>  <SCORE.RESTR>
0

>  <SCORE.RESTR.CAVITY>
0

>  <SCORE.RESTR.norm>
0

>  <SCORE.SYSTEM>
0

>  <SCORE.SYSTEM.CONST>
0

>  <SCORE.SYSTEM.DIHEDRAL>
0

>  <SCORE.SYSTEM.SOLV>
0

>  <SCORE.SYSTEM.norm>
0

>  <SCORE.heavy>
31

>  <SCORE.norm>
-1.00822

>  <RMSD>
8.458

$$$$
1byj cryst
 OpenBabel11021811383D
libRbt.so/2013.1/901 2013/11/27
 31 33  0  0  0  0  0  0  0  0999 V2000
    1.3136    8.0126    0.4717 C   0  0  1  0  0  0  0  0  0  0  0  0
    1.1717    6.9092   -0.4793 O   0  0  0  0  0  0  0  0  0  0  0  0
    2.3693    6.3863   -1.1282 C   0  0  2  0  0  0  0  0  0  0  0  0
    3.2356    5.7000   -0.1714 O   0  0  0  0  0  0  0  0  0  0  0  0
    3.1263    7.5541   -1.8307 C   0  0  2  0  0  0  0  0  0  0  0  0
    4.3582    7.1194   -2.5181 N   0  3  0  0  0  0  0  0  0  0  0  0
    3.4453    8.6736   -0.8065 C   0  0  0  0  0  0  0  0  0  0  0  0
    2.1664    9.1707   -0.1161 C   0  0  0  0  0  0  0  0  0  0  0  0
   -0.0801    8.5477    0.8452 C   0  0  0  0  0  0  0  0  0  0  0  0
   -0.0486    9.7180    1.7321 N   0  3  0  0  0  0  0  0  0  0  0  0
    3.5560    3.6993    1.2303 C   0  0  1  0  0  0  0  0  0  0  0  0
    3.7719    2.1664    1.2357 C   0  0  0  0  0  0  0  0  0  0  0  0
    5.0080    1.7885    0.3761 C   0  0  1  0  0  0  0  0  0  0  0  0
    5.2481    0.3348    0.4532 N   0  3  0  0  0  0  0  0  0  0  0  0
    4.8106    2.2676   -1.0913 C   0  0  1  0  0  0  0  0  0  0  0  0
    4.4866    3.7810   -1.1594 C   0  0  1  0  0  0  0  0  0  0  0  0
    4.1614    4.0658   -2.5119 O   0  0  0  0  0  0  0  0  0  0  0  0
    3.3248    4.2414   -0.2184 C   0  0  2  0  0  0  0  0  0  0  0  0
    2.4451    4.0567    2.1302 N   0  3  0  0  0  0  0  0  0  0  0  0
    8.7891    0.7872   -2.1318 C   0  0  0  0  0  0  0  0  0  0  0  0
    9.6096    1.7700   -3.0028 C   0  0  2  0  0  0  0  0  0  0  0  0
   10.7095    2.2123   -2.2086 O   0  0  0  0  0  0  0  0  0  0  0  0
    8.6978    2.9830   -3.4254 C   0  0  1  0  0  0  0  0  0  0  0  0
    7.9148    3.6058   -2.2199 C   0  0  2  0  0  0  0  0  0  0  0  0
    7.2622    2.5476   -1.2947 C   0  0  1  0  0  0  0  0  0  0  0  0
    6.0236    2.0528   -1.8680 O   0  0  0  0  0  0  0  0  0  0  0  0
    8.1927    1.4687   -0.9962 O   0  0  0  0  0  0  0  0  0  0  0  0
    6.9083    4.5117   -2.6643 O   0  0  0  0  0  0  0  0  0  0  0  0
    9.5258    4.0235   -4.1111 N   0  3  0  0  0  0  0  0  0  0  0  0
    8.8098    5.0010   -4.9558 C   0  0  0  0  0  0  0  0  0  0  0  0
   10.1951    0.9932   -4.2078 C   0  0  0  0  0  0  0  0  0  0  0  0
  1  8  1  0  0  0  0
  1  9  1  6  0  0  0
  1  2  1  0  0  0  0
  2  3  1  0  0  0  0
  3  5  1  0  0  0  0
  3  4  1  1  0  0  0
  5  7  1  0  0  0  0
  5  6  1  1  0  0  0
  7  8  1  0  0  0  0
  9 10  1  0  0  0  0
 11 12  1  0  0  0  0
 11 18  1  0  0  0  0
 11 19  1  1  0  0  0
 12 13  1  0  0  0  0
 13 15  1  0  0  0  0
 13 14  1  6  0  0  0
 15 16  1  0  0  0  0
 15 26  1  6  0  0  0
 16 18  1  0  0  0  0
 16 17  1  6  0  0  0
 18  4  1  1  0  0  0
 20 21  1  0  0  0  0
 20 27  1  0  0  0  0
 21 31  1  6  0  0  0
 21 23  1  0  0  0  0
 21 22  1  0  0  0  0
 23 24  1  0  0  0  0
 23 29  1  1  0  0  0
 24 25  1  0  0  0  0
 24 28  1  6  0  0  0
 25 27  1  0  0  0  0
 25 26  1  6  0  0  0
 29 30  1  0  0  0  0
M  CHG  5   6   1  10   1  14   1  19   1  29   1
M  END
>  <CHROM.1>
-176.28433878,107.56799770,-147.66047631,31.48995573,79.09961169,-56.21489625
44.70122190,-50.30542876,60.36999734,-78.39073652,-78.48829881,-72.44682382
-119.29000647,5.18362609,4.40294082,-1.18256224,-2.76674673,-0.61913330,2.67400637

>  <Name>
1byj cryst

>  <RI>
0

>  <Rbt.Current_Directory>
/home/itssahil/PROJECTS/Mol_Feturizer/New_Systems/rnas/1byj

>  <Rbt.Executable>
rbdock ($Id: //depot/dev/client3/rdock/2013.1/src/exe/rbdock.cxx#4 $)

>  <Rbt.Library>
libRbt.so (2013.1, Build901 2013/11/27)

>  <Rbt.Parameter_File>
/export/apps/rDock/src/rDock_2013.1_src/data/scripts/dock_solv.prm

>  <Rbt.Receptor>
prm/pocket_docking_8.prm

>  <SCORE>
-35.9086

>  <SCORE.INTER>
-34.7916

>  <SCORE.INTER.CONST>
1

>  <SCORE.INTER.POLAR>
-5.27237

>  <SCORE.INTER.ROT>
6

>  <SCORE.INTER.SOLV>
20.9644

>  <SCORE.INTER.VDW>
-20.2079

>  <SCORE.INTER.norm>
-1.12231

>  <SCORE.INTRA>
-1.11703

>  <SCORE.INTRA.DIHEDRAL>
6.04841

>  <SCORE.INTRA.DIHEDRAL.0>
18.4149

>  <SCORE.INTRA.POLAR>
-1.16667

>  <SCORE.INTRA.POLAR.0>
0

>  <SCORE.INTRA.REPUL>
-0.092687

>  <SCORE.INTRA.REPUL.0>
0.092687

>  <SCORE.INTRA.SOLV>
1.20377

>  <SCORE.INTRA.SOLV.lig_0>
-120.37

>  <SCORE.INTRA.VDW>
-0.31302

>  <SCORE.INTRA.VDW.0>
-1.75542

>  <SCORE.INTRA.norm>
-0.0360333

>  <SCORE.RESTR>
0

>  <SCORE.RESTR.CAVITY>
0

>  <SCORE.RESTR.norm>
0

>  <SCORE.SYSTEM>
0

>  <SCORE.SYSTEM.CONST>
0

>  <SCORE.SYSTEM.DIHEDRAL>
0

>  <SCORE.SYSTEM.SOLV>
0

>  <SCORE.SYSTEM.norm>
0

>  <SCORE.heavy>
31

>  <SCORE.norm>
-1.15834

>  <RMSD>
8.560

$$$$
1byj cryst
 OpenBabel11021811383D
libRbt.so/2013.1/901 2013/11/27
 31 33  0  0  0  0  0  0  0  0999 V2000
    0.7250    8.6021   -1.9351 C   0  0  1  0  0  0  0  0  0  0  0  0
    1.5648    7.9466   -0.9315 O   0  0  0  0  0  0  0  0  0  0  0  0
    0.9481    7.4984    0.3124 C   0  0  2  0  0  0  0  0  0  0  0  0
    0.0297    6.3853    0.0795 O   0  0  0  0  0  0  0  0  0  0  0  0
    0.2140    8.6981    0.9850 C   0  0  2  0  0  0  0  0  0  0  0  0
   -0.4442    8.3391    2.2566 N   0  3  0  0  0  0  0  0  0  0  0  0
   -0.8131    9.3133   -0.0002 C   0  0  0  0  0  0  0  0  0  0  0  0
   -0.1345    9.7363   -1.3117 C   0  0  0  0  0  0  0  0  0  0  0  0
    1.6170    9.1912   -3.0420 C   0  0  0  0  0  0  0  0  0  0  0  0
    2.6677   10.0882   -2.5432 N   0  3  0  0  0  0  0  0  0  0  0  0
   -0.8026    4.4152   -1.1437 C   0  0  1  0  0  0  0  0  0  0  0  0
   -0.4118    3.1851   -1.9985 C   0  0  0  0  0  0  0  0  0  0  0  0
    0.6240    2.3072   -1.2460 C   0  0  1  0  0  0  0  0  0  0  0  0
    0.9284    1.0998   -2.0375 N   0  3  0  0  0  0  0  0  0  0  0  0
    1.9044    3.1342   -0.9323 C   0  0  1  0  0  0  0  0  0  0  0  0
    1.5690    4.4373   -0.1646 C   0  0  1  0  0  0  0  0  0  0  0  0
    2.7744    5.1834   -0.0857 O   0  0  0  0  0  0  0  0  0  0  0  0
    0.4412    5.3046   -0.8152 C   0  0  2  0  0  0  0  0  0  0  0  0
   -1.8607    5.1857   -1.8205 N   0  3  0  0  0  0  0  0  0  0  0  0
    5.3830    2.8181   -1.6901 C   0  0  0  0  0  0  0  0  0  0  0  0
    6.5082    2.1635   -0.8516 C   0  0  2  0  0  0  0  0  0  0  0  0
    7.0780    1.1298   -1.6534 O   0  0  0  0  0  0  0  0  0  0  0  0
    5.8978    1.5735    0.4753 C   0  0  1  0  0  0  0  0  0  0  0  0
    4.6191    0.7041    0.2240 C   0  0  2  0  0  0  0  0  0  0  0  0
    3.6155    1.3527   -0.7628 C   0  0  1  0  0  0  0  0  0  0  0  0
    2.8180    2.3670   -0.0972 O   0  0  0  0  0  0  0  0  0  0  0  0
    4.3005    1.8808   -1.9337 O   0  0  0  0  0  0  0  0  0  0  0  0
    3.9411    0.4098    1.4426 O   0  0  0  0  0  0  0  0  0  0  0  0
    6.9388    0.7832    1.2034 N   0  3  0  0  0  0  0  0  0  0  0  0
    7.7973    1.5195    2.1535 C   0  0  0  0  0  0  0  0  0  0  0  0
    7.6162    3.2163   -0.6024 C   0  0  0  0  0  0  0  0  0  0  0  0
  1  8  1  0  0  0  0
  1  9  1  6  0  0  0
  1  2  1  0  0  0  0
  2  3  1  0  0  0  0
  3  5  1  0  0  0  0
  3  4  1  6  0  0  0
  5  7  1  0  0  0  0
  5  6  1  1  0  0  0
  7  8  1  0  0  0  0
  9 10  1  0  0  0  0
 11 12  1  0  0  0  0
 11 18  1  0  0  0  0
 11 19  1  6  0  0  0
 12 13  1  0  0  0  0
 13 15  1  0  0  0  0
 13 14  1  6  0  0  0
 15 16  1  0  0  0  0
 15 26  1  1  0  0  0
 16 18  1  0  0  0  0
 16 17  1  6  0  0  0
 18  4  1  1  0  0  0
 20 21  1  0  0  0  0
 20 27  1  0  0  0  0
 21 31  1  1  0  0  0
 21 23  1  0  0  0  0
 21 22  1  0  0  0  0
 23 24  1  0  0  0  0
 23 29  1  6  0  0  0
 24 25  1  0  0  0  0
 24 28  1  1  0  0  0
 25 27  1  0  0  0  0
 25 26  1  1  0  0  0
 29 30  1  0  0  0  0
M  CHG  5   6   1  10   1  14   1  19   1  29   1
M  END
>  <CHROM.1>
-54.25129341,43.70647647,-167.77156071,-57.03888280,178.15234519,175.93533684
-46.00861225,78.27062590,66.39631821,-71.91617061,-150.54418367,-66.33589846
175.27184303,2.53739523,4.50014536,-0.58887769,-2.25690648,0.12201000,3.13849089

>  <Name>
1byj cryst

>  <RI>
0

>  <Rbt.Current_Directory>
/home/itssahil/PROJECTS/Mol_Feturizer/New_Systems/rnas/1byj

>  <Rbt.Executable>
rbdock ($Id: //depot/dev/client3/rdock/2013.1/src/exe/rbdock.cxx#4 $)

>  <Rbt.Library>
libRbt.so (2013.1, Build901 2013/11/27)

>  <Rbt.Parameter_File>
/export/apps/rDock/src/rDock_2013.1_src/data/scripts/dock_solv.prm

>  <Rbt.Receptor>
prm/pocket_docking_7.prm

>  <SCORE>
-40.9149

>  <SCORE.INTER>
-32.6138

>  <SCORE.INTER.CONST>
1

>  <SCORE.INTER.POLAR>
-4.57837

>  <SCORE.INTER.ROT>
6

>  <SCORE.INTER.SOLV>
22.2103

>  <SCORE.INTER.VDW>
-21.4847

>  <SCORE.INTER.norm>
-1.05206

>  <SCORE.INTRA>
-8.3011

>  <SCORE.INTRA.DIHEDRAL>
-11.1944

>  <SCORE.INTRA.DIHEDRAL.0>
18.4149

>  <SCORE.INTRA.POLAR>
0

>  <SCORE.INTRA.POLAR.0>
0

>  <SCORE.INTRA.REPUL>
-0.092687

>  <SCORE.INTRA.REPUL.0>
0.092687

>  <SCORE.INTRA.SOLV>
-1.64877

>  <SCORE.INTRA.SOLV.lig_0>
-120.37

>  <SCORE.INTRA.VDW>
-1.4161

>  <SCORE.INTRA.VDW.0>
-1.75542

>  <SCORE.INTRA.norm>
-0.267777

>  <SCORE.RESTR>
0

>  <SCORE.RESTR.CAVITY>
0

>  <SCORE.RESTR.norm>
0

>  <SCORE.SYSTEM>
0

>  <SCORE.SYSTEM.CONST>
0

>  <SCORE.SYSTEM.DIHEDRAL>
0

>  <SCORE.SYSTEM.SOLV>
0

>  <SCORE.SYSTEM.norm>
0

>  <SCORE.heavy>
31

>  <SCORE.norm>
-1.31983

>  <RMSD>
8.581

$$$$
1byj cryst
 OpenBabel11021811383D
libRbt.so/2013.1/901 2013/11/27
 31 33  0  0  0  0  0  0  0  0999 V2000
    1.7278    8.1265   -0.3860 C   0  0  1  0  0  0  0  0  0  0  0  0
    2.3561    7.2214   -1.3493 O   0  0  0  0  0  0  0  0  0  0  0  0
    3.7716    6.9047   -1.1916 C   0  0  2  0  0  0  0  0  0  0  0  0
    4.0057    6.0982    0.0049 O   0  0  0  0  0  0  0  0  0  0  0  0
    4.5935    8.2285   -1.1437 C   0  0  2  0  0  0  0  0  0  0  0  0
    6.0444    8.0077   -0.9849 N   0  3  0  0  0  0  0  0  0  0  0  0
    4.0596    9.1456   -0.0133 C   0  0  0  0  0  0  0  0  0  0  0  0
    2.5595    9.4242   -0.1910 C   0  0  0  0  0  0  0  0  0  0  0  0
    0.3174    8.4968   -0.8777 C   0  0  0  0  0  0  0  0  0  0  0  0
   -0.3301    7.4442   -1.6715 N   0  3  0  0  0  0  0  0  0  0  0  0
    4.0325    4.0305    1.3443 C   0  0  1  0  0  0  0  0  0  0  0  0
    4.0151    2.4830    1.3029 C   0  0  0  0  0  0  0  0  0  0  0  0
    5.1731    1.9499    0.4172 C   0  0  1  0  0  0  0  0  0  0  0  0
    5.1921    0.4750    0.4494 N   0  3  0  0  0  0  0  0  0  0  0  0
    5.0381    2.4975   -1.0332 C   0  0  1  0  0  0  0  0  0  0  0  0
    4.9453    4.0439   -1.0537 C   0  0  1  0  0  0  0  0  0  0  0  0
    4.6556    4.4152   -2.3932 O   0  0  0  0  0  0  0  0  0  0  0  0
    3.8738    4.6449   -0.0852 C   0  0  2  0  0  0  0  0  0  0  0  0
    2.9956    4.5233    2.2681 N   0  3  0  0  0  0  0  0  0  0  0  0
    8.9998    1.2762   -0.9656 C   0  0  0  0  0  0  0  0  0  0  0  0
    9.8804    1.4119   -2.2320 C   0  0  2  0  0  0  0  0  0  0  0  0
   10.8918    2.3737   -1.9353 O   0  0  0  0  0  0  0  0  0  0  0  0
    8.9900    1.8876   -3.4412 C   0  0  1  0  0  0  0  0  0  0  0  0
    8.0851    3.1159   -3.0857 C   0  0  2  0  0  0  0  0  0  0  0  0
    7.3679    2.9794   -1.7186 C   0  0  1  0  0  0  0  0  0  0  0  0
    6.1985    2.1265   -1.8310 O   0  0  0  0  0  0  0  0  0  0  0  0
    8.2861    2.5111   -0.6908 O   0  0  0  0  0  0  0  0  0  0  0  0
    7.1083    3.3536   -4.0959 O   0  0  0  0  0  0  0  0  0  0  0  0
    9.8594    2.1959   -4.6191 N   0  3  0  0  0  0  0  0  0  0  0  0
   10.5093    1.0519   -5.2907 C   0  0  0  0  0  0  0  0  0  0  0  0
   10.5915    0.0603   -2.4876 C   0  0  0  0  0  0  0  0  0  0  0  0
  1  8  1  0  0  0  0
  1  9  1  6  0  0  0
  1  2  1  0  0  0  0
  2  3  1  0  0  0  0
  3  5  1  0  0  0  0
  3  4  1  1  0  0  0
  5  7  1  0  0  0  0
  5  6  1  1  0  0  0
  7  8  1  0  0  0  0
  9 10  1  0  0  0  0
 11 12  1  0  0  0  0
 11 18  1  0  0  0  0
 11 19  1  1  0  0  0
 12 13  1  0  0  0  0
 13 15  1  0  0  0  0
 13 14  1  6  0  0  0
 15 16  1  0  0  0  0
 15 26  1  6  0  0  0
 16 18  1  0  0  0  0
 16 17  1  6  0  0  0
 18  4  1  1  0  0  0
 20 21  1  0  0  0  0
 20 27  1  0  0  0  0
 21 31  1  6  0  0  0
 21 23  1  0  0  0  0
 21 22  1  0  0  0  0
 23 24  1  0  0  0  0
 23 29  1  6  0  0  0
 24 25  1  0  0  0  0
 24 28  1  6  0  0  0
 25 27  1  0  0  0  0
 25 26  1  6  0  0  0
 29 30  1  0  0  0  0
M  CHG  5   6   1  10   1  14   1  19   1  29   1
M  END
>  <CHROM.1>
30.43684395,86.18458597,-174.46097585,-63.38839819,-36.57821921,176.92889274
-69.66655273,-83.57252938,57.70970476,-61.29958912,-168.94741920,-65.38956694
-143.32698137,5.67203196,4.26715095,-1.27914847,-2.70999983,-0.61918060,2.61613784

>  <Name>
1byj cryst

>  <RI>
0

>  <Rbt.Current_Directory>
/home/itssahil/PROJECTS/Mol_Feturizer/New_Systems/rnas/1byj

>  <Rbt.Executable>
rbdock ($Id: //depot/dev/client3/rdock/2013.1/src/exe/rbdock.cxx#4 $)

>  <Rbt.Library>
libRbt.so (2013.1, Build901 2013/11/27)

>  <Rbt.Parameter_File>
/export/apps/rDock/src/rDock_2013.1_src/data/scripts/dock_solv.prm

>  <Rbt.Receptor>
prm/pocket_docking_4.prm

>  <SCORE>
-42.7094

>  <SCORE.INTER>
-40.4625

>  <SCORE.INTER.CONST>
1

>  <SCORE.INTER.POLAR>
-6.41763

>  <SCORE.INTER.ROT>
6

>  <SCORE.INTER.SOLV>
17.8646

>  <SCORE.INTER.VDW>
-19.1377

>  <SCORE.INTER.norm>
-1.30524

>  <SCORE.INTRA>
-2.24692

>  <SCORE.INTRA.DIHEDRAL>
-3.35944

>  <SCORE.INTRA.DIHEDRAL.0>
18.4149

>  <SCORE.INTRA.POLAR>
-0.200585

>  <SCORE.INTRA.POLAR.0>
0

>  <SCORE.INTRA.REPUL>
-0.092687

>  <SCORE.INTRA.REPUL.0>
0.092687

>  <SCORE.INTRA.SOLV>
-2.99926

>  <SCORE.INTRA.SOLV.lig_0>
-120.37

>  <SCORE.INTRA.VDW>
2.07786

>  <SCORE.INTRA.VDW.0>
-1.75542

>  <SCORE.INTRA.norm>
-0.0724812

>  <SCORE.RESTR>
0

>  <SCORE.RESTR.CAVITY>
0

>  <SCORE.RESTR.norm>
0

>  <SCORE.SYSTEM>
0

>  <SCORE.SYSTEM.CONST>
0

>  <SCORE.SYSTEM.DIHEDRAL>
0

>  <SCORE.SYSTEM.SOLV>
0

>  <SCORE.SYSTEM.norm>
0

>  <SCORE.heavy>
31

>  <SCORE.norm>
-1.37772

>  <RMSD>
8.661

$$$$
1byj cryst
 OpenBabel11021811383D
libRbt.so/2013.1/901 2013/11/27
 31 33  0  0  0  0  0  0  0  0999 V2000
    0.7963    2.5899    1.3823 C   0  0  1  0  0  0  0  0  0  0  0  0
    1.7406    2.4523    0.2725 O   0  0  0  0  0  0  0  0  0  0  0  0
    2.6682    3.5458    0.0033 C   0  0  2  0  0  0  0  0  0  0  0  0
    3.6543    3.6821    1.0738 O   0  0  0  0  0  0  0  0  0  0  0  0
    1.8645    4.8678   -0.1886 C   0  0  2  0  0  0  0  0  0  0  0  0
    2.7229    6.0360   -0.4668 N   0  3  0  0  0  0  0  0  0  0  0  0
    0.9747    5.1345    1.0528 C   0  0  0  0  0  0  0  0  0  0  0  0
    0.0407    3.9464    1.3278 C   0  0  0  0  0  0  0  0  0  0  0  0
   -0.2235    1.4386    1.3312 C   0  0  0  0  0  0  0  0  0  0  0  0
   -1.1634    1.4276    2.4597 N   0  3  0  0  0  0  0  0  0  0  0  0
    5.5277    2.9713    2.5074 C   0  0  1  0  0  0  0  0  0  0  0  0
    6.6275    1.9058    2.7347 C   0  0  0  0  0  0  0  0  0  0  0  0
    7.5131    1.7599    1.4681 C   0  0  1  0  0  0  0  0  0  0  0  0
    8.6031    0.7993    1.7253 N   0  3  0  0  0  0  0  0  0  0  0  0
    6.6434    1.3386    0.2483 C   0  0  1  0  0  0  0  0  0  0  0  0
    5.4579    2.3115    0.0288 C   0  0  1  0  0  0  0  0  0  0  0  0
    4.6474    1.7405   -0.9876 O   0  0  0  0  0  0  0  0  0  0  0  0
    4.6002    2.5918    1.3067 C   0  0  2  0  0  0  0  0  0  0  0  0
    4.7585    3.1766    3.7473 N   0  3  0  0  0  0  0  0  0  0  0  0
   10.2217    0.8033   -2.0989 C   0  0  0  0  0  0  0  0  0  0  0  0
   10.3292    1.6804   -3.3704 C   0  0  2  0  0  0  0  0  0  0  0  0
   11.4077    2.5905   -3.1589 O   0  0  0  0  0  0  0  0  0  0  0  0
    8.9751    2.4548   -3.5892 C   0  0  1  0  0  0  0  0  0  0  0  0
    8.4639    3.1675   -2.2912 C   0  0  2  0  0  0  0  0  0  0  0  0
    8.5478    2.2782   -1.0247 C   0  0  1  0  0  0  0  0  0  0  0  0
    7.4363    1.3456   -0.9731 O   0  0  0  0  0  0  0  0  0  0  0  0
    9.8326    1.5983   -0.9472 O   0  0  0  0  0  0  0  0  0  0  0  0
    7.1234    3.6273   -2.4424 O   0  0  0  0  0  0  0  0  0  0  0  0
    9.1298    3.4388   -4.7056 N   0  3  0  0  0  0  0  0  0  0  0  0
    9.1272    4.8707   -4.3427 C   0  0  0  0  0  0  0  0  0  0  0  0
   10.7186    0.7750   -4.5648 C   0  0  0  0  0  0  0  0  0  0  0  0
  1  8  1  0  0  0  0
  1  9  1  6  0  0  0
  1  2  1  0  0  0  0
  2  3  1  0  0  0  0
  3  5  1  0  0  0  0
  3  4  1  1  0  0  0
  5  7  1  0  0  0  0
  5  6  1  1  0  0  0
  7  8  1  0  0  0  0
  9 10  1  0  0  0  0
 11 12  1  0  0  0  0
 11 18  1  0  0  0  0
 11 19  1  1  0  0  0
 12 13  1  0  0  0  0
 13 15  1  0  0  0  0
 13 14  1  1  0  0  0
 15 16  1  0  0  0  0
 15 26  1  6  0  0  0
 16 18  1  0  0  0  0
 16 17  1  6  0  0  0
 18  4  1  6  0  0  0
 20 21  1  0  0  0  0
 20 27  1  0  0  0  0
 21 31  1  6  0  0  0
 21 23  1  0  0  0  0
 21 22  1  0  0  0  0
 23 24  1  0  0  0  0
 23 29  1  6  0  0  0
 24 25  1  0  0  0  0
 24 28  1  6  0  0  0
 25 27  1  0  0  0  0
 25 26  1  6  0  0  0
 29 30  1  0  0  0  0
M  CHG  5   6   1  10   1  14   1  19   1  29   1
M  END
>  <CHROM.1>
175.90068588,64.36295223,-179.24250565,62.53904263,-62.14343801,-176.62140365
-57.86633337,-28.87348297,-58.61380690,57.56599663,10.80487679,-178.20272285
-126.67843890,5.77085221,2.66148709,-0.40511000,2.78209341,-0.31820609,2.04846947

>  <Name>
1byj cryst

>  <RI>
0

>  <Rbt.Current_Directory>
/home/itssahil/PROJECTS/Mol_Feturizer/New_Systems/rnas/1byj

>  <Rbt.Executable>
rbdock ($Id: //depot/dev/client3/rdock/2013.1/src/exe/rbdock.cxx#4 $)

>  <Rbt.Library>
libRbt.so (2013.1, Build901 2013/11/27)

>  <Rbt.Parameter_File>
/export/apps/rDock/src/rDock_2013.1_src/data/scripts/dock_solv.prm

>  <Rbt.Receptor>
prm/pocket_docking_5.prm

>  <SCORE>
-37.2448

>  <SCORE.INTER>
-33.5895

>  <SCORE.INTER.CONST>
1

>  <SCORE.INTER.POLAR>
-4.1395

>  <SCORE.INTER.ROT>
6

>  <SCORE.INTER.SOLV>
21.5943

>  <SCORE.INTER.VDW>
-23.3927

>  <SCORE.INTER.norm>
-1.08353

>  <SCORE.INTRA>
-3.65538

>  <SCORE.INTRA.DIHEDRAL>
-3.77875

>  <SCORE.INTRA.DIHEDRAL.0>
18.4149

>  <SCORE.INTRA.POLAR>
-1.12289

>  <SCORE.INTRA.POLAR.0>
0

>  <SCORE.INTRA.REPUL>
-0.092687

>  <SCORE.INTRA.REPUL.0>
0.092687

>  <SCORE.INTRA.SOLV>
-3.32041

>  <SCORE.INTRA.SOLV.lig_0>
-120.37

>  <SCORE.INTRA.VDW>
4.17545

>  <SCORE.INTRA.VDW.0>
-1.75542

>  <SCORE.INTRA.norm>
-0.117915

>  <SCORE.RESTR>
0

>  <SCORE.RESTR.CAVITY>
0

>  <SCORE.RESTR.norm>
0

>  <SCORE.SYSTEM>
0

>  <SCORE.SYSTEM.CONST>
0

>  <SCORE.SYSTEM.DIHEDRAL>
0

>  <SCORE.SYSTEM.SOLV>
0

>  <SCORE.SYSTEM.norm>
0

>  <SCORE.heavy>
31

>  <SCORE.norm>
-1.20145

>  <RMSD>
8.664

$$$$
1byj cryst
 OpenBabel11021811383D
libRbt.so/2013.1/901 2013/11/27
 31 33  0  0  0  0  0  0  0  0999 V2000
   -0.2394    6.4498   -1.2980 C   0  0  1  0  0  0  0  0  0  0  0  0
    0.9285    6.3614   -2.1756 O   0  0  0  0  0  0  0  0  0  0  0  0
    2.2579    6.4679   -1.5840 C   0  0  2  0  0  0  0  0  0  0  0  0
    2.5623    5.3081   -0.7481 O   0  0  0  0  0  0  0  0  0  0  0  0
    2.3520    7.7896   -0.7627 C   0  0  2  0  0  0  0  0  0  0  0  0
    3.6679    7.9855   -0.1233 N   0  3  0  0  0  0  0  0  0  0  0  0
    1.2229    7.8378    0.2989 C   0  0  0  0  0  0  0  0  0  0  0  0
   -0.1577    7.6830   -0.3565 C   0  0  0  0  0  0  0  0  0  0  0  0
   -1.5149    6.5481   -2.1533 C   0  0  0  0  0  0  0  0  0  0  0  0
   -2.4621    5.4469   -1.9355 N   0  3  0  0  0  0  0  0  0  0  0  0
    2.4536    2.8921   -0.2774 C   0  0  1  0  0  0  0  0  0  0  0  0
    2.6491    1.4694   -0.8557 C   0  0  0  0  0  0  0  0  0  0  0  0
    4.0778    1.3128   -1.4424 C   0  0  1  0  0  0  0  0  0  0  0  0
    4.2763   -0.0694   -1.9189 N   0  3  0  0  0  0  0  0  0  0  0  0
    4.3134    2.3563   -2.5726 C   0  0  1  0  0  0  0  0  0  0  0  0
    4.0323    3.7997   -2.0850 C   0  0  1  0  0  0  0  0  0  0  0  0
    4.1113    4.6369   -3.2291 O   0  0  0  0  0  0  0  0  0  0  0  0
    2.6520    3.9896   -1.3738 C   0  0  2  0  0  0  0  0  0  0  0  0
    1.1333    2.9984    0.3683 N   0  3  0  0  0  0  0  0  0  0  0  0
    7.7460    1.2982   -1.0046 C   0  0  0  0  0  0  0  0  0  0  0  0
    9.1263    1.5261   -1.6682 C   0  0  2  0  0  0  0  0  0  0  0  0
    9.8508    2.4218   -0.8261 O   0  0  0  0  0  0  0  0  0  0  0  0
    8.9229    2.1440   -3.1028 C   0  0  1  0  0  0  0  0  0  0  0  0
    7.9369    3.3613   -3.1078 C   0  0  2  0  0  0  0  0  0  0  0  0
    6.6508    3.1177   -2.2780 C   0  0  1  0  0  0  0  0  0  0  0  0
    5.6970    2.3178   -3.0251 O   0  0  0  0  0  0  0  0  0  0  0  0
    6.9662    2.5236   -0.9870 O   0  0  0  0  0  0  0  0  0  0  0  0
    7.5659    3.7261   -4.4347 O   0  0  0  0  0  0  0  0  0  0  0  0
   10.2476    2.5354   -3.6775 N   0  3  0  0  0  0  0  0  0  0  0  0
   11.0191    1.4795   -4.3644 C   0  0  0  0  0  0  0  0  0  0  0  0
    9.8967    0.1828   -1.6820 C   0  0  0  0  0  0  0  0  0  0  0  0
  1  8  1  0  0  0  0
  1  9  1  6  0  0  0
  1  2  1  0  0  0  0
  2  3  1  0  0  0  0
  3  5  1  0  0  0  0
  3  4  1  1  0  0  0
  5  7  1  0  0  0  0
  5  6  1  1  0  0  0
  7  8  1  0  0  0  0
  9 10  1  0  0  0  0
 11 12  1  0  0  0  0
 11 18  1  0  0  0  0
 11 19  1  6  0  0  0
 12 13  1  0  0  0  0
 13 15  1  0  0  0  0
 13 14  1  6  0  0  0
 15 16  1  0  0  0  0
 15 26  1  1  0  0  0
 16 18  1  0  0  0  0
 16 17  1  6  0  0  0
 18  4  1  1  0  0  0
 20 21  1  0  0  0  0
 20 27  1  0  0  0  0
 21 31  1  6  0  0  0
 21 23  1  0  0  0  0
 21 22  1  0  0  0  0
 23 24  1  0  0  0  0
 23 29  1  1  0  0  0
 24 25  1  0  0  0  0
 24 28  1  6  0  0  0
 25 27  1  0  0  0  0
 25 26  1  6  0  0  0
 29 30  1  0  0  0  0
M  CHG  5   6   1  10   1  14   1  19   1  29   1
M  END
>  <CHROM.1>
119.43586277,63.85568833,-159.26002905,66.46487567,88.77309908,-56.82912580
-123.47109638,-85.67599545,-168.98943472,170.93616340,-154.25658618,-62.79770075
-161.28678090,4.52679224,3.80145166,-1.76509929,-2.68262347,-0.19555654,3.10166779

>  <Name>
1byj cryst

>  <RI>
0

>  <Rbt.Current_Directory>
/home/itssahil/PROJECTS/Mol_Feturizer/New_Systems/rnas/1byj

>  <Rbt.Executable>
rbdock ($Id: //depot/dev/client3/rdock/2013.1/src/exe/rbdock.cxx#4 $)

>  <Rbt.Library>
libRbt.so (2013.1, Build901 2013/11/27)

>  <Rbt.Parameter_File>
/export/apps/rDock/src/rDock_2013.1_src/data/scripts/dock_solv.prm

>  <Rbt.Receptor>
prm/pocket_docking_7.prm

>  <SCORE>
-30.9001

>  <SCORE.INTER>
-31.3353

>  <SCORE.INTER.CONST>
1

>  <SCORE.INTER.POLAR>
-4.32875

>  <SCORE.INTER.ROT>
6

>  <SCORE.INTER.SOLV>
26.2682

>  <SCORE.INTER.VDW>
-22.8171

>  <SCORE.INTER.norm>
-1.01082

>  <SCORE.INTRA>
0.43515

>  <SCORE.INTRA.DIHEDRAL>
1.16207

>  <SCORE.INTRA.DIHEDRAL.0>
18.4149

>  <SCORE.INTRA.POLAR>
0

>  <SCORE.INTRA.POLAR.0>
0

>  <SCORE.INTRA.REPUL>
-0.092687

>  <SCORE.INTRA.REPUL.0>
0.092687

>  <SCORE.INTRA.SOLV>
-3.63878

>  <SCORE.INTRA.SOLV.lig_0>
-120.37

>  <SCORE.INTRA.VDW>
2.13694

>  <SCORE.INTRA.VDW.0>
-1.75542

>  <SCORE.INTRA.norm>
0.0140371

>  <SCORE.RESTR>
0

>  <SCORE.RESTR.CAVITY>
0

>  <SCORE.RESTR.norm>
0

>  <SCORE.SYSTEM>
0

>  <SCORE.SYSTEM.CONST>
0

>  <SCORE.SYSTEM.DIHEDRAL>
0

>  <SCORE.SYSTEM.SOLV>
0

>  <SCORE.SYSTEM.norm>
0

>  <SCORE.heavy>
31

>  <SCORE.norm>
-0.996778

>  <RMSD>
8.709

$$$$
1byj cryst
 OpenBabel11021811383D
libRbt.so/2013.1/901 2013/11/27
 31 33  0  0  0  0  0  0  0  0999 V2000
    0.2311    5.4753   -0.3598 C   0  0  1  0  0  0  0  0  0  0  0  0
    1.1265    5.2119   -1.4872 O   0  0  0  0  0  0  0  0  0  0  0  0
    2.3871    5.9423   -1.5650 C   0  0  2  0  0  0  0  0  0  0  0  0
    3.3023    5.5382   -0.4993 O   0  0  0  0  0  0  0  0  0  0  0  0
    2.0999    7.4734   -1.5052 C   0  0  2  0  0  0  0  0  0  0  0  0
    3.3219    8.2984   -1.5776 N   0  3  0  0  0  0  0  0  0  0  0  0
    1.2933    7.8138   -0.2255 C   0  0  0  0  0  0  0  0  0  0  0  0
   -0.0062    6.9975   -0.1590 C   0  0  0  0  0  0  0  0  0  0  0  0
   -1.1191    4.7793   -0.6063 C   0  0  0  0  0  0  0  0  0  0  0  0
   -1.0510    3.3133   -0.5469 N   0  3  0  0  0  0  0  0  0  0  0  0
    4.0988    3.8853    1.1451 C   0  0  1  0  0  0  0  0  0  0  0  0
    4.5285    2.4153    1.3712 C   0  0  0  0  0  0  0  0  0  0  0  0
    5.6710    2.0266    0.3947 C   0  0  1  0  0  0  0  0  0  0  0  0
    6.1233    0.6501    0.6733 N   0  3  0  0  0  0  0  0  0  0  0  0
    5.2014    2.1967   -1.0791 C   0  0  1  0  0  0  0  0  0  0  0  0
    4.6598    3.6236   -1.3450 C   0  0  1  0  0  0  0  0  0  0  0  0
    4.1087    3.6110   -2.6536 O   0  0  0  0  0  0  0  0  0  0  0  0
    3.5899    4.1165   -0.3156 C   0  0  2  0  0  0  0  0  0  0  0  0
    3.0877    4.2758    2.1433 N   0  3  0  0  0  0  0  0  0  0  0  0
    9.1146    1.1996   -1.0794 C   0  0  0  0  0  0  0  0  0  0  0  0
   10.0162    1.3618   -2.3278 C   0  0  2  0  0  0  0  0  0  0  0  0
   10.9964    2.3485   -2.0086 O   0  0  0  0  0  0  0  0  0  0  0  0
    9.1379    1.8180   -3.5533 C   0  0  1  0  0  0  0  0  0  0  0  0
    8.1947    3.0215   -3.2127 C   0  0  2  0  0  0  0  0  0  0  0  0
    7.4544    2.8624   -1.8605 C   0  0  1  0  0  0  0  0  0  0  0  0
    6.3098    1.9800   -1.9983 O   0  0  0  0  0  0  0  0  0  0  0  0
    8.3639    2.4149   -0.8158 O   0  0  0  0  0  0  0  0  0  0  0  0
    7.2323    3.2369   -4.2416 O   0  0  0  0  0  0  0  0  0  0  0  0
   10.0223    2.1521   -4.7129 N   0  3  0  0  0  0  0  0  0  0  0  0
   10.8049    1.0455   -5.3001 C   0  0  0  0  0  0  0  0  0  0  0  0
   10.7669    0.0297   -2.5726 C   0  0  0  0  0  0  0  0  0  0  0  0
  1  8  1  0  0  0  0
  1  9  1  6  0  0  0
  1  2  1  0  0  0  0
  2  3  1  0  0  0  0
  3  5  1  0  0  0  0
  3  4  1  1  0  0  0
  5  7  1  0  0  0  0
  5  6  1  1  0  0  0
  7  8  1  0  0  0  0
  9 10  1  0  0  0  0
 11 12  1  0  0  0  0
 11 18  1  0  0  0  0
 11 19  1  1  0  0  0
 12 13  1  0  0  0  0
 13 15  1  0  0  0  0
 13 14  1  6  0  0  0
 15 16  1  0  0  0  0
 15 26  1  6  0  0  0
 16 18  1  0  0  0  0
 16 17  1  6  0  0  0
 18  4  1  6  0  0  0
 20 21  1  0  0  0  0
 20 27  1  0  0  0  0
 21 31  1  6  0  0  0
 21 23  1  0  0  0  0
 21 22  1  0  0  0  0
 23 24  1  0  0  0  0
 23 29  1  6  0  0  0
 24 25  1  0  0  0  0
 24 28  1  6  0  0  0
 25 27  1  0  0  0  0
 25 26  1  6  0  0  0
 29 30  1  0  0  0  0
M  CHG  5   6   1  10   1  14   1  19   1  29   1
M  END
>  <CHROM.1>
68.86933390,52.22835813,-158.15791904,64.95233526,73.36484481,-58.67665723
-126.72237185,-59.87074743,-62.45968391,174.29932301,-174.09564826,-172.98387497
-152.29703161,5.20883765,3.57699660,-1.36699324,3.02883719,0.49972970,-0.79996306

>  <Name>
1byj cryst

>  <RI>
0

>  <Rbt.Current_Directory>
/home/itssahil/PROJECTS/Mol_Feturizer/New_Systems/rnas/1byj

>  <Rbt.Executable>
rbdock ($Id: //depot/dev/client3/rdock/2013.1/src/exe/rbdock.cxx#4 $)

>  <Rbt.Library>
libRbt.so (2013.1, Build901 2013/11/27)

>  <Rbt.Parameter_File>
/export/apps/rDock/src/rDock_2013.1_src/data/scripts/dock_solv.prm

>  <Rbt.Receptor>
prm/pocket_docking_4.prm

>  <SCORE>
-37.9556

>  <SCORE.INTER>
-34.8507

>  <SCORE.INTER.CONST>
1

>  <SCORE.INTER.POLAR>
-4.86902

>  <SCORE.INTER.ROT>
6

>  <SCORE.INTER.SOLV>
17.5752

>  <SCORE.INTER.VDW>
-20.4622

>  <SCORE.INTER.norm>
-1.12422

>  <SCORE.INTRA>
-3.10489

>  <SCORE.INTRA.DIHEDRAL>
-7.81703

>  <SCORE.INTRA.DIHEDRAL.0>
18.4149

>  <SCORE.INTRA.POLAR>
-0.00107766

>  <SCORE.INTRA.POLAR.0>
0

>  <SCORE.INTRA.REPUL>
-0.092687

>  <SCORE.INTRA.REPUL.0>
0.092687

>  <SCORE.INTRA.SOLV>
-2.71959

>  <SCORE.INTRA.SOLV.lig_0>
-120.37

>  <SCORE.INTRA.VDW>
2.63053

>  <SCORE.INTRA.VDW.0>
-1.75542

>  <SCORE.INTRA.norm>
-0.100158

>  <SCORE.RESTR>
0

>  <SCORE.RESTR.CAVITY>
0

>  <SCORE.RESTR.norm>
0

>  <SCORE.SYSTEM>
0

>  <SCORE.SYSTEM.CONST>
0

>  <SCORE.SYSTEM.DIHEDRAL>
0

>  <SCORE.SYSTEM.SOLV>
0

>  <SCORE.SYSTEM.norm>
0

>  <SCORE.heavy>
31

>  <SCORE.norm>
-1.22438

>  <RMSD>
8.750

$$$$
1byj cryst
 OpenBabel11021811383D
libRbt.so/2013.1/901 2013/11/27
 31 33  0  0  0  0  0  0  0  0999 V2000
   -0.5624    3.7732   -2.9687 C   0  0  1  0  0  0  0  0  0  0  0  0
    0.8433    4.1294   -3.1666 O   0  0  0  0  0  0  0  0  0  0  0  0
    1.4856    5.0092   -2.1959 C   0  0  2  0  0  0  0  0  0  0  0  0
    1.6391    4.3495   -0.9006 O   0  0  0  0  0  0  0  0  0  0  0  0
    0.6543    6.3211   -2.0606 C   0  0  2  0  0  0  0  0  0  0  0  0
    1.2296    7.2780   -1.0950 N   0  3  0  0  0  0  0  0  0  0  0  0
   -0.8111    5.9857   -1.6810 C   0  0  0  0  0  0  0  0  0  0  0  0
   -1.4403    5.0272   -2.7033 C   0  0  0  0  0  0  0  0  0  0  0  0
   -1.0852    3.0429   -4.2183 C   0  0  0  0  0  0  0  0  0  0  0  0
   -1.4673    1.6461   -3.9733 N   0  3  0  0  0  0  0  0  0  0  0  0
    1.9191    2.4192    0.6047 C   0  0  1  0  0  0  0  0  0  0  0  0
    2.4211    0.9600    0.7286 C   0  0  0  0  0  0  0  0  0  0  0  0
    3.9047    0.8560    0.2840 C   0  0  1  0  0  0  0  0  0  0  0  0
    4.3926   -0.5225    0.4807 N   0  3  0  0  0  0  0  0  0  0  0  0
    4.0585    1.3214   -1.1929 C   0  0  1  0  0  0  0  0  0  0  0  0
    3.4779    2.7416   -1.4077 C   0  0  1  0  0  0  0  0  0  0  0  0
    3.5164    2.9884   -2.8055 O   0  0  0  0  0  0  0  0  0  0  0  0
    2.0234    2.9392   -0.8666 C   0  0  2  0  0  0  0  0  0  0  0  0
    0.5448    2.5271    1.1252 N   0  3  0  0  0  0  0  0  0  0  0  0
    8.0479    0.9997    0.0119 C   0  0  0  0  0  0  0  0  0  0  0  0
    9.1622    1.6147   -0.8699 C   0  0  2  0  0  0  0  0  0  0  0  0
    9.7392    2.6865   -0.1253 O   0  0  0  0  0  0  0  0  0  0  0  0
    8.5355    2.1396   -2.2165 C   0  0  1  0  0  0  0  0  0  0  0  0
    7.2582    3.0184   -1.9924 C   0  0  2  0  0  0  0  0  0  0  0  0
    6.2672    2.4166   -0.9641 C   0  0  1  0  0  0  0  0  0  0  0  0
    5.4640    1.3706   -1.5710 O   0  0  0  0  0  0  0  0  0  0  0  0
    6.9665    1.9463    0.2228 O   0  0  0  0  0  0  0  0  0  0  0  0
    6.5657    3.2530   -3.2158 O   0  0  0  0  0  0  0  0  0  0  0  0
    9.5666    2.8954   -2.9936 N   0  3  0  0  0  0  0  0  0  0  0  0
    9.3434    3.0329   -4.4473 C   0  0  0  0  0  0  0  0  0  0  0  0
   10.2692    0.5526   -1.0810 C   0  0  0  0  0  0  0  0  0  0  0  0
  1  8  1  0  0  0  0
  1  9  1  6  0  0  0
  1  2  1  0  0  0  0
  2  3  1  0  0  0  0
  3  5  1  0  0  0  0
  3  4  1  1  0  0  0
  5  7  1  0  0  0  0
  5  6  1  1  0  0  0
  7  8  1  0  0  0  0
  9 10  1  0  0  0  0
 11 12  1  0  0  0  0
 11 18  1  0  0  0  0
 11 19  1  6  0  0  0
 12 13  1  0  0  0  0
 13 15  1  0  0  0  0
 13 14  1  6  0  0  0
 15 16  1  0  0  0  0
 15 26  1  1  0  0  0
 16 18  1  0  0  0  0
 16 17  1  6  0  0  0
 18  4  1  1  0  0  0
 20 21  1  0  0  0  0
 20 27  1  0  0  0  0
 21 31  1  6  0  0  0
 21 23  1  0  0  0  0
 21 22  1  0  0  0  0
 23 24  1  0  0  0  0
 23 29  1  1  0  0  0
 24 25  1  0  0  0  0
 24 28  1  6  0  0  0
 25 27  1  0  0  0  0
 25 26  1  6  0  0  0
 29 30  1  0  0  0  0
M  CHG  5   6   1  10   1  14   1  19   1  29   1
M  END
>  <CHROM.1>
115.37575728,39.81766647,-171.89822952,-166.34481101,-61.65142823,-54.40218705
-78.83656460,-70.08055449,56.08390170,-158.12388429,-80.66568043,-70.69787183
-140.32342813,4.01011865,2.85945773,-1.53265219,-2.90407397,-0.11972765,2.39166135

>  <Name>
1byj cryst

>  <RI>
0

>  <Rbt.Current_Directory>
/home/itssahil/PROJECTS/Mol_Feturizer/New_Systems/rnas/1byj

>  <Rbt.Executable>
rbdock ($Id: //depot/dev/client3/rdock/2013.1/src/exe/rbdock.cxx#4 $)

>  <Rbt.Library>
libRbt.so (2013.1, Build901 2013/11/27)

>  <Rbt.Parameter_File>
/export/apps/rDock/src/rDock_2013.1_src/data/scripts/dock_solv.prm

>  <Rbt.Receptor>
prm/pocket_docking_5.prm

>  <SCORE>
-36.1429

>  <SCORE.INTER>
-34.4834

>  <SCORE.INTER.CONST>
1

>  <SCORE.INTER.POLAR>
-4.56039

>  <SCORE.INTER.ROT>
6

>  <SCORE.INTER.SOLV>
18.2453

>  <SCORE.INTER.VDW>
-21.4694

>  <SCORE.INTER.norm>
-1.11237

>  <SCORE.INTRA>
-1.6595

>  <SCORE.INTRA.DIHEDRAL>
0.28109

>  <SCORE.INTRA.DIHEDRAL.0>
18.4149

>  <SCORE.INTRA.POLAR>
0

>  <SCORE.INTRA.POLAR.0>
0

>  <SCORE.INTRA.REPUL>
-0.0865373

>  <SCORE.INTRA.REPUL.0>
0.092687

>  <SCORE.INTRA.SOLV>
-3.10444

>  <SCORE.INTRA.SOLV.lig_0>
-120.37

>  <SCORE.INTRA.VDW>
0.18486

>  <SCORE.INTRA.VDW.0>
-1.75542

>  <SCORE.INTRA.norm>
-0.0535324

>  <SCORE.RESTR>
0

>  <SCORE.RESTR.CAVITY>
0

>  <SCORE.RESTR.norm>
0

>  <SCORE.SYSTEM>
0

>  <SCORE.SYSTEM.CONST>
0

>  <SCORE.SYSTEM.DIHEDRAL>
0

>  <SCORE.SYSTEM.SOLV>
0

>  <SCORE.SYSTEM.norm>
0

>  <SCORE.heavy>
31

>  <SCORE.norm>
-1.1659

>  <RMSD>
8.763

$$$$
1byj cryst
 OpenBabel11021811383D
libRbt.so/2013.1/901 2013/11/27
 31 33  0  0  0  0  0  0  0  0999 V2000
    0.0806    2.8729   -3.0744 C   0  0  1  0  0  0  0  0  0  0  0  0
   -0.2708    1.7664   -2.1832 O   0  0  0  0  0  0  0  0  0  0  0  0
   -0.6732    0.4939   -2.7727 C   0  0  2  0  0  0  0  0  0  0  0  0
    0.4478   -0.1571   -3.4482 O   0  0  0  0  0  0  0  0  0  0  0  0
   -1.8571    0.7340   -3.7581 C   0  0  2  0  0  0  0  0  0  0  0  0
   -2.3349   -0.5029   -4.4068 N   0  3  0  0  0  0  0  0  0  0  0  0
   -1.4558    1.7839   -4.8262 C   0  0  0  0  0  0  0  0  0  0  0  0
   -1.0009    3.0949   -4.1675 C   0  0  0  0  0  0  0  0  0  0  0  0
    0.2405    4.1622   -2.2495 C   0  0  0  0  0  0  0  0  0  0  0  0
   -0.9277    4.4849   -1.4198 N   0  3  0  0  0  0  0  0  0  0  0  0
    1.2557   -0.7684   -1.2023 C   0  0  1  0  0  0  0  0  0  0  0  0
    2.5020   -0.9865   -0.3103 C   0  0  0  0  0  0  0  0  0  0  0  0
    3.4004    0.2795   -0.3125 C   0  0  1  0  0  0  0  0  0  0  0  0
    4.5423    0.0866    0.6016 N   0  3  0  0  0  0  0  0  0  0  0  0
    3.8648    0.6080   -1.7609 C   0  0  1  0  0  0  0  0  0  0  0  0
    2.6635    0.7370   -2.7306 C   0  0  1  0  0  0  0  0  0  0  0  0
    3.2076    0.8644   -4.0359 O   0  0  0  0  0  0  0  0  0  0  0  0
    1.6561   -0.4588   -2.6822 C   0  0  2  0  0  0  0  0  0  0  0  0
    0.3591   -1.9342   -1.1123 N   0  3  0  0  0  0  0  0  0  0  0  0
    7.4468    1.4149   -2.7415 C   0  0  0  0  0  0  0  0  0  0  0  0
    8.1302    2.8027   -2.6738 C   0  0  2  0  0  0  0  0  0  0  0  0
    9.2110    2.6903   -1.7489 O   0  0  0  0  0  0  0  0  0  0  0  0
    7.0861    3.8783   -2.1900 C   0  0  1  0  0  0  0  0  0  0  0  0
    6.2931    3.4282   -0.9162 C   0  0  2  0  0  0  0  0  0  0  0  0
    5.7862    1.9655   -0.9893 C   0  0  1  0  0  0  0  0  0  0  0  0
    4.5814    1.8753   -1.7942 O   0  0  0  0  0  0  0  0  0  0  0  0
    6.8307    1.0735   -1.4712 O   0  0  0  0  0  0  0  0  0  0  0  0
    5.1845    4.2870   -0.6618 O   0  0  0  0  0  0  0  0  0  0  0  0
    7.7785    5.1822   -1.9474 N   0  3  0  0  0  0  0  0  0  0  0  0
    6.9435    6.3091   -1.4841 C   0  0  0  0  0  0  0  0  0  0  0  0
    8.7422    3.1212   -4.0602 C   0  0  0  0  0  0  0  0  0  0  0  0
  1  8  1  0  0  0  0
  1  9  1  1  0  0  0
  1  2  1  0  0  0  0
  2  3  1  0  0  0  0
  3  5  1  0  0  0  0
  3  4  1  6  0  0  0
  5  7  1  0  0  0  0
  5  6  1  6  0  0  0
  7  8  1  0  0  0  0
  9 10  1  0  0  0  0
 11 12  1  0  0  0  0
 11 18  1  0  0  0  0
 11 19  1  6  0  0  0
 12 13  1  0  0  0  0
 13 15  1  0  0  0  0
 13 14  1  1  0  0  0
 15 16  1  0  0  0  0
 15 26  1  1  0  0  0
 16 18  1  0  0  0  0
 16 17  1  6  0  0  0
 18  4  1  6  0  0  0
 20 21  1  0  0  0  0
 20 27  1  0  0  0  0
 21 31  1  6  0  0  0
 21 23  1  0  0  0  0
 21 22  1  0  0  0  0
 23 24  1  0  0  0  0
 23 29  1  1  0  0  0
 24 25  1  0  0  0  0
 24 28  1  6  0  0  0
 25 27  1  0  0  0  0
 25 26  1  6  0  0  0
 29 30  1  0  0  0  0
M  CHG  5   6   1  10   1  14   1  19   1  29   1
M  END
>  <CHROM.1>
-54.33574490,57.72310553,31.92429159,139.25092898,-35.51679675,63.45702931
79.70607121,60.35287356,55.41684750,-60.92565259,-58.84405593,70.70669400
-169.66439439,3.22008663,1.78323376,-2.19520608,2.89235500,0.19851496,2.92575282

>  <Name>
1byj cryst

>  <RI>
0

>  <Rbt.Current_Directory>
/home/itssahil/PROJECTS/Mol_Feturizer/New_Systems/rnas/1byj

>  <Rbt.Executable>
rbdock ($Id: //depot/dev/client3/rdock/2013.1/src/exe/rbdock.cxx#4 $)

>  <Rbt.Library>
libRbt.so (2013.1, Build901 2013/11/27)

>  <Rbt.Parameter_File>
/export/apps/rDock/src/rDock_2013.1_src/data/scripts/dock_solv.prm

>  <Rbt.Receptor>
prm/pocket_docking_7.prm

>  <SCORE>
-35.1076

>  <SCORE.INTER>
-33.9411

>  <SCORE.INTER.CONST>
1

>  <SCORE.INTER.POLAR>
-4.55676

>  <SCORE.INTER.ROT>
6

>  <SCORE.INTER.SOLV>
18.7457

>  <SCORE.INTER.VDW>
-21.2868

>  <SCORE.INTER.norm>
-1.09488

>  <SCORE.INTRA>
-1.86944

>  <SCORE.INTRA.DIHEDRAL>
-8.55477

>  <SCORE.INTRA.DIHEDRAL.0>
18.4149

>  <SCORE.INTRA.POLAR>
-0.0529816

>  <SCORE.INTRA.POLAR.0>
0

>  <SCORE.INTRA.REPUL>
-0.092687

>  <SCORE.INTRA.REPUL.0>
0.092687

>  <SCORE.INTRA.SOLV>
0.316494

>  <SCORE.INTRA.SOLV.lig_0>
-120.37

>  <SCORE.INTRA.VDW>
2.89327

>  <SCORE.INTRA.VDW.0>
-1.75542

>  <SCORE.INTRA.norm>
-0.0603044

>  <SCORE.RESTR>
0.702998

>  <SCORE.RESTR.CAVITY>
0.702998

>  <SCORE.RESTR.norm>
0.0226774

>  <SCORE.SYSTEM>
0

>  <SCORE.SYSTEM.CONST>
0

>  <SCORE.SYSTEM.DIHEDRAL>
0

>  <SCORE.SYSTEM.SOLV>
0

>  <SCORE.SYSTEM.norm>
0

>  <SCORE.heavy>
31

>  <SCORE.norm>
-1.1325

>  <RMSD>
8.809

$$$$
1byj cryst
 OpenBabel11021811383D
libRbt.so/2013.1/901 2013/11/27
 31 33  0  0  0  0  0  0  0  0999 V2000
    1.4865   -0.9995   -7.3385 C   0  0  1  0  0  0  0  0  0  0  0  0
    0.2888   -1.7229   -7.7680 O   0  0  0  0  0  0  0  0  0  0  0  0
   -0.4649   -2.4805   -6.7747 C   0  0  2  0  0  0  0  0  0  0  0  0
   -1.1156   -1.5941   -5.8115 O   0  0  0  0  0  0  0  0  0  0  0  0
    0.4902   -3.4819   -6.0569 C   0  0  2  0  0  0  0  0  0  0  0  0
   -0.1864   -4.2970   -5.0290 N   0  3  0  0  0  0  0  0  0  0  0  0
    1.6916   -2.7213   -5.4388 C   0  0  0  0  0  0  0  0  0  0  0  0
    2.4359   -1.9048   -6.5061 C   0  0  0  0  0  0  0  0  0  0  0  0
    2.2386   -0.4769   -8.5751 C   0  0  0  0  0  0  0  0  0  0  0  0
    1.3848    0.2430   -9.5290 N   0  3  0  0  0  0  0  0  0  0  0  0
   -3.5315   -1.9276   -6.1617 C   0  0  1  0  0  0  0  0  0  0  0  0
   -4.8810   -2.2824   -5.4913 C   0  0  0  0  0  0  0  0  0  0  0  0
   -5.1635   -1.3282   -4.2999 C   0  0  1  0  0  0  0  0  0  0  0  0
   -6.4868   -1.6270   -3.7199 N   0  3  0  0  0  0  0  0  0  0  0  0
   -4.0276   -1.4366   -3.2417 C   0  0  1  0  0  0  0  0  0  0  0  0
   -2.6338   -1.1935   -3.8729 C   0  0  1  0  0  0  0  0  0  0  0  0
   -1.6761   -1.4835   -2.8655 O   0  0  0  0  0  0  0  0  0  0  0  0
   -2.3415   -2.0433   -5.1534 C   0  0  2  0  0  0  0  0  0  0  0  0
   -3.3214   -2.7700   -7.3524 N   0  3  0  0  0  0  0  0  0  0  0  0
   -2.7589    0.5106    0.3197 C   0  0  0  0  0  0  0  0  0  0  0  0
   -3.8391    1.2216    1.1713 C   0  0  2  0  0  0  0  0  0  0  0  0
   -3.9377    0.5058    2.4017 O   0  0  0  0  0  0  0  0  0  0  0  0
   -5.2119    1.2031    0.3989 C   0  0  1  0  0  0  0  0  0  0  0  0
   -5.5811   -0.2154   -0.1539 C   0  0  2  0  0  0  0  0  0  0  0  0
   -4.3961   -0.9364   -0.8450 C   0  0  1  0  0  0  0  0  0  0  0  0
   -4.2050   -0.4392   -2.1956 O   0  0  0  0  0  0  0  0  0  0  0  0
   -3.1823   -0.8291   -0.0488 O   0  0  0  0  0  0  0  0  0  0  0  0
   -6.6751   -0.1512   -1.0651 O   0  0  0  0  0  0  0  0  0  0  0  0
   -6.2985    1.7233    1.2860 N   0  3  0  0  0  0  0  0  0  0  0  0
   -6.3639    3.1863    1.4792 C   0  0  0  0  0  0  0  0  0  0  0  0
   -3.3434    2.6495    1.5080 C   0  0  0  0  0  0  0  0  0  0  0  0
  1  8  1  0  0  0  0
  1  9  1  6  0  0  0
  1  2  1  0  0  0  0
  2  3  1  0  0  0  0
  3  5  1  0  0  0  0
  3  4  1  1  0  0  0
  5  7  1  0  0  0  0
  5  6  1  1  0  0  0
  7  8  1  0  0  0  0
  9 10  1  0  0  0  0
 11 12  1  0  0  0  0
 11 18  1  0  0  0  0
 11 19  1  6  0  0  0
 12 13  1  0  0  0  0
 13 15  1  0  0  0  0
 13 14  1  1  0  0  0
 15 16  1  0  0  0  0
 15 26  1  1  0  0  0
 16 18  1  0  0  0  0
 16 17  1  1  0  0  0
 18  4  1  6  0  0  0
 20 21  1  0  0  0  0
 20 27  1  0  0  0  0
 21 31  1  1  0  0  0
 21 23  1  0  0  0  0
 21 22  1  0  0  0  0
 23 24  1  0  0  0  0
 23 29  1  1  0  0  0
 24 25  1  0  0  0  0
 24 28  1  6  0  0  0
 25 27  1  0  0  0  0
 25 26  1  6  0  0  0
 29 30  1  0  0  0  0
M  CHG  5   6   1  10   1  14   1  19   1  29   1
M  END
>  <CHROM.1>
49.67805145,152.49898057,-76.12690199,-57.98904328,14.57233784,-86.32672870
68.60903855,118.74346646,66.21126471,174.03794927,-162.07335556,51.63971979
-133.26320586,-2.66043732,-0.87434713,-3.43718563,-0.97352378,0.17389245
1.11056559

>  <Name>
1byj cryst

>  <RI>
0

>  <Rbt.Current_Directory>
/home/itssahil/PROJECTS/Mol_Feturizer/New_Systems/rnas/1byj

>  <Rbt.Executable>
rbdock ($Id: //depot/dev/client3/rdock/2013.1/src/exe/rbdock.cxx#4 $)

>  <Rbt.Library>
libRbt.so (2013.1, Build901 2013/11/27)

>  <Rbt.Parameter_File>
/export/apps/rDock/src/rDock_2013.1_src/data/scripts/dock_solv.prm

>  <Rbt.Receptor>
prm/blind_docking_20.prm

>  <SCORE>
-18.7399

>  <SCORE.INTER>
-24.3297

>  <SCORE.INTER.CONST>
1

>  <SCORE.INTER.POLAR>
-4.06366

>  <SCORE.INTER.ROT>
6

>  <SCORE.INTER.SOLV>
23.3292

>  <SCORE.INTER.VDW>
-18.0506

>  <SCORE.INTER.norm>
-0.784828

>  <SCORE.INTRA>
1.17055

>  <SCORE.INTRA.DIHEDRAL>
6.14448

>  <SCORE.INTRA.DIHEDRAL.0>
18.4149

>  <SCORE.INTRA.POLAR>
-0.84775

>  <SCORE.INTRA.POLAR.0>
0

>  <SCORE.INTRA.REPUL>
-0.092687

>  <SCORE.INTRA.REPUL.0>
0.092687

>  <SCORE.INTRA.SOLV>
2.39953

>  <SCORE.INTRA.SOLV.lig_0>
-120.37

>  <SCORE.INTRA.VDW>
0.244335

>  <SCORE.INTRA.VDW.0>
-1.75542

>  <SCORE.INTRA.norm>
0.0377598

>  <SCORE.RESTR>
4.41925

>  <SCORE.RESTR.CAVITY>
4.41925

>  <SCORE.RESTR.norm>
0.142556

>  <SCORE.SYSTEM>
0

>  <SCORE.SYSTEM.CONST>
0

>  <SCORE.SYSTEM.DIHEDRAL>
0

>  <SCORE.SYSTEM.SOLV>
0

>  <SCORE.SYSTEM.norm>
0

>  <SCORE.heavy>
31

>  <SCORE.norm>
-0.604512

>  <RMSD>
10.924

$$$$
1byj cryst
 OpenBabel11021811383D
libRbt.so/2013.1/901 2013/11/27
 31 33  0  0  0  0  0  0  0  0999 V2000
    0.3376   -3.2950   -6.9714 C   0  0  1  0  0  0  0  0  0  0  0  0
   -0.6166   -2.1854   -6.9507 O   0  0  0  0  0  0  0  0  0  0  0  0
   -1.9907   -2.4518   -6.5392 C   0  0  2  0  0  0  0  0  0  0  0  0
   -2.0643   -2.7899   -5.1189 O   0  0  0  0  0  0  0  0  0  0  0  0
   -2.5789   -3.5973   -7.4181 C   0  0  2  0  0  0  0  0  0  0  0  0
   -3.9730   -3.9387   -7.0731 N   0  3  0  0  0  0  0  0  0  0  0  0
   -1.6763   -4.8547   -7.3271 C   0  0  0  0  0  0  0  0  0  0  0  0
   -0.2306   -4.5264   -7.7293 C   0  0  0  0  0  0  0  0  0  0  0  0
    1.6395   -2.8367   -7.6520 C   0  0  0  0  0  0  0  0  0  0  0  0
    2.7222   -3.8272   -7.5903 N   0  3  0  0  0  0  0  0  0  0  0  0
   -0.5093   -2.6946   -3.2101 C   0  0  1  0  0  0  0  0  0  0  0  0
    0.0731   -1.8089   -2.0819 C   0  0  0  0  0  0  0  0  0  0  0  0
   -1.0678   -1.2196   -1.2097 C   0  0  1  0  0  0  0  0  0  0  0  0
   -0.4964   -0.4423   -0.0934 N   0  3  0  0  0  0  0  0  0  0  0  0
   -2.0262   -0.3608   -2.0847 C   0  0  1  0  0  0  0  0  0  0  0  0
   -2.5653   -1.1618   -3.2963 C   0  0  1  0  0  0  0  0  0  0  0  0
   -3.2806   -0.2404   -4.1059 O   0  0  0  0  0  0  0  0  0  0  0  0
   -1.4642   -1.8806   -4.1438 C   0  0  2  0  0  0  0  0  0  0  0  0
    0.5824   -3.3311   -3.9679 N   0  3  0  0  0  0  0  0  0  0  0  0
   -4.8061    2.2542    0.0740 C   0  0  0  0  0  0  0  0  0  0  0  0
   -5.4588    1.5675    1.2987 C   0  0  2  0  0  0  0  0  0  0  0  0
   -4.9706    2.2363    2.4608 O   0  0  0  0  0  0  0  0  0  0  0  0
   -5.0612    0.0433    1.3189 C   0  0  1  0  0  0  0  0  0  0  0  0
   -3.5239   -0.1881    1.1262 C   0  0  2  0  0  0  0  0  0  0  0  0
   -2.9088    0.6655   -0.0116 C   0  0  1  0  0  0  0  0  0  0  0  0
   -3.1798    0.0714   -1.3082 O   0  0  0  0  0  0  0  0  0  0  0  0
   -3.3688    2.0446    0.0620 O   0  0  0  0  0  0  0  0  0  0  0  0
   -3.2301   -1.5611    0.8815 O   0  0  0  0  0  0  0  0  0  0  0  0
   -5.5345   -0.5861    2.5910 N   0  3  0  0  0  0  0  0  0  0  0  0
   -5.2778   -2.0308    2.7605 C   0  0  0  0  0  0  0  0  0  0  0  0
   -6.9884    1.8022    1.2410 C   0  0  0  0  0  0  0  0  0  0  0  0
  1  8  1  0  0  0  0
  1  9  1  6  0  0  0
  1  2  1  0  0  0  0
  2  3  1  0  0  0  0
  3  5  1  0  0  0  0
  3  4  1  1  0  0  0
  5  7  1  0  0  0  0
  5  6  1  1  0  0  0
  7  8  1  0  0  0  0
  9 10  1  0  0  0  0
 11 12  1  0  0  0  0
 11 18  1  0  0  0  0
 11 19  1  6  0  0  0
 12 13  1  0  0  0  0
 13 15  1  0  0  0  0
 13 14  1  1  0  0  0
 15 16  1  0  0  0  0
 15 26  1  1  0  0  0
 16 18  1  0  0  0  0
 16 17  1  6  0  0  0
 18  4  1  6  0  0  0
 20 21  1  0  0  0  0
 20 27  1  0  0  0  0
 21 31  1  6  0  0  0
 21 23  1  0  0  0  0
 21 22  1  0  0  0  0
 23 24  1  0  0  0  0
 23 29  1  1  0  0  0
 24 25  1  0  0  0  0
 24 28  1  6  0  0  0
 25 27  1  0  0  0  0
 25 26  1  6  0  0  0
 29 30  1  0  0  0  0
M  CHG  5   6   1  10   1  14   1  19   1  29   1
M  END
>  <CHROM.1>
173.41221974,53.25535684,-128.25174880,-174.71130255,67.26258336,55.21770998
89.84880972,48.89704479,-68.75840104,52.22015324,-60.60086626,57.80632567
-117.25871203,-2.36856965,-1.32736288,-2.63038673,-1.12093859,-0.12518596
1.16442091

>  <Name>
1byj cryst

>  <RI>
0

>  <Rbt.Current_Directory>
/home/itssahil/PROJECTS/Mol_Feturizer/New_Systems/rnas/1byj

>  <Rbt.Executable>
rbdock ($Id: //depot/dev/client3/rdock/2013.1/src/exe/rbdock.cxx#4 $)

>  <Rbt.Library>
libRbt.so (2013.1, Build901 2013/11/27)

>  <Rbt.Parameter_File>
/export/apps/rDock/src/rDock_2013.1_src/data/scripts/dock_solv.prm

>  <Rbt.Receptor>
prm/blind_docking_20.prm

>  <SCORE>
1.22349

>  <SCORE.INTER>
-11.6398

>  <SCORE.INTER.CONST>
1

>  <SCORE.INTER.POLAR>
-1.96276

>  <SCORE.INTER.ROT>
6

>  <SCORE.INTER.SOLV>
17.1745

>  <SCORE.INTER.VDW>
-14.5421

>  <SCORE.INTER.norm>
-0.375476

>  <SCORE.INTRA>
3.22936

>  <SCORE.INTRA.DIHEDRAL>
-0.47538

>  <SCORE.INTRA.DIHEDRAL.0>
18.4149

>  <SCORE.INTRA.POLAR>
-0.0973805

>  <SCORE.INTRA.POLAR.0>
0

>  <SCORE.INTRA.REPUL>
-0.092687

>  <SCORE.INTRA.REPUL.0>
0.092687

>  <SCORE.INTRA.SOLV>
2.79745

>  <SCORE.INTRA.SOLV.lig_0>
-120.37

>  <SCORE.INTRA.VDW>
2.86286

>  <SCORE.INTRA.VDW.0>
-1.75542

>  <SCORE.INTRA.norm>
0.104173

>  <SCORE.RESTR>
9.63389

>  <SCORE.RESTR.CAVITY>
9.63389

>  <SCORE.RESTR.norm>
0.310771

>  <SCORE.SYSTEM>
0

>  <SCORE.SYSTEM.CONST>
0

>  <SCORE.SYSTEM.DIHEDRAL>
0

>  <SCORE.SYSTEM.SOLV>
0

>  <SCORE.SYSTEM.norm>
0

>  <SCORE.heavy>
31

>  <SCORE.norm>
0.0394673

>  <RMSD>
10.937

$$$$
1byj cryst
 OpenBabel11021811383D
libRbt.so/2013.1/901 2013/11/27
 31 33  0  0  0  0  0  0  0  0999 V2000
    1.7065   -1.9068   -7.7866 C   0  0  1  0  0  0  0  0  0  0  0  0
    0.3923   -2.4035   -8.1968 O   0  0  0  0  0  0  0  0  0  0  0  0
   -0.4660   -3.0234   -7.1930 C   0  0  2  0  0  0  0  0  0  0  0  0
   -0.9323   -2.0433   -6.2138 O   0  0  0  0  0  0  0  0  0  0  0  0
    0.3093   -4.1835   -6.4977 C   0  0  2  0  0  0  0  0  0  0  0  0
   -0.4827   -4.8740   -5.4609 N   0  3  0  0  0  0  0  0  0  0  0  0
    1.6371   -3.6522   -5.8988 C   0  0  0  0  0  0  0  0  0  0  0  0
    2.4952   -2.9721   -6.9762 C   0  0  0  0  0  0  0  0  0  0  0  0
    2.5173   -1.5160   -9.0348 C   0  0  0  0  0  0  0  0  0  0  0  0
    2.6294   -2.5901  -10.0303 N   0  3  0  0  0  0  0  0  0  0  0  0
   -3.3821   -2.0226   -6.4761 C   0  0  1  0  0  0  0  0  0  0  0  0
   -4.7440   -2.1611   -5.7532 C   0  0  0  0  0  0  0  0  0  0  0  0
   -4.8398   -1.1532   -4.5765 C   0  0  1  0  0  0  0  0  0  0  0  0
   -6.1708   -1.2420   -3.9461 N   0  3  0  0  0  0  0  0  0  0  0  0
   -3.6947   -1.4083   -3.5540 C   0  0  1  0  0  0  0  0  0  0  0  0
   -2.3040   -1.3859   -4.2364 C   0  0  1  0  0  0  0  0  0  0  0  0
   -1.3637   -1.7952   -3.2544 O   0  0  0  0  0  0  0  0  0  0  0  0
   -2.1865   -2.2937   -5.5050 C   0  0  2  0  0  0  0  0  0  0  0  0
   -3.3414   -2.9092   -7.6523 N   0  3  0  0  0  0  0  0  0  0  0  0
   -2.2991    0.9942   -0.1774 C   0  0  0  0  0  0  0  0  0  0  0  0
   -3.4423    1.5064    0.7327 C   0  0  2  0  0  0  0  0  0  0  0  0
   -3.2954    0.8544    1.9934 O   0  0  0  0  0  0  0  0  0  0  0  0
   -4.8313    1.1561    0.0773 C   0  0  1  0  0  0  0  0  0  0  0  0
   -4.9261   -0.3364   -0.3888 C   0  0  2  0  0  0  0  0  0  0  0  0
   -3.6671   -0.8276   -1.1473 C   0  0  1  0  0  0  0  0  0  0  0  0
   -3.6855   -0.3760   -2.5269 O   0  0  0  0  0  0  0  0  0  0  0  0
   -2.4503   -0.4229   -0.4584 O   0  0  0  0  0  0  0  0  0  0  0  0
   -6.0714   -0.5548   -1.2084 O   0  0  0  0  0  0  0  0  0  0  0  0
   -5.9372    1.4827    1.0306 N   0  3  0  0  0  0  0  0  0  0  0  0
   -6.6082    2.7873    0.8578 C   0  0  0  0  0  0  0  0  0  0  0  0
   -3.2420    3.0231    0.9729 C   0  0  0  0  0  0  0  0  0  0  0  0
  1  8  1  0  0  0  0
  1  9  1  6  0  0  0
  1  2  1  0  0  0  0
  2  3  1  0  0  0  0
  3  5  1  0  0  0  0
  3  4  1  1  0  0  0
  5  7  1  0  0  0  0
  5  6  1  1  0  0  0
  7  8  1  0  0  0  0
  9 10  1  0  0  0  0
 11 12  1  0  0  0  0
 11 18  1  0  0  0  0
 11 19  1  6  0  0  0
 12 13  1  0  0  0  0
 13 15  1  0  0  0  0
 13 14  1  1  0  0  0
 15 16  1  0  0  0  0
 15 26  1  1  0  0  0
 16 18  1  0  0  0  0
 16 17  1  1  0  0  0
 18  4  1  6  0  0  0
 20 21  1  0  0  0  0
 20 27  1  0  0  0  0
 21 31  1  1  0  0  0
 21 23  1  0  0  0  0
 21 22  1  0  0  0  0
 23 24  1  0  0  0  0
 23 29  1  1  0  0  0
 24 25  1  0  0  0  0
 24 28  1  6  0  0  0
 25 27  1  0  0  0  0
 25 26  1  6  0  0  0
 29 30  1  0  0  0  0
M  CHG  5   6   1  10   1  14   1  19   1  29   1
M  END
>  <CHROM.1>
-54.27304353,154.34662254,-75.09326669,58.27455697,28.89053111,150.08632350
178.68027426,129.02959301,-177.93017874,-58.95035170,-142.12578220,-59.51723751
-118.99645225,-2.36404286,-1.18393079,-3.81543100,-1.01612359,0.04724870
1.08761471

>  <Name>
1byj cryst

>  <RI>
0

>  <Rbt.Current_Directory>
/home/itssahil/PROJECTS/Mol_Feturizer/New_Systems/rnas/1byj

>  <Rbt.Executable>
rbdock ($Id: //depot/dev/client3/rdock/2013.1/src/exe/rbdock.cxx#4 $)

>  <Rbt.Library>
libRbt.so (2013.1, Build901 2013/11/27)

>  <Rbt.Parameter_File>
/export/apps/rDock/src/rDock_2013.1_src/data/scripts/dock_solv.prm

>  <Rbt.Receptor>
prm/blind_docking_20.prm

>  <SCORE>
-17.2893

>  <SCORE.INTER>
-20.2822

>  <SCORE.INTER.CONST>
1

>  <SCORE.INTER.POLAR>
-2.54209

>  <SCORE.INTER.ROT>
6

>  <SCORE.INTER.SOLV>
14.8092

>  <SCORE.INTER.VDW>
-17.5842

>  <SCORE.INTER.norm>
-0.654264

>  <SCORE.INTRA>
-0.756231

>  <SCORE.INTRA.DIHEDRAL>
5.9047

>  <SCORE.INTRA.DIHEDRAL.0>
18.4149

>  <SCORE.INTRA.POLAR>
-1.03133

>  <SCORE.INTRA.POLAR.0>
0

>  <SCORE.INTRA.REPUL>
-0.084761

>  <SCORE.INTRA.REPUL.0>
0.092687

>  <SCORE.INTRA.SOLV>
4.47932

>  <SCORE.INTRA.SOLV.lig_0>
-120.37

>  <SCORE.INTRA.VDW>
-2.01791

>  <SCORE.INTRA.VDW.0>
-1.75542

>  <SCORE.INTRA.norm>
-0.0243946

>  <SCORE.RESTR>
3.74908

>  <SCORE.RESTR.CAVITY>
3.74908

>  <SCORE.RESTR.norm>
0.120938

>  <SCORE.SYSTEM>
0

>  <SCORE.SYSTEM.CONST>
0

>  <SCORE.SYSTEM.DIHEDRAL>
0

>  <SCORE.SYSTEM.SOLV>
0

>  <SCORE.SYSTEM.norm>
0

>  <SCORE.heavy>
31

>  <SCORE.norm>
-0.557721

>  <RMSD>
10.948

$$$$
1byj cryst
 OpenBabel11021811383D
libRbt.so/2013.1/901 2013/11/27
 31 33  0  0  0  0  0  0  0  0999 V2000
    2.5515   -2.7803   -9.3201 C   0  0  1  0  0  0  0  0  0  0  0  0
    2.4389   -2.7698   -7.8609 O   0  0  0  0  0  0  0  0  0  0  0  0
    1.9263   -1.5705   -7.2072 C   0  0  2  0  0  0  0  0  0  0  0  0
    0.5102   -1.3659   -7.5067 O   0  0  0  0  0  0  0  0  0  0  0  0
    2.7751   -0.3399   -7.6494 C   0  0  2  0  0  0  0  0  0  0  0  0
    2.3284    0.9263   -7.0360 N   0  3  0  0  0  0  0  0  0  0  0  0
    2.7747   -0.2210   -9.1953 C   0  0  0  0  0  0  0  0  0  0  0  0
    3.2827   -1.5153   -9.8483 C   0  0  0  0  0  0  0  0  0  0  0  0
    3.3236   -4.0352   -9.7640 C   0  0  0  0  0  0  0  0  0  0  0  0
    3.5277   -4.1241  -11.2158 N   0  3  0  0  0  0  0  0  0  0  0  0
   -1.5695   -2.4630   -8.2427 C   0  0  1  0  0  0  0  0  0  0  0  0
   -2.6761   -3.4799   -7.8713 C   0  0  0  0  0  0  0  0  0  0  0  0
   -3.3305   -3.1002   -6.5158 C   0  0  1  0  0  0  0  0  0  0  0  0
   -4.4341   -4.0314   -6.2126 N   0  3  0  0  0  0  0  0  0  0  0  0
   -2.2596   -3.0815   -5.3870 C   0  0  1  0  0  0  0  0  0  0  0  0
   -1.0685   -2.1577   -5.7448 C   0  0  1  0  0  0  0  0  0  0  0  0
   -0.0882   -2.3504   -4.7358 O   0  0  0  0  0  0  0  0  0  0  0  0
   -0.4454   -2.4156   -7.1563 C   0  0  2  0  0  0  0  0  0  0  0  0
   -1.0259   -2.7719   -9.5770 N   0  3  0  0  0  0  0  0  0  0  0  0
   -5.5676   -1.7771   -3.0529 C   0  0  0  0  0  0  0  0  0  0  0  0
   -5.2728   -0.8480   -1.8498 C   0  0  2  0  0  0  0  0  0  0  0  0
   -5.8511    0.4211   -2.1519 O   0  0  0  0  0  0  0  0  0  0  0  0
   -3.7149   -0.7232   -1.6531 C   0  0  1  0  0  0  0  0  0  0  0  0
   -2.9562   -0.4016   -2.9853 C   0  0  2  0  0  0  0  0  0  0  0  0
   -3.4287   -1.2584   -4.1873 C   0  0  1  0  0  0  0  0  0  0  0  0
   -2.8327   -2.5815   -4.1452 O   0  0  0  0  0  0  0  0  0  0  0  0
   -4.8818   -1.3177   -4.2481 O   0  0  0  0  0  0  0  0  0  0  0  0
   -1.5477   -0.5585   -2.8340 O   0  0  0  0  0  0  0  0  0  0  0  0
   -3.4176    0.3109   -0.6135 N   0  3  0  0  0  0  0  0  0  0  0  0
   -2.3022    0.0291    0.3130 C   0  0  0  0  0  0  0  0  0  0  0  0
   -6.0064   -1.4032   -0.6042 C   0  0  0  0  0  0  0  0  0  0  0  0
  1  8  1  0  0  0  0
  1  9  1  1  0  0  0
  1  2  1  0  0  0  0
  2  3  1  0  0  0  0
  3  5  1  0  0  0  0
  3  4  1  6  0  0  0
  5  7  1  0  0  0  0
  5  6  1  1  0  0  0
  7  8  1  0  0  0  0
  9 10  1  0  0  0  0
 11 12  1  0  0  0  0
 11 18  1  0  0  0  0
 11 19  1  6  0  0  0
 12 13  1  0  0  0  0
 13 15  1  0  0  0  0
 13 14  1  1  0  0  0
 15 16  1  0  0  0  0
 15 26  1  1  0  0  0
 16 18  1  0  0  0  0
 16 17  1  1  0  0  0
 18  4  1  6  0  0  0
 20 21  1  0  0  0  0
 20 27  1  0  0  0  0
 21 31  1  1  0  0  0
 21 23  1  0  0  0  0
 21 22  1  0  0  0  0
 23 24  1  0  0  0  0
 23 29  1  1  0  0  0
 24 25  1  0  0  0  0
 24 28  1  1  0  0  0
 25 27  1  0  0  0  0
 25 26  1  1  0  0  0
 29 30  1  0  0  0  0
M  CHG  5   6   1  10   1  14   1  19   1  29   1
M  END
>  <CHROM.1>
-178.32002642,58.25717698,-144.89212404,-62.72244248,70.68669771,57.53125134
175.94964376,-57.36615358,-67.53050684,172.70942434,-97.39353312,-60.00770548
-133.16865127,-1.26486755,-1.72343974,-5.67055629,-0.75239968,0.38137886
0.98952711

>  <Name>
1byj cryst

>  <RI>
0

>  <Rbt.Current_Directory>
/home/itssahil/PROJECTS/Mol_Feturizer/New_Systems/rnas/1byj

>  <Rbt.Executable>
rbdock ($Id: //depot/dev/client3/rdock/2013.1/src/exe/rbdock.cxx#4 $)

>  <Rbt.Library>
libRbt.so (2013.1, Build901 2013/11/27)

>  <Rbt.Parameter_File>
/export/apps/rDock/src/rDock_2013.1_src/data/scripts/dock_solv.prm

>  <Rbt.Receptor>
prm/blind_docking_20.prm

>  <SCORE>
33.3216

>  <SCORE.INTER>
36.0282

>  <SCORE.INTER.CONST>
1

>  <SCORE.INTER.POLAR>
-1.56489

>  <SCORE.INTER.ROT>
6

>  <SCORE.INTER.SOLV>
21.0507

>  <SCORE.INTER.VDW>
14.6182

>  <SCORE.INTER.norm>
1.1622

>  <SCORE.INTRA>
-7.55156

>  <SCORE.INTRA.DIHEDRAL>
-3.79911

>  <SCORE.INTRA.DIHEDRAL.0>
18.4149

>  <SCORE.INTRA.POLAR>
-0.988581

>  <SCORE.INTRA.POLAR.0>
0

>  <SCORE.INTRA.REPUL>
-0.092687

>  <SCORE.INTRA.REPUL.0>
0.092687

>  <SCORE.INTRA.SOLV>
-0.681316

>  <SCORE.INTRA.SOLV.lig_0>
-120.37

>  <SCORE.INTRA.VDW>
-1.48674

>  <SCORE.INTRA.VDW.0>
-1.75542

>  <SCORE.INTRA.norm>
-0.243599

>  <SCORE.RESTR>
4.84493

>  <SCORE.RESTR.CAVITY>
4.84493

>  <SCORE.RESTR.norm>
0.156288

>  <SCORE.SYSTEM>
0

>  <SCORE.SYSTEM.CONST>
0

>  <SCORE.SYSTEM.DIHEDRAL>
0

>  <SCORE.SYSTEM.SOLV>
0

>  <SCORE.SYSTEM.norm>
0

>  <SCORE.heavy>
31

>  <SCORE.norm>
1.07489

>  <RMSD>
11.133

$$$$
1byj cryst
 OpenBabel11021811383D
libRbt.so/2013.1/901 2013/11/27
 31 33  0  0  0  0  0  0  0  0999 V2000
    1.3747   -0.4435   -6.7710 C   0  0  1  0  0  0  0  0  0  0  0  0
    0.1592   -1.1312   -6.3330 O   0  0  0  0  0  0  0  0  0  0  0  0
    0.2587   -2.1103   -5.2559 C   0  0  2  0  0  0  0  0  0  0  0  0
    0.5813   -1.4688   -3.9826 O   0  0  0  0  0  0  0  0  0  0  0  0
    1.3285   -3.1808   -5.6299 C   0  0  2  0  0  0  0  0  0  0  0  0
    1.5003   -4.2188   -4.5945 N   0  3  0  0  0  0  0  0  0  0  0  0
    2.6843   -2.4937   -5.9363 C   0  0  0  0  0  0  0  0  0  0  0  0
    2.5319   -1.4430   -7.0464 C   0  0  0  0  0  0  0  0  0  0  0  0
    1.0768    0.3536   -8.0532 C   0  0  0  0  0  0  0  0  0  0  0  0
    0.6238   -0.4767   -9.1768 N   0  3  0  0  0  0  0  0  0  0  0  0
   -0.9059   -1.8893   -2.0638 C   0  0  1  0  0  0  0  0  0  0  0  0
   -2.1246   -1.3778   -1.2579 C   0  0  0  0  0  0  0  0  0  0  0  0
   -3.3492   -1.1799   -2.1912 C   0  0  1  0  0  0  0  0  0  0  0  0
   -4.5233   -0.7675   -1.3987 N   0  3  0  0  0  0  0  0  0  0  0  0
   -3.0133   -0.1517   -3.3100 C   0  0  1  0  0  0  0  0  0  0  0  0
   -1.7370   -0.5535   -4.0908 C   0  0  1  0  0  0  0  0  0  0  0  0
   -1.4342    0.5292   -4.9580 O   0  0  0  0  0  0  0  0  0  0  0  0
   -0.5004   -0.8843   -3.1914 C   0  0  2  0  0  0  0  0  0  0  0  0
    0.2189   -2.1721   -1.1548 N   0  3  0  0  0  0  0  0  0  0  0  0
   -6.5083   -0.3910   -6.1250 C   0  0  0  0  0  0  0  0  0  0  0  0
   -6.0602   -1.3966   -7.2139 C   0  0  2  0  0  0  0  0  0  0  0  0
   -6.9266   -2.5264   -7.1197 O   0  0  0  0  0  0  0  0  0  0  0  0
   -4.5628   -1.8136   -6.9583 C   0  0  1  0  0  0  0  0  0  0  0  0
   -4.2907   -2.2274   -5.4721 C   0  0  2  0  0  0  0  0  0  0  0  0
   -4.9189   -1.2601   -4.4369 C   0  0  1  0  0  0  0  0  0  0  0  0
   -4.1002   -0.0721   -4.2759 O   0  0  0  0  0  0  0  0  0  0  0  0
   -6.2911   -0.9310   -4.7942 O   0  0  0  0  0  0  0  0  0  0  0  0
   -2.8943   -2.3387   -5.2093 O   0  0  0  0  0  0  0  0  0  0  0  0
   -4.1787   -2.9174   -7.8923 N   0  3  0  0  0  0  0  0  0  0  0  0
   -2.8454   -3.5239   -7.7016 C   0  0  0  0  0  0  0  0  0  0  0  0
   -6.2899   -0.7552   -8.6046 C   0  0  0  0  0  0  0  0  0  0  0  0
  1  8  1  0  0  0  0
  1  9  1  6  0  0  0
  1  2  1  0  0  0  0
  2  3  1  0  0  0  0
  3  5  1  0  0  0  0
  3  4  1  1  0  0  0
  5  7  1  0  0  0  0
  5  6  1  1  0  0  0
  7  8  1  0  0  0  0
  9 10  1  0  0  0  0
 11 12  1  0  0  0  0
 11 18  1  0  0  0  0
 11 19  1  1  0  0  0
 12 13  1  0  0  0  0
 13 15  1  0  0  0  0
 13 14  1  1  0  0  0
 15 16  1  0  0  0  0
 15 26  1  6  0  0  0
 16 18  1  0  0  0  0
 16 17  1  6  0  0  0
 18  4  1  6  0  0  0
 20 21  1  0  0  0  0
 20 27  1  0  0  0  0
 21 31  1  6  0  0  0
 21 23  1  0  0  0  0
 21 22  1  0  0  0  0
 23 24  1  0  0  0  0
 23 29  1  6  0  0  0
 24 25  1  0  0  0  0
 24 28  1  6  0  0  0
 25 27  1  0  0  0  0
 25 26  1  6  0  0  0
 29 30  1  0  0  0  0
M  CHG  5   6   1  10   1  14   1  19   1  29   1
M  END
>  <CHROM.1>
-60.33092267,83.30835564,99.14713131,-148.60626229,135.76235171,127.89059437
26.58252661,-27.59212011,-156.80156991,-62.85323819,-53.08989013,-167.83345096
-86.30400906,-2.10637471,-1.47698037,-5.23678710,-0.07540836,0.06157684,-1.60407446

>  <Name>
1byj cryst

>  <RI>
0

>  <Rbt.Current_Directory>
/home/itssahil/PROJECTS/Mol_Feturizer/New_Systems/rnas/1byj

>  <Rbt.Executable>
rbdock ($Id: //depot/dev/client3/rdock/2013.1/src/exe/rbdock.cxx#4 $)

>  <Rbt.Library>
libRbt.so (2013.1, Build901 2013/11/27)

>  <Rbt.Parameter_File>
/export/apps/rDock/src/rDock_2013.1_src/data/scripts/dock_solv.prm

>  <Rbt.Receptor>
prm/blind_docking_20.prm

>  <SCORE>
-16.2768

>  <SCORE.INTER>
-34.0316

>  <SCORE.INTER.CONST>
1

>  <SCORE.INTER.POLAR>
-5.36697

>  <SCORE.INTER.ROT>
6

>  <SCORE.INTER.SOLV>
30.6891

>  <SCORE.INTER.VDW>
-22.6275

>  <SCORE.INTER.norm>
-1.09779

>  <SCORE.INTRA>
9.3941

>  <SCORE.INTRA.DIHEDRAL>
10.0161

>  <SCORE.INTRA.DIHEDRAL.0>
18.4149

>  <SCORE.INTRA.POLAR>
-0.928996

>  <SCORE.INTRA.POLAR.0>
0

>  <SCORE.INTRA.REPUL>
0.066845

>  <SCORE.INTRA.REPUL.0>
0.092687

>  <SCORE.INTRA.SOLV>
1.21739

>  <SCORE.INTRA.SOLV.lig_0>
-120.37

>  <SCORE.INTRA.VDW>
6.60173

>  <SCORE.INTRA.VDW.0>
-1.75542

>  <SCORE.INTRA.norm>
0.303035

>  <SCORE.RESTR>
8.36066

>  <SCORE.RESTR.CAVITY>
8.36066

>  <SCORE.RESTR.norm>
0.269699

>  <SCORE.SYSTEM>
0

>  <SCORE.SYSTEM.CONST>
0

>  <SCORE.SYSTEM.DIHEDRAL>
0

>  <SCORE.SYSTEM.SOLV>
0

>  <SCORE.SYSTEM.norm>
0

>  <SCORE.heavy>
31

>  <SCORE.norm>
-0.525059

>  <RMSD>
11.201

$$$$
1byj cryst
 OpenBabel11021811383D
libRbt.so/2013.1/901 2013/11/27
 31 33  0  0  0  0  0  0  0  0999 V2000
    3.6056   -3.7640   -9.5070 C   0  0  1  0  0  0  0  0  0  0  0  0
    3.5866   -2.4808   -8.8033 O   0  0  0  0  0  0  0  0  0  0  0  0
    2.2996   -1.9174   -8.4100 C   0  0  2  0  0  0  0  0  0  0  0  0
    1.6676   -2.7165   -7.3617 O   0  0  0  0  0  0  0  0  0  0  0  0
    1.3791   -1.8108   -9.6637 C   0  0  2  0  0  0  0  0  0  0  0  0
    0.0478   -1.2487   -9.3625 N   0  3  0  0  0  0  0  0  0  0  0  0
    1.2390   -3.1987  -10.3405 C   0  0  0  0  0  0  0  0  0  0  0  0
    2.6150   -3.7768  -10.7038 C   0  0  0  0  0  0  0  0  0  0  0  0
    5.0284   -4.0427  -10.0230 C   0  0  0  0  0  0  0  0  0  0  0  0
    5.4001   -5.4635  -10.0011 N   0  3  0  0  0  0  0  0  0  0  0  0
    1.6133   -2.2413   -4.9447 C   0  0  1  0  0  0  0  0  0  0  0  0
    0.7890   -1.6392   -3.7809 C   0  0  0  0  0  0  0  0  0  0  0  0
   -0.6098   -2.3078   -3.7028 C   0  0  1  0  0  0  0  0  0  0  0  0
   -1.3544   -1.7807   -2.5432 N   0  3  0  0  0  0  0  0  0  0  0  0
   -1.3840   -2.0948   -5.0358 C   0  0  1  0  0  0  0  0  0  0  0  0
   -0.5651   -2.5841   -6.2565 C   0  0  1  0  0  0  0  0  0  0  0  0
   -1.2859   -2.1878   -7.4138 O   0  0  0  0  0  0  0  0  0  0  0  0
    0.8988   -2.0360   -6.3207 C   0  0  2  0  0  0  0  0  0  0  0  0
    2.9738   -1.6750   -4.9467 N   0  3  0  0  0  0  0  0  0  0  0  0
   -5.4619   -3.9740   -5.2240 C   0  0  0  0  0  0  0  0  0  0  0  0
   -6.3249   -3.0852   -4.2950 C   0  0  2  0  0  0  0  0  0  0  0  0
   -7.3180   -2.4682   -5.1131 O   0  0  0  0  0  0  0  0  0  0  0  0
   -5.4105   -2.0021   -3.6079 C   0  0  1  0  0  0  0  0  0  0  0  0
   -4.4826   -1.2541   -4.6246 C   0  0  2  0  0  0  0  0  0  0  0  0
   -3.7841   -2.1999   -5.6344 C   0  0  1  0  0  0  0  0  0  0  0  0
   -2.6327   -2.8439   -5.0284 O   0  0  0  0  0  0  0  0  0  0  0  0
   -4.7241   -3.1677   -6.1808 O   0  0  0  0  0  0  0  0  0  0  0  0
   -3.4893   -0.4829   -3.9539 O   0  0  0  0  0  0  0  0  0  0  0  0
   -6.2594   -1.0284   -2.8532 N   0  3  0  0  0  0  0  0  0  0  0  0
   -6.6934   -1.4264   -1.4985 C   0  0  0  0  0  0  0  0  0  0  0  0
   -7.0629   -3.9965   -3.2836 C   0  0  0  0  0  0  0  0  0  0  0  0
  1  8  1  0  0  0  0
  1  9  1  6  0  0  0
  1  2  1  0  0  0  0
  2  3  1  0  0  0  0
  3  5  1  0  0  0  0
  3  4  1  1  0  0  0
  5  7  1  0  0  0  0
  5  6  1  1  0  0  0
  7  8  1  0  0  0  0
  9 10  1  0  0  0  0
 11 12  1  0  0  0  0
 11 18  1  0  0  0  0
 11 19  1  6  0  0  0
 12 13  1  0  0  0  0
 13 15  1  0  0  0  0
 13 14  1  1  0  0  0
 15 16  1  0  0  0  0
 15 26  1  1  0  0  0
 16 18  1  0  0  0  0
 16 17  1  6  0  0  0
 18  4  1  6  0  0  0
 20 21  1  0  0  0  0
 20 27  1  0  0  0  0
 21 31  1  1  0  0  0
 21 23  1  0  0  0  0
 21 22  1  0  0  0  0
 23 24  1  0  0  0  0
 23 29  1  6  0  0  0
 24 25  1  0  0  0  0
 24 28  1  1  0  0  0
 25 27  1  0  0  0  0
 25 26  1  1  0  0  0
 29 30  1  0  0  0  0
M  CHG  5   6   1  10   1  14   1  19   1  29   1
M  END
>  <CHROM.1>
145.38046062,144.00147935,-114.85935441,81.25895534,-130.28013763,-150.92188267
89.15656377,141.52961383,27.24117813,174.21703633,-156.41493922,-174.66641450
-84.19633389,-1.16152790,-2.46482624,-6.13236175,0.54463480,-0.07571117,-1.88663079

>  <Name>
1byj cryst

>  <RI>
0

>  <Rbt.Current_Directory>
/home/itssahil/PROJECTS/Mol_Feturizer/New_Systems/rnas/1byj

>  <Rbt.Executable>
rbdock ($Id: //depot/dev/client3/rdock/2013.1/src/exe/rbdock.cxx#4 $)

>  <Rbt.Library>
libRbt.so (2013.1, Build901 2013/11/27)

>  <Rbt.Parameter_File>
/export/apps/rDock/src/rDock_2013.1_src/data/scripts/dock_solv.prm

>  <Rbt.Receptor>
prm/blind_docking_40.prm

>  <SCORE>
-6.08218

>  <SCORE.INTER>
-19.232

>  <SCORE.INTER.CONST>
1

>  <SCORE.INTER.POLAR>
-4.5615

>  <SCORE.INTER.ROT>
6

>  <SCORE.INTER.SOLV>
27.8346

>  <SCORE.INTER.VDW>
-14.4945

>  <SCORE.INTER.norm>
-0.620387

>  <SCORE.INTRA>
5.896

>  <SCORE.INTRA.DIHEDRAL>
17.7383

>  <SCORE.INTRA.DIHEDRAL.0>
18.4149

>  <SCORE.INTRA.POLAR>
-1.76432

>  <SCORE.INTRA.POLAR.0>
0

>  <SCORE.INTRA.REPUL>
-0.092687

>  <SCORE.INTRA.REPUL.0>
0.092687

>  <SCORE.INTRA.SOLV>
2.90513

>  <SCORE.INTRA.SOLV.lig_0>
-120.37

>  <SCORE.INTRA.VDW>
2.03639

>  <SCORE.INTRA.VDW.0>
-1.75542

>  <SCORE.INTRA.norm>
0.190194

>  <SCORE.RESTR>
7.2538

>  <SCORE.RESTR.CAVITY>
7.2538

>  <SCORE.RESTR.norm>
0.233994

>  <SCORE.SYSTEM>
0

>  <SCORE.SYSTEM.CONST>
0

>  <SCORE.SYSTEM.DIHEDRAL>
0

>  <SCORE.SYSTEM.SOLV>
0

>  <SCORE.SYSTEM.norm>
0

>  <SCORE.heavy>
31

>  <SCORE.norm>
-0.196199

>  <RMSD>
11.461

$$$$
1byj cryst
 OpenBabel11021811383D
libRbt.so/2013.1/901 2013/11/27
 31 33  0  0  0  0  0  0  0  0999 V2000
    1.3533   -2.2590   -4.4990 C   0  0  1  0  0  0  0  0  0  0  0  0
    0.3184   -1.6445   -5.3318 O   0  0  0  0  0  0  0  0  0  0  0  0
    0.6506   -1.2790   -6.7046 C   0  0  2  0  0  0  0  0  0  0  0  0
    0.8776   -2.4639   -7.5300 O   0  0  0  0  0  0  0  0  0  0  0  0
    1.9030   -0.3508   -6.7020 C   0  0  2  0  0  0  0  0  0  0  0  0
    2.3166    0.0730   -8.0542 N   0  3  0  0  0  0  0  0  0  0  0  0
    3.0797   -1.0468   -5.9705 C   0  0  0  0  0  0  0  0  0  0  0  0
    2.6800   -1.4518   -4.5437 C   0  0  0  0  0  0  0  0  0  0  0  0
    0.8573   -2.3399   -3.0445 C   0  0  0  0  0  0  0  0  0  0  0  0
   -0.4472   -2.9988   -2.8978 N   0  3  0  0  0  0  0  0  0  0  0  0
   -0.8616   -2.6480   -9.2655 C   0  0  1  0  0  0  0  0  0  0  0  0
   -2.1522   -3.3807   -9.7059 C   0  0  0  0  0  0  0  0  0  0  0  0
   -3.2364   -3.2846   -8.5991 C   0  0  1  0  0  0  0  0  0  0  0  0
   -4.4853   -3.9187   -9.0629 N   0  3  0  0  0  0  0  0  0  0  0  0
   -2.7164   -3.9229   -7.2786 C   0  0  1  0  0  0  0  0  0  0  0  0
   -1.3674   -3.3024   -6.8366 C   0  0  1  0  0  0  0  0  0  0  0  0
   -0.9105   -4.0693   -5.7325 O   0  0  0  0  0  0  0  0  0  0  0  0
   -0.2724   -3.2616   -7.9532 C   0  0  2  0  0  0  0  0  0  0  0  0
    0.1234   -2.6560  -10.3615 N   0  3  0  0  0  0  0  0  0  0  0  0
   -6.5158   -3.2229   -5.2155 C   0  0  0  0  0  0  0  0  0  0  0  0
   -6.3726   -2.3409   -3.9509 C   0  0  2  0  0  0  0  0  0  0  0  0
   -7.0545   -1.1162   -4.2174 O   0  0  0  0  0  0  0  0  0  0  0  0
   -4.8457   -2.0827   -3.6620 C   0  0  1  0  0  0  0  0  0  0  0  0
   -4.0557   -1.6156   -4.9315 C   0  0  2  0  0  0  0  0  0  0  0  0
   -4.3826   -2.4422   -6.2010 C   0  0  1  0  0  0  0  0  0  0  0  0
   -3.6649   -3.7042   -6.1955 O   0  0  0  0  0  0  0  0  0  0  0  0
   -5.8184   -2.6335   -6.3452 O   0  0  0  0  0  0  0  0  0  0  0  0
   -2.6480   -1.6487   -4.7109 O   0  0  0  0  0  0  0  0  0  0  0  0
   -4.7018   -1.0869   -2.5547 N   0  3  0  0  0  0  0  0  0  0  0  0
   -3.3274   -0.7152   -2.1613 C   0  0  0  0  0  0  0  0  0  0  0  0
   -7.1107   -3.0330   -2.7786 C   0  0  0  0  0  0  0  0  0  0  0  0
  1  8  1  0  0  0  0
  1  9  1  1  0  0  0
  1  2  1  0  0  0  0
  2  3  1  0  0  0  0
  3  5  1  0  0  0  0
  3  4  1  6  0  0  0
  5  7  1  0  0  0  0
  5  6  1  6  0  0  0
  7  8  1  0  0  0  0
  9 10  1  0  0  0  0
 11 12  1  0  0  0  0
 11 18  1  0  0  0  0
 11 19  1  6  0  0  0
 12 13  1  0  0  0  0
 13 15  1  0  0  0  0
 13 14  1  6  0  0  0
 15 16  1  0  0  0  0
 15 26  1  1  0  0  0
 16 18  1  0  0  0  0
 16 17  1  1  0  0  0
 18  4  1  1  0  0  0
 20 21  1  0  0  0  0
 20 27  1  0  0  0  0
 21 31  1  1  0  0  0
 21 23  1  0  0  0  0
 21 22  1  0  0  0  0
 23 24  1  0  0  0  0
 23 29  1  1  0  0  0
 24 25  1  0  0  0  0
 24 28  1  1  0  0  0
 25 27  1  0  0  0  0
 25 26  1  1  0  0  0
 29 30  1  0  0  0  0
M  CHG  5   6   1  10   1  14   1  19   1  29   1
M  END
>  <CHROM.1>
53.18170317,74.40132395,85.85359594,61.40957260,-176.38952858,156.54492508
-170.80985688,-35.18734632,-59.33683700,61.73217451,-58.30181726,-169.31306812
-117.99903499,-2.04172930,-2.31355965,-5.90072356,-0.32501014,0.16817373
1.31940960

>  <Name>
1byj cryst

>  <RI>
0

>  <Rbt.Current_Directory>
/home/itssahil/PROJECTS/Mol_Feturizer/New_Systems/rnas/1byj

>  <Rbt.Executable>
rbdock ($Id: //depot/dev/client3/rdock/2013.1/src/exe/rbdock.cxx#4 $)

>  <Rbt.Library>
libRbt.so (2013.1, Build901 2013/11/27)

>  <Rbt.Parameter_File>
/export/apps/rDock/src/rDock_2013.1_src/data/scripts/dock_solv.prm

>  <Rbt.Receptor>
prm/blind_docking_40.prm

>  <SCORE>
-21.3328

>  <SCORE.INTER>
-24.032

>  <SCORE.INTER.CONST>
1

>  <SCORE.INTER.POLAR>
-3.23044

>  <SCORE.INTER.ROT>
6

>  <SCORE.INTER.SOLV>
20.4625

>  <SCORE.INTER.VDW>
-19.674

>  <SCORE.INTER.norm>
-0.775227

>  <SCORE.INTRA>
-4.12148

>  <SCORE.INTRA.DIHEDRAL>
-2.35753

>  <SCORE.INTRA.DIHEDRAL.0>
18.4149

>  <SCORE.INTRA.POLAR>
-1.45892

>  <SCORE.INTRA.POLAR.0>
0

>  <SCORE.INTRA.REPUL>
-0.0442366

>  <SCORE.INTRA.REPUL.0>
0.092687

>  <SCORE.INTRA.SOLV>
4.6687

>  <SCORE.INTRA.SOLV.lig_0>
-120.37

>  <SCORE.INTRA.VDW>
-0.0955352

>  <SCORE.INTRA.VDW.0>
-1.75542

>  <SCORE.INTRA.norm>
-0.132951

>  <SCORE.RESTR>
6.82071

>  <SCORE.RESTR.CAVITY>
6.82071

>  <SCORE.RESTR.norm>
0.220023

>  <SCORE.SYSTEM>
0

>  <SCORE.SYSTEM.CONST>
0

>  <SCORE.SYSTEM.DIHEDRAL>
0

>  <SCORE.SYSTEM.SOLV>
0

>  <SCORE.SYSTEM.norm>
0

>  <SCORE.heavy>
31

>  <SCORE.norm>
-0.688155

>  <RMSD>
11.715

$$$$
1byj cryst
 OpenBabel11021811383D
libRbt.so/2013.1/901 2013/11/27
 31 33  0  0  0  0  0  0  0  0999 V2000
    4.1980   -4.2159  -10.1644 C   0  0  1  0  0  0  0  0  0  0  0  0
    4.4354   -3.4547   -8.9371 O   0  0  0  0  0  0  0  0  0  0  0  0
    3.5003   -2.3931   -8.5802 C   0  0  2  0  0  0  0  0  0  0  0  0
    2.1934   -2.9364   -8.2149 O   0  0  0  0  0  0  0  0  0  0  0  0
    3.3778   -1.3931   -9.7699 C   0  0  2  0  0  0  0  0  0  0  0  0
    2.4481   -0.2785   -9.5004 N   0  3  0  0  0  0  0  0  0  0  0  0
    2.9580   -2.1473  -11.0579 C   0  0  0  0  0  0  0  0  0  0  0  0
    3.9431   -3.2814  -11.3790 C   0  0  0  0  0  0  0  0  0  0  0  0
    5.4180   -5.1070  -10.4569 C   0  0  0  0  0  0  0  0  0  0  0  0
    5.1850   -6.5348  -10.2030 N   0  3  0  0  0  0  0  0  0  0  0  0
    2.0772   -2.7740   -5.7592 C   0  0  1  0  0  0  0  0  0  0  0  0
    1.2666   -2.2415   -4.5526 C   0  0  0  0  0  0  0  0  0  0  0  0
   -0.1958   -2.7591   -4.6092 C   0  0  1  0  0  0  0  0  0  0  0  0
   -0.9347   -2.3086   -3.4142 N   0  3  0  0  0  0  0  0  0  0  0  0
   -0.8817   -2.2933   -5.9261 C   0  0  1  0  0  0  0  0  0  0  0  0
   -0.0622   -2.7068   -7.1742 C   0  0  1  0  0  0  0  0  0  0  0  0
   -0.6843   -2.0887   -8.2909 O   0  0  0  0  0  0  0  0  0  0  0  0
    1.4517   -2.3167   -7.1178 C   0  0  2  0  0  0  0  0  0  0  0  0
    3.4874   -2.3629   -5.6421 N   0  3  0  0  0  0  0  0  0  0  0  0
   -4.5631   -4.3177   -7.3697 C   0  0  0  0  0  0  0  0  0  0  0  0
   -5.8191   -3.5402   -6.9054 C   0  0  2  0  0  0  0  0  0  0  0  0
   -6.4436   -3.0189   -8.0777 O   0  0  0  0  0  0  0  0  0  0  0  0
   -5.3869   -2.3774   -5.9346 C   0  0  1  0  0  0  0  0  0  0  0  0
   -4.2046   -1.5192   -6.4999 C   0  0  2  0  0  0  0  0  0  0  0  0
   -3.0581   -2.3694   -7.1039 C   0  0  1  0  0  0  0  0  0  0  0  0
   -2.2000   -2.8975   -6.0586 O   0  0  0  0  0  0  0  0  0  0  0  0
   -3.5834   -3.4226   -7.9605 O   0  0  0  0  0  0  0  0  0  0  0  0
   -3.6621   -0.6579   -5.5023 O   0  0  0  0  0  0  0  0  0  0  0  0
   -6.5672   -1.5114   -5.6256 N   0  3  0  0  0  0  0  0  0  0  0  0
   -6.5009   -0.7027   -4.3913 C   0  0  0  0  0  0  0  0  0  0  0  0
   -6.8107   -4.5406   -6.2618 C   0  0  0  0  0  0  0  0  0  0  0  0
  1  8  1  0  0  0  0
  1  9  1  6  0  0  0
  1  2  1  0  0  0  0
  2  3  1  0  0  0  0
  3  5  1  0  0  0  0
  3  4  1  6  0  0  0
  5  7  1  0  0  0  0
  5  6  1  1  0  0  0
  7  8  1  0  0  0  0
  9 10  1  0  0  0  0
 11 12  1  0  0  0  0
 11 18  1  0  0  0  0
 11 19  1  1  0  0  0
 12 13  1  0  0  0  0
 13 15  1  0  0  0  0
 13 14  1  1  0  0  0
 15 16  1  0  0  0  0
 15 26  1  6  0  0  0
 16 18  1  0  0  0  0
 16 17  1  6  0  0  0
 18  4  1  6  0  0  0
 20 21  1  0  0  0  0
 20 27  1  0  0  0  0
 21 31  1  1  0  0  0
 21 23  1  0  0  0  0
 21 22  1  0  0  0  0
 23 24  1  0  0  0  0
 23 29  1  6  0  0  0
 24 25  1  0  0  0  0
 24 28  1  1  0  0  0
 25 27  1  0  0  0  0
 25 26  1  1  0  0  0
 29 30  1  0  0  0  0
M  CHG  5   6   1  10   1  14   1  19   1  29   1
M  END
>  <CHROM.1>
106.99408339,141.84308080,-76.80427739,93.94668325,-40.73059620,49.03138721
-178.19240046,168.90077041,66.31446358,-53.12188469,-80.84410936,-179.84905659
-107.17209330,-0.51557379,-2.71239346,-7.36145116,0.35603830,-0.03906485
-1.97143374

>  <Name>
1byj cryst

>  <RI>
0

>  <Rbt.Current_Directory>
/home/itssahil/PROJECTS/Mol_Feturizer/New_Systems/rnas/1byj

>  <Rbt.Executable>
rbdock ($Id: //depot/dev/client3/rdock/2013.1/src/exe/rbdock.cxx#4 $)

>  <Rbt.Library>
libRbt.so (2013.1, Build901 2013/11/27)

>  <Rbt.Parameter_File>
/export/apps/rDock/src/rDock_2013.1_src/data/scripts/dock_solv.prm

>  <Rbt.Receptor>
prm/blind_docking_40.prm

>  <SCORE>
29.9831

>  <SCORE.INTER>
23.8157

>  <SCORE.INTER.CONST>
1

>  <SCORE.INTER.POLAR>
-4.70567

>  <SCORE.INTER.ROT>
6

>  <SCORE.INTER.SOLV>
29.575

>  <SCORE.INTER.VDW>
14.1044

>  <SCORE.INTER.norm>
0.768248

>  <SCORE.INTRA>
1.90038

>  <SCORE.INTRA.DIHEDRAL>
4.733

>  <SCORE.INTRA.DIHEDRAL.0>
18.4149

>  <SCORE.INTRA.POLAR>
-0.00153515

>  <SCORE.INTRA.POLAR.0>
0

>  <SCORE.INTRA.REPUL>
-0.092687

>  <SCORE.INTRA.REPUL.0>
0.092687

>  <SCORE.INTRA.SOLV>
-1.40039

>  <SCORE.INTRA.SOLV.lig_0>
-120.37

>  <SCORE.INTRA.VDW>
0.702729

>  <SCORE.INTRA.VDW.0>
-1.75542

>  <SCORE.INTRA.norm>
0.0613025

>  <SCORE.RESTR>
4.267

>  <SCORE.RESTR.CAVITY>
4.267

>  <SCORE.RESTR.norm>
0.137645

>  <SCORE.SYSTEM>
0

>  <SCORE.SYSTEM.CONST>
0

>  <SCORE.SYSTEM.DIHEDRAL>
0

>  <SCORE.SYSTEM.SOLV>
0

>  <SCORE.SYSTEM.norm>
0

>  <SCORE.heavy>
31

>  <SCORE.norm>
0.967196

>  <RMSD>
11.812

$$$$
1byj cryst
 OpenBabel11021811383D
libRbt.so/2013.1/901 2013/11/27
 31 33  0  0  0  0  0  0  0  0999 V2000
    1.6095   -1.9620   -6.8846 C   0  0  1  0  0  0  0  0  0  0  0  0
    0.3471   -2.6264   -7.2120 O   0  0  0  0  0  0  0  0  0  0  0  0
    0.0547   -3.9161   -6.5957 C   0  0  2  0  0  0  0  0  0  0  0  0
   -0.1719   -3.7791   -5.1581 O   0  0  0  0  0  0  0  0  0  0  0  0
    1.2260   -4.9031   -6.8858 C   0  0  2  0  0  0  0  0  0  0  0  0
    1.0187   -6.2414   -6.2985 N   0  3  0  0  0  0  0  0  0  0  0  0
    2.5659   -4.2983   -6.3928 C   0  0  0  0  0  0  0  0  0  0  0  0
    2.8198   -2.9249   -7.0322 C   0  0  0  0  0  0  0  0  0  0  0  0
    1.8068   -0.7526   -7.8155 C   0  0  0  0  0  0  0  0  0  0  0  0
    2.6825    0.2875   -7.2600 N   0  3  0  0  0  0  0  0  0  0  0  0
   -0.6251   -2.5254   -3.0861 C   0  0  1  0  0  0  0  0  0  0  0  0
   -1.3023   -1.2754   -2.4733 C   0  0  0  0  0  0  0  0  0  0  0  0
   -2.8062   -1.2296   -2.8555 C   0  0  1  0  0  0  0  0  0  0  0  0
   -3.4558   -0.0774   -2.2017 N   0  3  0  0  0  0  0  0  0  0  0  0
   -2.9678   -1.1866   -4.4027 C   0  0  1  0  0  0  0  0  0  0  0  0
   -2.2218   -2.3589   -5.0877 C   0  0  1  0  0  0  0  0  0  0  0  0
   -2.2934   -2.1234   -6.4861 O   0  0  0  0  0  0  0  0  0  0  0  0
   -0.7305   -2.5285   -4.6465 C   0  0  2  0  0  0  0  0  0  0  0  0
    0.7744   -2.6152   -2.6338 N   0  3  0  0  0  0  0  0  0  0  0  0
   -6.3390   -2.9024   -3.0813 C   0  0  0  0  0  0  0  0  0  0  0  0
   -7.6327   -2.9912   -3.9275 C   0  0  2  0  0  0  0  0  0  0  0  0
   -7.8727   -4.3753   -4.1780 O   0  0  0  0  0  0  0  0  0  0  0  0
   -7.4322   -2.2025   -5.2763 C   0  0  1  0  0  0  0  0  0  0  0  0
   -6.0953   -2.5711   -6.0049 C   0  0  2  0  0  0  0  0  0  0  0  0
   -4.8709   -2.6291   -5.0564 C   0  0  1  0  0  0  0  0  0  0  0  0
   -4.3716   -1.2954   -4.7744 O   0  0  0  0  0  0  0  0  0  0  0  0
   -5.1872   -3.3606   -3.8383 O   0  0  0  0  0  0  0  0  0  0  0  0
   -5.8124   -1.6628   -7.0661 O   0  0  0  0  0  0  0  0  0  0  0  0
   -8.6048   -2.4334   -6.1764 N   0  3  0  0  0  0  0  0  0  0  0  0
   -8.6953   -1.5942   -7.3886 C   0  0  0  0  0  0  0  0  0  0  0  0
   -8.8164   -2.4651   -3.0789 C   0  0  0  0  0  0  0  0  0  0  0  0
  1  8  1  0  0  0  0
  1  9  1  6  0  0  0
  1  2  1  0  0  0  0
  2  3  1  0  0  0  0
  3  5  1  0  0  0  0
  3  4  1  1  0  0  0
  5  7  1  0  0  0  0
  5  6  1  1  0  0  0
  7  8  1  0  0  0  0
  9 10  1  0  0  0  0
 11 12  1  0  0  0  0
 11 18  1  0  0  0  0
 11 19  1  6  0  0  0
 12 13  1  0  0  0  0
 13 15  1  0  0  0  0
 13 14  1  1  0  0  0
 15 16  1  0  0  0  0
 15 26  1  1  0  0  0
 16 18  1  0  0  0  0
 16 17  1  6  0  0  0
 18  4  1  1  0  0  0
 20 21  1  0  0  0  0
 20 27  1  0  0  0  0
 21 31  1  1  0  0  0
 21 23  1  0  0  0  0
 21 22  1  0  0  0  0
 23 24  1  0  0  0  0
 23 29  1  6  0  0  0
 24 25  1  0  0  0  0
 24 28  1  6  0  0  0
 25 27  1  0  0  0  0
 25 26  1  1  0  0  0
 29 30  1  0  0  0  0
M  CHG  5   6   1  10   1  14   1  19   1  29   1
M  END
>  <CHROM.1>
155.66227891,29.80341494,-169.43860540,-42.42271996,153.39294300,-172.96074155
171.83241926,-93.10144046,-55.90407296,-55.60027146,-68.91212503,-170.01828207
-154.74039392,-2.69810323,-2.49694226,-5.21032721,0.16719424,-0.00936211
-1.83646872

>  <Name>
1byj cryst

>  <RI>
0

>  <Rbt.Current_Directory>
/home/itssahil/PROJECTS/Mol_Feturizer/New_Systems/rnas/1byj

>  <Rbt.Executable>
rbdock ($Id: //depot/dev/client3/rdock/2013.1/src/exe/rbdock.cxx#4 $)

>  <Rbt.Library>
libRbt.so (2013.1, Build901 2013/11/27)

>  <Rbt.Parameter_File>
/export/apps/rDock/src/rDock_2013.1_src/data/scripts/dock_solv.prm

>  <Rbt.Receptor>
prm/blind_docking_100.prm

>  <SCORE>
-9.16854

>  <SCORE.INTER>
-16.9192

>  <SCORE.INTER.CONST>
1

>  <SCORE.INTER.POLAR>
-4.12462

>  <SCORE.INTER.ROT>
6

>  <SCORE.INTER.SOLV>
26.8286

>  <SCORE.INTER.VDW>
-14.0736

>  <SCORE.INTER.norm>
-0.54578

>  <SCORE.INTRA>
-1.23699

>  <SCORE.INTRA.DIHEDRAL>
-1.72473

>  <SCORE.INTRA.DIHEDRAL.0>
18.4149

>  <SCORE.INTRA.POLAR>
-0.000478616

>  <SCORE.INTRA.POLAR.0>
0

>  <SCORE.INTRA.REPUL>
-0.0531543

>  <SCORE.INTRA.REPUL.0>
0.092687

>  <SCORE.INTRA.SOLV>
-4.01103

>  <SCORE.INTRA.SOLV.lig_0>
-120.37

>  <SCORE.INTRA.VDW>
1.89828

>  <SCORE.INTRA.VDW.0>
-1.75542

>  <SCORE.INTRA.norm>
-0.0399029

>  <SCORE.RESTR>
8.98763

>  <SCORE.RESTR.CAVITY>
8.98763

>  <SCORE.RESTR.norm>
0.289924

>  <SCORE.SYSTEM>
0

>  <SCORE.SYSTEM.CONST>
0

>  <SCORE.SYSTEM.DIHEDRAL>
0

>  <SCORE.SYSTEM.SOLV>
0

>  <SCORE.SYSTEM.norm>
0

>  <SCORE.heavy>
31

>  <SCORE.norm>
-0.295759

>  <RMSD>
11.903

$$$$
1byj cryst
 OpenBabel11021811383D
libRbt.so/2013.1/901 2013/11/27
 31 33  0  0  0  0  0  0  0  0999 V2000
   -3.1966   -1.4785    1.7826 C   0  0  1  0  0  0  0  0  0  0  0  0
   -4.0446   -1.0166    0.6828 O   0  0  0  0  0  0  0  0  0  0  0  0
   -3.7658    0.2837    0.0827 C   0  0  2  0  0  0  0  0  0  0  0  0
   -2.4999    0.2714   -0.6481 O   0  0  0  0  0  0  0  0  0  0  0  0
   -3.7583    1.3743    1.1966 C   0  0  2  0  0  0  0  0  0  0  0  0
   -3.4829    2.7302    0.6822 N   0  3  0  0  0  0  0  0  0  0  0  0
   -2.7383    0.9984    2.3023 C   0  0  0  0  0  0  0  0  0  0  0  0
   -3.0400   -0.3917    2.8819 C   0  0  0  0  0  0  0  0  0  0  0  0
   -3.8112   -2.7447    2.4048 C   0  0  0  0  0  0  0  0  0  0  0  0
   -4.9851   -3.2515    1.6821 N   0  3  0  0  0  0  0  0  0  0  0  0
   -0.7625   -0.7344   -2.0765 C   0  0  1  0  0  0  0  0  0  0  0  0
   -0.4698   -1.7573   -3.2010 C   0  0  0  0  0  0  0  0  0  0  0  0
   -1.3538   -1.4670   -4.4436 C   0  0  1  0  0  0  0  0  0  0  0  0
   -1.0095   -2.3994   -5.5339 N   0  3  0  0  0  0  0  0  0  0  0  0
   -2.8607   -1.5486   -4.0636 C   0  0  1  0  0  0  0  0  0  0  0  0
   -3.1999   -0.6209   -2.8701 C   0  0  1  0  0  0  0  0  0  0  0  0
   -4.5430   -0.9030   -2.5060 O   0  0  0  0  0  0  0  0  0  0  0  0
   -2.2606   -0.7851   -1.6300 C   0  0  2  0  0  0  0  0  0  0  0  0
    0.1524   -0.9539   -0.9424 N   0  3  0  0  0  0  0  0  0  0  0  0
   -6.5021   -0.1666   -5.8938 C   0  0  0  0  0  0  0  0  0  0  0  0
   -6.7058   -0.5538   -7.3792 C   0  0  2  0  0  0  0  0  0  0  0  0
   -7.8121   -1.4537   -7.4274 O   0  0  0  0  0  0  0  0  0  0  0  0
   -5.3980   -1.2410   -7.9259 C   0  0  1  0  0  0  0  0  0  0  0  0
   -4.8596   -2.3668   -6.9790 C   0  0  2  0  0  0  0  0  0  0  0  0
   -4.8467   -1.9616   -5.4832 C   0  0  1  0  0  0  0  0  0  0  0  0
   -3.6945   -1.1313   -5.1822 O   0  0  0  0  0  0  0  0  0  0  0  0
   -6.0958   -1.3168   -5.1052 O   0  0  0  0  0  0  0  0  0  0  0  0
   -3.5487   -2.7811   -7.3546 O   0  0  0  0  0  0  0  0  0  0  0  0
   -5.6463   -1.7803   -9.2992 N   0  3  0  0  0  0  0  0  0  0  0  0
   -6.4057   -3.0435   -9.3965 C   0  0  0  0  0  0  0  0  0  0  0  0
   -7.1095    0.7147   -8.1704 C   0  0  0  0  0  0  0  0  0  0  0  0
  1  8  1  0  0  0  0
  1  9  1  1  0  0  0
  1  2  1  0  0  0  0
  2  3  1  0  0  0  0
  3  5  1  0  0  0  0
  3  4  1  1  0  0  0
  5  7  1  0  0  0  0
  5  6  1  6  0  0  0
  7  8  1  0  0  0  0
  9 10  1  0  0  0  0
 11 12  1  0  0  0  0
 11 18  1  0  0  0  0
 11 19  1  1  0  0  0
 12 13  1  0  0  0  0
 13 15  1  0  0  0  0
 13 14  1  6  0  0  0
 15 16  1  0  0  0  0
 15 26  1  6  0  0  0
 16 18  1  0  0  0  0
 16 17  1  1  0  0  0
 18  4  1  1  0  0  0
 20 21  1  0  0  0  0
 20 27  1  0  0  0  0
 21 31  1  6  0  0  0
 21 23  1  0  0  0  0
 21 22  1  0  0  0  0
 23 24  1  0  0  0  0
 23 29  1  6  0  0  0
 24 25  1  0  0  0  0
 24 28  1  6  0  0  0
 25 27  1  0  0  0  0
 25 26  1  6  0  0  0
 29 30  1  0  0  0  0
M  CHG  5   6   1  10   1  14   1  19   1  29   1
M  END
>  <CHROM.1>
5.90454240,51.07382174,-169.83280228,33.27280568,-67.80012785,48.45149515
43.90502961,134.85149123,-141.67623413,-60.36619080,43.77502779,12.93380135
-127.75968992,-3.89034151,-1.02928943,-3.24366715,1.26299159,-0.22249431
1.37241935

>  <Name>
1byj cryst

>  <RI>
0

>  <Rbt.Current_Directory>
/home/itssahil/PROJECTS/Mol_Feturizer/New_Systems/rnas/1byj

>  <Rbt.Executable>
rbdock ($Id: //depot/dev/client3/rdock/2013.1/src/exe/rbdock.cxx#4 $)

>  <Rbt.Library>
libRbt.so (2013.1, Build901 2013/11/27)

>  <Rbt.Parameter_File>
/export/apps/rDock/src/rDock_2013.1_src/data/scripts/dock_solv.prm

>  <Rbt.Receptor>
prm/blind_docking_20.prm

>  <SCORE>
-13.7828

>  <SCORE.INTER>
-25.3303

>  <SCORE.INTER.CONST>
1

>  <SCORE.INTER.POLAR>
-3.55989

>  <SCORE.INTER.ROT>
6

>  <SCORE.INTER.SOLV>
18.7514

>  <SCORE.INTER.VDW>
-18.871

>  <SCORE.INTER.norm>
-0.817108

>  <SCORE.INTRA>
1.99475

>  <SCORE.INTRA.DIHEDRAL>
15.3762

>  <SCORE.INTRA.DIHEDRAL.0>
18.4149

>  <SCORE.INTRA.POLAR>
-1.11823

>  <SCORE.INTRA.POLAR.0>
0

>  <SCORE.INTRA.REPUL>
-0.092687

>  <SCORE.INTRA.REPUL.0>
0.092687

>  <SCORE.INTRA.SOLV>
-2.74831

>  <SCORE.INTRA.SOLV.lig_0>
-120.37

>  <SCORE.INTRA.VDW>
-0.0537886

>  <SCORE.INTRA.VDW.0>
-1.75542

>  <SCORE.INTRA.norm>
0.0643467

>  <SCORE.RESTR>
9.55282

>  <SCORE.RESTR.CAVITY>
9.55282

>  <SCORE.RESTR.norm>
0.308156

>  <SCORE.SYSTEM>
0

>  <SCORE.SYSTEM.CONST>
0

>  <SCORE.SYSTEM.DIHEDRAL>
0

>  <SCORE.SYSTEM.SOLV>
0

>  <SCORE.SYSTEM.norm>
0

>  <SCORE.heavy>
31

>  <SCORE.norm>
-0.444605

>  <RMSD>
11.940

$$$$
1byj cryst
 OpenBabel11021811383D
libRbt.so/2013.1/901 2013/11/27
 31 33  0  0  0  0  0  0  0  0999 V2000
    4.4490   -4.5852  -10.0032 C   0  0  1  0  0  0  0  0  0  0  0  0
    4.5414   -3.7057   -8.8369 O   0  0  0  0  0  0  0  0  0  0  0  0
    3.7115   -2.5064   -8.7974 C   0  0  2  0  0  0  0  0  0  0  0  0
    2.2952   -2.8440   -8.6669 O   0  0  0  0  0  0  0  0  0  0  0  0
    3.9687   -1.6594  -10.0806 C   0  0  2  0  0  0  0  0  0  0  0  0
    3.1688   -0.4197  -10.1302 N   0  3  0  0  0  0  0  0  0  0  0  0
    3.7125   -2.5186  -11.3456 C   0  0  0  0  0  0  0  0  0  0  0  0
    4.5737   -3.7905  -11.3324 C   0  0  0  0  0  0  0  0  0  0  0  0
    5.5663   -5.6412   -9.9366 C   0  0  0  0  0  0  0  0  0  0  0  0
    5.5494   -6.5948  -11.0536 N   0  3  0  0  0  0  0  0  0  0  0  0
    2.0443   -2.7993   -6.2163 C   0  0  1  0  0  0  0  0  0  0  0  0
    1.1919   -2.2866   -5.0301 C   0  0  0  0  0  0  0  0  0  0  0  0
   -0.2883   -2.7241   -5.1953 C   0  0  1  0  0  0  0  0  0  0  0  0
   -1.0726   -2.2964   -4.0211 N   0  3  0  0  0  0  0  0  0  0  0  0
   -0.8727   -2.1578   -6.5217 C   0  0  1  0  0  0  0  0  0  0  0  0
   -0.0032   -2.5501   -7.7425 C   0  0  1  0  0  0  0  0  0  0  0  0
   -0.5282   -1.8452   -8.8577 O   0  0  0  0  0  0  0  0  0  0  0  0
    1.5222   -2.2425   -7.5814 C   0  0  2  0  0  0  0  0  0  0  0  0
    3.4637   -2.4684   -5.9993 N   0  3  0  0  0  0  0  0  0  0  0  0
   -4.2558   -0.6181   -5.8331 C   0  0  0  0  0  0  0  0  0  0  0  0
   -5.6385   -1.2729   -6.0719 C   0  0  2  0  0  0  0  0  0  0  0  0
   -6.2765   -1.3753   -4.7997 O   0  0  0  0  0  0  0  0  0  0  0  0
   -5.4403   -2.6961   -6.7174 C   0  0  1  0  0  0  0  0  0  0  0  0
   -4.3778   -3.5651   -5.9624 C   0  0  2  0  0  0  0  0  0  0  0  0
   -3.0850   -2.7881   -5.6061 C   0  0  1  0  0  0  0  0  0  0  0  0
   -2.2091   -2.6852   -6.7593 O   0  0  0  0  0  0  0  0  0  0  0  0
   -3.3978   -1.4831   -5.0422 O   0  0  0  0  0  0  0  0  0  0  0  0
   -4.0255   -4.7251   -6.7117 O   0  0  0  0  0  0  0  0  0  0  0  0
   -6.7541   -3.4087   -6.7841 N   0  3  0  0  0  0  0  0  0  0  0  0
   -7.0905   -4.0774   -8.0574 C   0  0  0  0  0  0  0  0  0  0  0  0
   -6.4946   -0.3187   -6.9406 C   0  0  0  0  0  0  0  0  0  0  0  0
  1  8  1  0  0  0  0
  1  9  1  1  0  0  0
  1  2  1  0  0  0  0
  2  3  1  0  0  0  0
  3  5  1  0  0  0  0
  3  4  1  6  0  0  0
  5  7  1  0  0  0  0
  5  6  1  6  0  0  0
  7  8  1  0  0  0  0
  9 10  1  0  0  0  0
 11 12  1  0  0  0  0
 11 18  1  0  0  0  0
 11 19  1  1  0  0  0
 12 13  1  0  0  0  0
 13 15  1  0  0  0  0
 13 14  1  1  0  0  0
 15 16  1  0  0  0  0
 15 26  1  6  0  0  0
 16 18  1  0  0  0  0
 16 17  1  6  0  0  0
 18  4  1  6  0  0  0
 20 21  1  0  0  0  0
 20 27  1  0  0  0  0
 21 31  1  6  0  0  0
 21 23  1  0  0  0  0
 21 22  1  0  0  0  0
 23 24  1  0  0  0  0
 23 29  1  1  0  0  0
 24 25  1  0  0  0  0
 24 28  1  6  0  0  0
 25 27  1  0  0  0  0
 25 26  1  6  0  0  0
 29 30  1  0  0  0  0
M  CHG  5   6   1  10   1  14   1  19   1  29   1
M  END
>  <CHROM.1>
178.95388435,126.33984573,-67.22261171,-179.13696127,68.92573860,44.28373595
-6.21178313,40.62528698,71.34293851,-178.60872114,-105.15288368,67.46014394
-171.04724449,-0.40477044,-2.73709401,-7.50239235,0.37900257,-0.06206920
-2.08253407

>  <Name>
1byj cryst

>  <RI>
0

>  <Rbt.Current_Directory>
/home/itssahil/PROJECTS/Mol_Feturizer/New_Systems/rnas/1byj

>  <Rbt.Executable>
rbdock ($Id: //depot/dev/client3/rdock/2013.1/src/exe/rbdock.cxx#4 $)

>  <Rbt.Library>
libRbt.so (2013.1, Build901 2013/11/27)

>  <Rbt.Parameter_File>
/export/apps/rDock/src/rDock_2013.1_src/data/scripts/dock_solv.prm

>  <Rbt.Receptor>
prm/blind_docking_40.prm

>  <SCORE>
14.9118

>  <SCORE.INTER>
9.97047

>  <SCORE.INTER.CONST>
1

>  <SCORE.INTER.POLAR>
-4.19602

>  <SCORE.INTER.ROT>
6

>  <SCORE.INTER.SOLV>
28.5568

>  <SCORE.INTER.VDW>
3.51478

>  <SCORE.INTER.norm>
0.321628

>  <SCORE.INTRA>
1.10571

>  <SCORE.INTRA.DIHEDRAL>
-0.457024

>  <SCORE.INTRA.DIHEDRAL.0>
18.4149

>  <SCORE.INTRA.POLAR>
-1.37804

>  <SCORE.INTRA.POLAR.0>
0

>  <SCORE.INTRA.REPUL>
-0.092687

>  <SCORE.INTRA.REPUL.0>
0.092687

>  <SCORE.INTRA.SOLV>
2.18348

>  <SCORE.INTRA.SOLV.lig_0>
-120.37

>  <SCORE.INTRA.VDW>
5.39125

>  <SCORE.INTRA.VDW.0>
-1.75542

>  <SCORE.INTRA.norm>
0.035668

>  <SCORE.RESTR>
3.83557

>  <SCORE.RESTR.CAVITY>
3.83557

>  <SCORE.RESTR.norm>
0.123728

>  <SCORE.SYSTEM>
0

>  <SCORE.SYSTEM.CONST>
0

>  <SCORE.SYSTEM.DIHEDRAL>
0

>  <SCORE.SYSTEM.SOLV>
0

>  <SCORE.SYSTEM.norm>
0

>  <SCORE.heavy>
31

>  <SCORE.norm>
0.481024

>  <RMSD>
11.960

$$$$
1byj cryst
 OpenBabel11021811383D
libRbt.so/2013.1/901 2013/11/27
 31 33  0  0  0  0  0  0  0  0999 V2000
    2.9774   -3.6928  -10.6619 C   0  0  1  0  0  0  0  0  0  0  0  0
    2.7835   -2.5794   -9.7320 O   0  0  0  0  0  0  0  0  0  0  0  0
    1.4873   -2.4308   -9.0789 C   0  0  2  0  0  0  0  0  0  0  0  0
    1.2436   -3.5144   -8.1285 O   0  0  0  0  0  0  0  0  0  0  0  0
    0.3679   -2.3746  -10.1624 C   0  0  2  0  0  0  0  0  0  0  0  0
   -0.9860   -2.2245   -9.5937 N   0  3  0  0  0  0  0  0  0  0  0  0
    0.4380   -3.6328  -11.0657 C   0  0  0  0  0  0  0  0  0  0  0  0
    1.8279   -3.7772  -11.7036 C   0  0  0  0  0  0  0  0  0  0  0  0
    4.3173   -3.5164  -11.3979 C   0  0  0  0  0  0  0  0  0  0  0  0
    4.4285   -2.2498  -12.1332 N   0  3  0  0  0  0  0  0  0  0  0  0
    1.2751   -4.5385   -5.8879 C   0  0  1  0  0  0  0  0  0  0  0  0
    1.1150   -4.2888   -4.3685 C   0  0  0  0  0  0  0  0  0  0  0  0
   -0.2547   -3.6227   -4.0684 C   0  0  1  0  0  0  0  0  0  0  0  0
   -0.4268   -3.4620   -2.6119 N   0  3  0  0  0  0  0  0  0  0  0  0
   -0.3698   -2.2651   -4.8203 C   0  0  1  0  0  0  0  0  0  0  0  0
   -0.1158   -2.4301   -6.3396 C   0  0  1  0  0  0  0  0  0  0  0  0
   -0.0764   -1.1214   -6.8888 O   0  0  0  0  0  0  0  0  0  0  0  0
    1.1947   -3.2046   -6.7004 C   0  0  2  0  0  0  0  0  0  0  0  0
    2.5307   -5.2631   -6.1517 N   0  3  0  0  0  0  0  0  0  0  0  0
   -3.7907   -3.7886   -5.4634 C   0  0  0  0  0  0  0  0  0  0  0  0
   -5.1578   -3.0741   -5.3289 C   0  0  2  0  0  0  0  0  0  0  0  0
   -5.7557   -3.0710   -6.6245 O   0  0  0  0  0  0  0  0  0  0  0  0
   -4.9323   -1.6039   -4.8104 C   0  0  1  0  0  0  0  0  0  0  0  0
   -3.8213   -0.8400   -5.6081 C   0  0  2  0  0  0  0  0  0  0  0  0
   -2.5446   -1.6843   -5.8513 C   0  0  1  0  0  0  0  0  0  0  0  0
   -1.7056   -1.7059   -4.6666 O   0  0  0  0  0  0  0  0  0  0  0  0
   -2.8831   -3.0261   -6.3029 O   0  0  0  0  0  0  0  0  0  0  0  0
   -3.4533    0.3734   -4.9574 O   0  0  0  0  0  0  0  0  0  0  0  0
   -6.2238   -0.8497   -4.8504 N   0  3  0  0  0  0  0  0  0  0  0  0
   -6.6364   -0.2948   -6.1556 C   0  0  0  0  0  0  0  0  0  0  0  0
   -6.0686   -3.9183   -4.4038 C   0  0  0  0  0  0  0  0  0  0  0  0
  1  8  1  0  0  0  0
  1  9  1  6  0  0  0
  1  2  1  0  0  0  0
  2  3  1  0  0  0  0
  3  5  1  0  0  0  0
  3  4  1  1  0  0  0
  5  7  1  0  0  0  0
  5  6  1  1  0  0  0
  7  8  1  0  0  0  0
  9 10  1  0  0  0  0
 11 12  1  0  0  0  0
 11 18  1  0  0  0  0
 11 19  1  1  0  0  0
 12 13  1  0  0  0  0
 13 15  1  0  0  0  0
 13 14  1  1  0  0  0
 15 16  1  0  0  0  0
 15 26  1  6  0  0  0
 16 18  1  0  0  0  0
 16 17  1  6  0  0  0
 18  4  1  6  0  0  0
 20 21  1  0  0  0  0
 20 27  1  0  0  0  0
 21 31  1  1  0  0  0
 21 23  1  0  0  0  0
 21 22  1  0  0  0  0
 23 24  1  0  0  0  0
 23 29  1  6  0  0  0
 24 25  1  0  0  0  0
 24 28  1  1  0  0  0
 25 27  1  0  0  0  0
 25 26  1  1  0  0  0
 29 30  1  0  0  0  0
M  CHG  5   6   1  10   1  14   1  19   1  29   1
M  END
>  <CHROM.1>
-57.60940416,112.54918209,-166.31212857,156.14329456,87.71411322,-116.79428587
-89.96691062,-110.42058238,-30.32246304,169.19161690,40.24747749,-173.17263697
-169.72161439,-0.95392574,-2.67223315,-6.98195152,0.54656120,0.31394222,-1.34664454

>  <Name>
1byj cryst

>  <RI>
0

>  <Rbt.Current_Directory>
/home/itssahil/PROJECTS/Mol_Feturizer/New_Systems/rnas/1byj

>  <Rbt.Executable>
rbdock ($Id: //depot/dev/client3/rdock/2013.1/src/exe/rbdock.cxx#4 $)

>  <Rbt.Library>
libRbt.so (2013.1, Build901 2013/11/27)

>  <Rbt.Parameter_File>
/export/apps/rDock/src/rDock_2013.1_src/data/scripts/dock_solv.prm

>  <Rbt.Receptor>
prm/blind_docking_100.prm

>  <SCORE>
8.92624

>  <SCORE.INTER>
-7.99642

>  <SCORE.INTER.CONST>
1

>  <SCORE.INTER.POLAR>
-3.42636

>  <SCORE.INTER.ROT>
6

>  <SCORE.INTER.SOLV>
36.131

>  <SCORE.INTER.VDW>
-13.5534

>  <SCORE.INTER.norm>
-0.257949

>  <SCORE.INTRA>
9.17883

>  <SCORE.INTRA.DIHEDRAL>
10.2527

>  <SCORE.INTRA.DIHEDRAL.0>
18.4149

>  <SCORE.INTRA.POLAR>
-0.915237

>  <SCORE.INTRA.POLAR.0>
0

>  <SCORE.INTRA.REPUL>
-0.092687

>  <SCORE.INTRA.REPUL.0>
0.092687

>  <SCORE.INTRA.SOLV>
-0.777789

>  <SCORE.INTRA.SOLV.lig_0>
-120.37

>  <SCORE.INTRA.VDW>
8.0166

>  <SCORE.INTRA.VDW.0>
-1.75542

>  <SCORE.INTRA.norm>
0.296091

>  <SCORE.RESTR>
7.74383

>  <SCORE.RESTR.CAVITY>
7.74383

>  <SCORE.RESTR.norm>
0.249801

>  <SCORE.SYSTEM>
0

>  <SCORE.SYSTEM.CONST>
0

>  <SCORE.SYSTEM.DIHEDRAL>
0

>  <SCORE.SYSTEM.SOLV>
0

>  <SCORE.SYSTEM.norm>
0

>  <SCORE.heavy>
31

>  <SCORE.norm>
0.287943

>  <RMSD>
11.973

$$$$
1byj cryst
 OpenBabel11021811383D
libRbt.so/2013.1/901 2013/11/27
 31 33  0  0  0  0  0  0  0  0999 V2000
    0.4384   -1.2152   -7.9730 C   0  0  1  0  0  0  0  0  0  0  0  0
    1.3995   -2.1721   -7.4226 O   0  0  0  0  0  0  0  0  0  0  0  0
    2.0041   -1.8889   -6.1253 C   0  0  2  0  0  0  0  0  0  0  0  0
    1.0180   -1.9726   -5.0496 O   0  0  0  0  0  0  0  0  0  0  0  0
    2.6714   -0.4805   -6.1643 C   0  0  2  0  0  0  0  0  0  0  0  0
    3.3128   -0.1045   -4.8891 N   0  3  0  0  0  0  0  0  0  0  0  0
    1.6303    0.5901   -6.5818 C   0  0  0  0  0  0  0  0  0  0  0  0
    0.9874    0.2376   -7.9316 C   0  0  0  0  0  0  0  0  0  0  0  0
    0.1164   -1.5947   -9.4291 C   0  0  0  0  0  0  0  0  0  0  0  0
    1.0348   -2.5884  -10.0007 N   0  3  0  0  0  0  0  0  0  0  0  0
    0.5292   -4.2249   -5.9205 C   0  0  1  0  0  0  0  0  0  0  0  0
   -0.5620   -5.3028   -6.1301 C   0  0  0  0  0  0  0  0  0  0  0  0
   -1.7636   -4.7141   -6.9172 C   0  0  1  0  0  0  0  0  0  0  0  0
   -2.7599   -5.7708   -7.1772 N   0  3  0  0  0  0  0  0  0  0  0  0
   -2.3792   -3.5134   -6.1420 C   0  0  1  0  0  0  0  0  0  0  0  0
   -1.3119   -2.4412   -5.8084 C   0  0  1  0  0  0  0  0  0  0  0  0
   -1.9426   -1.4900   -4.9637 O   0  0  0  0  0  0  0  0  0  0  0  0
   -0.0215   -2.9983   -5.1216 C   0  0  2  0  0  0  0  0  0  0  0  0
    1.7074   -4.8188   -5.2644 N   0  3  0  0  0  0  0  0  0  0  0  0
   -5.0862   -3.4964   -4.4704 C   0  0  0  0  0  0  0  0  0  0  0  0
   -6.2894   -2.5236   -4.5297 C   0  0  2  0  0  0  0  0  0  0  0  0
   -7.4681   -3.3233   -4.6162 O   0  0  0  0  0  0  0  0  0  0  0  0
   -6.1487   -1.5918   -5.7920 C   0  0  1  0  0  0  0  0  0  0  0  0
   -5.8287   -2.3865   -7.1035 C   0  0  2  0  0  0  0  0  0  0  0  0
   -4.7290   -3.4631   -6.9204 C   0  0  1  0  0  0  0  0  0  0  0  0
   -3.4079   -2.8614   -6.9402 O   0  0  0  0  0  0  0  0  0  0  0  0
   -4.9546   -4.2408   -5.7108 O   0  0  0  0  0  0  0  0  0  0  0  0
   -5.4452   -1.5127   -8.1621 O   0  0  0  0  0  0  0  0  0  0  0  0
   -7.3914   -0.7756   -5.9593 N   0  3  0  0  0  0  0  0  0  0  0  0
   -7.3179    0.3767   -6.8805 C   0  0  0  0  0  0  0  0  0  0  0  0
   -6.3604   -1.7421   -3.1947 C   0  0  0  0  0  0  0  0  0  0  0  0
  1  8  1  0  0  0  0
  1  9  1  6  0  0  0
  1  2  1  0  0  0  0
  2  3  1  0  0  0  0
  3  5  1  0  0  0  0
  3  4  1  1  0  0  0
  5  7  1  0  0  0  0
  5  6  1  1  0  0  0
  7  8  1  0  0  0  0
  9 10  1  0  0  0  0
 11 12  1  0  0  0  0
 11 18  1  0  0  0  0
 11 19  1  1  0  0  0
 12 13  1  0  0  0  0
 13 15  1  0  0  0  0
 13 14  1  1  0  0  0
 15 16  1  0  0  0  0
 15 26  1  6  0  0  0
 16 18  1  0  0  0  0
 16 17  1  1  0  0  0
 18  4  1  6  0  0  0
 20 21  1  0  0  0  0
 20 27  1  0  0  0  0
 21 31  1  1  0  0  0
 21 23  1  0  0  0  0
 21 22  1  0  0  0  0
 23 24  1  0  0  0  0
 23 29  1  6  0  0  0
 24 25  1  0  0  0  0
 24 28  1  6  0  0  0
 25 27  1  0  0  0  0
 25 26  1  1  0  0  0
 29 30  1  0  0  0  0
M  CHG  5   6   1  10   1  14   1  19   1  29   1
M  END
>  <CHROM.1>
-12.98684230,37.09278912,28.74951213,-151.70604752,-109.52727277,-50.10246437
-113.94535997,82.35398036,59.05165443,-173.87277984,-73.33540897,-169.51756161
149.19846146,-2.08614478,-2.39748217,-6.30260139,0.08311313,0.10665787,-0.22320432

>  <Name>
1byj cryst

>  <RI>
0

>  <Rbt.Current_Directory>
/home/itssahil/PROJECTS/Mol_Feturizer/New_Systems/rnas/1byj

>  <Rbt.Executable>
rbdock ($Id: //depot/dev/client3/rdock/2013.1/src/exe/rbdock.cxx#4 $)

>  <Rbt.Library>
libRbt.so (2013.1, Build901 2013/11/27)

>  <Rbt.Parameter_File>
/export/apps/rDock/src/rDock_2013.1_src/data/scripts/dock_solv.prm

>  <Rbt.Receptor>
prm/blind_docking_40.prm

>  <SCORE>
-14.1958

>  <SCORE.INTER>
-22.6561

>  <SCORE.INTER.CONST>
1

>  <SCORE.INTER.POLAR>
-2.98026

>  <SCORE.INTER.ROT>
6

>  <SCORE.INTER.SOLV>
23.5682

>  <SCORE.INTER.VDW>
-20.626

>  <SCORE.INTER.norm>
-0.730843

>  <SCORE.INTRA>
1.85324

>  <SCORE.INTRA.DIHEDRAL>
8.5696

>  <SCORE.INTRA.DIHEDRAL.0>
18.4149

>  <SCORE.INTRA.POLAR>
-1.56965

>  <SCORE.INTRA.POLAR.0>
0

>  <SCORE.INTRA.REPUL>
-0.092687

>  <SCORE.INTRA.REPUL.0>
0.092687

>  <SCORE.INTRA.SOLV>
0.610241

>  <SCORE.INTRA.SOLV.lig_0>
-120.37

>  <SCORE.INTRA.VDW>
3.06356

>  <SCORE.INTRA.VDW.0>
-1.75542

>  <SCORE.INTRA.norm>
0.059782

>  <SCORE.RESTR>
6.60704

>  <SCORE.RESTR.CAVITY>
6.60704

>  <SCORE.RESTR.norm>
0.21313

>  <SCORE.SYSTEM>
0

>  <SCORE.SYSTEM.CONST>
0

>  <SCORE.SYSTEM.DIHEDRAL>
0

>  <SCORE.SYSTEM.SOLV>
0

>  <SCORE.SYSTEM.norm>
0

>  <SCORE.heavy>
31

>  <SCORE.norm>
-0.457931

>  <RMSD>
11.981

$$$$
1byj cryst
 OpenBabel11021811383D
libRbt.so/2013.1/901 2013/11/27
 31 33  0  0  0  0  0  0  0  0999 V2000
    2.9328   -3.7207  -10.4736 C   0  0  1  0  0  0  0  0  0  0  0  0
    2.4930   -2.5483   -9.7160 O   0  0  0  0  0  0  0  0  0  0  0  0
    1.0891   -2.4499   -9.3315 C   0  0  2  0  0  0  0  0  0  0  0  0
    0.7387   -3.4604   -8.3350 O   0  0  0  0  0  0  0  0  0  0  0  0
    0.1962   -2.5844  -10.6024 C   0  0  2  0  0  0  0  0  0  0  0  0
   -1.2483   -2.4970  -10.3111 N   0  3  0  0  0  0  0  0  0  0  0  0
    0.5191   -3.9085  -11.3418 C   0  0  0  0  0  0  0  0  0  0  0  0
    2.0117   -3.9935  -11.6946 C   0  0  0  0  0  0  0  0  0  0  0  0
    4.3745   -3.5003  -10.9648 C   0  0  0  0  0  0  0  0  0  0  0  0
    5.3987   -4.0416  -10.0619 N   0  3  0  0  0  0  0  0  0  0  0  0
    1.3164   -4.2909   -6.0885 C   0  0  1  0  0  0  0  0  0  0  0  0
    1.2526   -4.0076   -4.5679 C   0  0  0  0  0  0  0  0  0  0  0  0
   -0.2135   -3.7587   -4.1224 C   0  0  1  0  0  0  0  0  0  0  0  0
   -0.2687   -3.5674   -2.6605 N   0  3  0  0  0  0  0  0  0  0  0  0
   -0.8110   -2.5440   -4.8901 C   0  0  1  0  0  0  0  0  0  0  0  0
   -0.6836   -2.7190   -6.4242 C   0  0  1  0  0  0  0  0  0  0  0  0
   -1.0982   -1.4930   -7.0082 O   0  0  0  0  0  0  0  0  0  0  0  0
    0.7524   -3.0924   -6.9200 C   0  0  2  0  0  0  0  0  0  0  0  0
    2.6959   -4.6271   -6.4827 N   0  3  0  0  0  0  0  0  0  0  0  0
   -4.5254   -2.4435   -6.6018 C   0  0  0  0  0  0  0  0  0  0  0  0
   -5.7566   -1.9054   -5.8323 C   0  0  2  0  0  0  0  0  0  0  0  0
   -6.1826   -0.7206   -6.5038 O   0  0  0  0  0  0  0  0  0  0  0  0
   -5.3485   -1.5916   -4.3436 C   0  0  1  0  0  0  0  0  0  0  0  0
   -4.0346   -0.7452   -4.2372 C   0  0  2  0  0  0  0  0  0  0  0  0
   -2.9007   -1.2455   -5.1677 C   0  0  1  0  0  0  0  0  0  0  0  0
   -2.2285   -2.3960   -4.5913 O   0  0  0  0  0  0  0  0  0  0  0  0
   -3.4055   -1.5236   -6.5044 O   0  0  0  0  0  0  0  0  0  0  0  0
   -3.5472   -0.7052   -2.8986 O   0  0  0  0  0  0  0  0  0  0  0  0
   -6.4778   -0.9036   -3.6438 N   0  3  0  0  0  0  0  0  0  0  0  0
   -7.2957   -1.7218   -2.7254 C   0  0  0  0  0  0  0  0  0  0  0  0
   -6.9040   -2.9387   -5.9495 C   0  0  0  0  0  0  0  0  0  0  0  0
  1  8  1  0  0  0  0
  1  9  1  6  0  0  0
  1  2  1  0  0  0  0
  2  3  1  0  0  0  0
  3  5  1  0  0  0  0
  3  4  1  1  0  0  0
  5  7  1  0  0  0  0
  5  6  1  1  0  0  0
  7  8  1  0  0  0  0
  9 10  1  0  0  0  0
 11 12  1  0  0  0  0
 11 18  1  0  0  0  0
 11 19  1  6  0  0  0
 12 13  1  0  0  0  0
 13 15  1  0  0  0  0
 13 14  1  1  0  0  0
 15 16  1  0  0  0  0
 15 26  1  6  0  0  0
 16 18  1  0  0  0  0
 16 17  1  6  0  0  0
 18  4  1  6  0  0  0
 20 21  1  0  0  0  0
 20 27  1  0  0  0  0
 21 31  1  6  0  0  0
 21 23  1  0  0  0  0
 21 22  1  0  0  0  0
 23 24  1  0  0  0  0
 23 29  1  6  0  0  0
 24 25  1  0  0  0  0
 24 28  1  1  0  0  0
 25 27  1  0  0  0  0
 25 26  1  1  0  0  0
 29 30  1  0  0  0  0
M  CHG  5   6   1  10   1  14   1  19   1  29   1
M  END
>  <CHROM.1>
93.47723462,96.13567288,-141.58363456,-54.90900587,59.35613695,-59.61087272
-9.68995736,175.92473081,59.73142346,52.15841769,-136.51003726,68.14105972
-148.03530785,-1.19928692,-2.62016587,-6.78580714,0.56478552,0.28382335,-1.52053348

>  <Name>
1byj cryst

>  <RI>
0

>  <Rbt.Current_Directory>
/home/itssahil/PROJECTS/Mol_Feturizer/New_Systems/rnas/1byj

>  <Rbt.Executable>
rbdock ($Id: //depot/dev/client3/rdock/2013.1/src/exe/rbdock.cxx#4 $)

>  <Rbt.Library>
libRbt.so (2013.1, Build901 2013/11/27)

>  <Rbt.Parameter_File>
/export/apps/rDock/src/rDock_2013.1_src/data/scripts/dock_solv.prm

>  <Rbt.Receptor>
prm/blind_docking_40.prm

>  <SCORE>
23.1411

>  <SCORE.INTER>
8.42456

>  <SCORE.INTER.CONST>
1

>  <SCORE.INTER.POLAR>
-2.71169

>  <SCORE.INTER.ROT>
6

>  <SCORE.INTER.SOLV>
32.4262

>  <SCORE.INTER.VDW>
-3.7534

>  <SCORE.INTER.norm>
0.27176

>  <SCORE.INTRA>
2.92751

>  <SCORE.INTRA.DIHEDRAL>
5.70203

>  <SCORE.INTRA.DIHEDRAL.0>
18.4149

>  <SCORE.INTRA.POLAR>
-0.128133

>  <SCORE.INTRA.POLAR.0>
0

>  <SCORE.INTRA.REPUL>
-0.0806039

>  <SCORE.INTRA.REPUL.0>
0.092687

>  <SCORE.INTRA.SOLV>
-2.48898

>  <SCORE.INTRA.SOLV.lig_0>
-120.37

>  <SCORE.INTRA.VDW>
2.15965

>  <SCORE.INTRA.VDW.0>
-1.75542

>  <SCORE.INTRA.norm>
0.0944356

>  <SCORE.RESTR>
11.789

>  <SCORE.RESTR.CAVITY>
11.789

>  <SCORE.RESTR.norm>
0.38029

>  <SCORE.SYSTEM>
0

>  <SCORE.SYSTEM.CONST>
0

>  <SCORE.SYSTEM.DIHEDRAL>
0

>  <SCORE.SYSTEM.SOLV>
0

>  <SCORE.SYSTEM.norm>
0

>  <SCORE.heavy>
31

>  <SCORE.norm>
0.746486

>  <RMSD>
11.989

$$$$
1byj cryst
 OpenBabel11021811383D
libRbt.so/2013.1/901 2013/11/27
 31 33  0  0  0  0  0  0  0  0999 V2000
   -4.5070   -1.8767   -6.7924 C   0  0  1  0  0  0  0  0  0  0  0  0
   -4.0364   -2.6812   -5.6639 O   0  0  0  0  0  0  0  0  0  0  0  0
   -3.1030   -3.7721   -5.9233 C   0  0  2  0  0  0  0  0  0  0  0  0
   -1.7997   -3.2663   -6.3503 O   0  0  0  0  0  0  0  0  0  0  0  0
   -3.7113   -4.7267   -6.9953 C   0  0  2  0  0  0  0  0  0  0  0  0
   -2.8336   -5.8669   -7.3247 N   0  3  0  0  0  0  0  0  0  0  0  0
   -4.0661   -3.9299   -8.2772 C   0  0  0  0  0  0  0  0  0  0  0  0
   -5.0179   -2.7672   -7.9584 C   0  0  0  0  0  0  0  0  0  0  0  0
   -5.6451   -0.9537   -6.3224 C   0  0  0  0  0  0  0  0  0  0  0  0
   -6.1034   -0.0070   -7.3476 N   0  3  0  0  0  0  0  0  0  0  0  0
   -0.3013   -4.0067   -4.5401 C   0  0  1  0  0  0  0  0  0  0  0  0
    0.6137   -3.5548   -3.3760 C   0  0  0  0  0  0  0  0  0  0  0  0
   -0.1714   -2.6525   -2.3864 C   0  0  1  0  0  0  0  0  0  0  0  0
    0.6893   -2.2935   -1.2430 N   0  3  0  0  0  0  0  0  0  0  0  0
   -0.7161   -1.3936   -3.1212 C   0  0  1  0  0  0  0  0  0  0  0  0
   -1.5588   -1.7771   -4.3633 C   0  0  1  0  0  0  0  0  0  0  0  0
   -1.8546   -0.5659   -5.0426 O   0  0  0  0  0  0  0  0  0  0  0  0
   -0.8622   -2.7838   -5.3374 C   0  0  2  0  0  0  0  0  0  0  0  0
    0.4220   -4.9443   -5.4171 N   0  3  0  0  0  0  0  0  0  0  0  0
   -1.9246    0.0814    0.7113 C   0  0  0  0  0  0  0  0  0  0  0  0
   -3.4143    0.4734    0.8689 C   0  0  2  0  0  0  0  0  0  0  0  0
   -3.9930   -0.4499    1.7902 O   0  0  0  0  0  0  0  0  0  0  0  0
   -4.1291    0.3918   -0.5324 C   0  0  1  0  0  0  0  0  0  0  0  0
   -3.8366   -0.9486   -1.2886 C   0  0  2  0  0  0  0  0  0  0  0  0
   -2.3437   -1.3631   -1.2557 C   0  0  1  0  0  0  0  0  0  0  0  0
   -1.5786   -0.6190   -2.2399 O   0  0  0  0  0  0  0  0  0  0  0  0
   -1.7910   -1.2217    0.0835 O   0  0  0  0  0  0  0  0  0  0  0  0
   -4.2668   -0.8859   -2.6459 O   0  0  0  0  0  0  0  0  0  0  0  0
   -5.6020    0.5909   -0.3613 N   0  3  0  0  0  0  0  0  0  0  0  0
   -6.3752   -0.5487    0.1729 C   0  0  0  0  0  0  0  0  0  0  0  0
   -3.4906    1.8782    1.5161 C   0  0  0  0  0  0  0  0  0  0  0  0
  1  8  1  0  0  0  0
  1  9  1  1  0  0  0
  1  2  1  0  0  0  0
  2  3  1  0  0  0  0
  3  5  1  0  0  0  0
  3  4  1  6  0  0  0
  5  7  1  0  0  0  0
  5  6  1  6  0  0  0
  7  8  1  0  0  0  0
  9 10  1  0  0  0  0
 11 12  1  0  0  0  0
 11 18  1  0  0  0  0
 11 19  1  6  0  0  0
 12 13  1  0  0  0  0
 13 15  1  0  0  0  0
 13 14  1  1  0  0  0
 15 16  1  0  0  0  0
 15 26  1  1  0  0  0
 16 18  1  0  0  0  0
 16 17  1  6  0  0  0
 18  4  1  6  0  0  0
 20 21  1  0  0  0  0
 20 27  1  0  0  0  0
 21 31  1  1  0  0  0
 21 23  1  0  0  0  0
 21 22  1  0  0  0  0
 23 24  1  0  0  0  0
 23 29  1  1  0  0  0
 24 25  1  0  0  0  0
 24 28  1  6  0  0  0
 25 27  1  0  0  0  0
 25 26  1  6  0  0  0
 29 30  1  0  0  0  0
M  CHG  5   6   1  10   1  14   1  19   1  29   1
M  END
>  <CHROM.1>
174.34840613,80.43034047,71.92122316,-71.51089247,68.92402175,-172.61566086
-170.97404774,-32.05759666,-54.57887789,-56.27100555,44.71239936,-173.58919902
-130.29721714,-2.82585502,-1.81728907,-3.45150838,1.51599278,0.44714777,-2.00704330

>  <Name>
1byj cryst

>  <RI>
0

>  <Rbt.Current_Directory>
/home/itssahil/PROJECTS/Mol_Feturizer/New_Systems/rnas/1byj

>  <Rbt.Executable>
rbdock ($Id: //depot/dev/client3/rdock/2013.1/src/exe/rbdock.cxx#4 $)

>  <Rbt.Library>
libRbt.so (2013.1, Build901 2013/11/27)

>  <Rbt.Parameter_File>
/export/apps/rDock/src/rDock_2013.1_src/data/scripts/dock_solv.prm

>  <Rbt.Receptor>
prm/blind_docking_60.prm

>  <SCORE>
-28.6891

>  <SCORE.INTER>
-28.7579

>  <SCORE.INTER.CONST>
1

>  <SCORE.INTER.POLAR>
-4.16146

>  <SCORE.INTER.ROT>
6

>  <SCORE.INTER.SOLV>
25.8292

>  <SCORE.INTER.VDW>
-21.5101

>  <SCORE.INTER.norm>
-0.927673

>  <SCORE.INTRA>
-6.02111

>  <SCORE.INTRA.DIHEDRAL>
-3.66775

>  <SCORE.INTRA.DIHEDRAL.0>
18.4149

>  <SCORE.INTRA.POLAR>
-1.11196

>  <SCORE.INTRA.POLAR.0>
0

>  <SCORE.INTRA.REPUL>
-0.092687

>  <SCORE.INTRA.REPUL.0>
0.092687

>  <SCORE.INTRA.SOLV>
-0.428968

>  <SCORE.INTRA.SOLV.lig_0>
-120.37

>  <SCORE.INTRA.VDW>
0.27135

>  <SCORE.INTRA.VDW.0>
-1.75542

>  <SCORE.INTRA.norm>
-0.194229

>  <SCORE.RESTR>
6.08985

>  <SCORE.RESTR.CAVITY>
6.08985

>  <SCORE.RESTR.norm>
0.196447

>  <SCORE.SYSTEM>
0

>  <SCORE.SYSTEM.CONST>
0

>  <SCORE.SYSTEM.DIHEDRAL>
0

>  <SCORE.SYSTEM.SOLV>
0

>  <SCORE.SYSTEM.norm>
0

>  <SCORE.heavy>
31

>  <SCORE.norm>
-0.925455

>  <RMSD>
12.001

$$$$
1byj cryst
 OpenBabel11021811383D
libRbt.so/2013.1/901 2013/11/27
 31 33  0  0  0  0  0  0  0  0999 V2000
    2.1502   -0.5916   -8.2170 C   0  0  1  0  0  0  0  0  0  0  0  0
    1.1815   -1.6660   -8.4389 O   0  0  0  0  0  0  0  0  0  0  0  0
    1.6648   -2.9554   -8.9212 C   0  0  2  0  0  0  0  0  0  0  0  0
    2.4699   -3.6343   -7.9075 O   0  0  0  0  0  0  0  0  0  0  0  0
    2.4802   -2.7422  -10.2327 C   0  0  2  0  0  0  0  0  0  0  0  0
    3.0126   -3.9976  -10.7980 N   0  3  0  0  0  0  0  0  0  0  0  0
    3.6291   -1.7305   -9.9864 C   0  0  0  0  0  0  0  0  0  0  0  0
    3.0860   -0.4006   -9.4424 C   0  0  0  0  0  0  0  0  0  0  0  0
    1.4003    0.7236   -7.9414 C   0  0  0  0  0  0  0  0  0  0  0  0
    0.6911    0.7444   -6.6553 N   0  3  0  0  0  0  0  0  0  0  0  0
    1.1131   -5.5587   -7.1822 C   0  0  1  0  0  0  0  0  0  0  0  0
    0.2891   -6.1756   -6.0259 C   0  0  0  0  0  0  0  0  0  0  0  0
   -0.8193   -5.1922   -5.5634 C   0  0  1  0  0  0  0  0  0  0  0  0
   -1.6450   -5.8227   -4.5157 N   0  3  0  0  0  0  0  0  0  0  0  0
   -0.1860   -3.8561   -5.0781 C   0  0  1  0  0  0  0  0  0  0  0  0
    0.7376   -3.2368   -6.1568 C   0  0  1  0  0  0  0  0  0  0  0  0
    1.3851   -2.1289   -5.5490 O   0  0  0  0  0  0  0  0  0  0  0  0
    1.7991   -4.2217   -6.7487 C   0  0  2  0  0  0  0  0  0  0  0  0
    2.0939   -6.5379   -7.6827 N   0  3  0  0  0  0  0  0  0  0  0  0
   -3.6170   -4.0426   -6.2741 C   0  0  0  0  0  0  0  0  0  0  0  0
   -4.8003   -3.0960   -5.9557 C   0  0  2  0  0  0  0  0  0  0  0  0
   -5.2431   -2.5500   -7.1975 O   0  0  0  0  0  0  0  0  0  0  0  0
   -4.3134   -1.9569   -4.9827 C   0  0  1  0  0  0  0  0  0  0  0  0
   -2.9842   -1.2771   -5.4570 C   0  0  2  0  0  0  0  0  0  0  0  0
   -1.9057   -2.2879   -5.9228 C   0  0  1  0  0  0  0  0  0  0  0  0
   -1.2215   -2.8750   -4.7849 O   0  0  0  0  0  0  0  0  0  0  0  0
   -2.4810   -3.3020   -6.7944 O   0  0  0  0  0  0  0  0  0  0  0  0
   -2.4294   -0.4495   -4.4380 O   0  0  0  0  0  0  0  0  0  0  0  0
   -5.3963   -0.9384   -4.8142 N   0  3  0  0  0  0  0  0  0  0  0  0
   -6.5395   -1.3106   -3.9560 C   0  0  0  0  0  0  0  0  0  0  0  0
   -5.9665   -3.9374   -5.3810 C   0  0  0  0  0  0  0  0  0  0  0  0
  1  8  1  0  0  0  0
  1  9  1  6  0  0  0
  1  2  1  0  0  0  0
  2  3  1  0  0  0  0
  3  5  1  0  0  0  0
  3  4  1  1  0  0  0
  5  7  1  0  0  0  0
  5  6  1  1  0  0  0
  7  8  1  0  0  0  0
  9 10  1  0  0  0  0
 11 12  1  0  0  0  0
 11 18  1  0  0  0  0
 11 19  1  1  0  0  0
 12 13  1  0  0  0  0
 13 15  1  0  0  0  0
 13 14  1  1  0  0  0
 15 16  1  0  0  0  0
 15 26  1  6  0  0  0
 16 18  1  0  0  0  0
 16 17  1  1  0  0  0
 18  4  1  6  0  0  0
 20 21  1  0  0  0  0
 20 27  1  0  0  0  0
 21 31  1  1  0  0  0
 21 23  1  0  0  0  0
 21 22  1  0  0  0  0
 23 24  1  0  0  0  0
 23 29  1  6  0  0  0
 24 25  1  0  0  0  0
 24 28  1  1  0  0  0
 25 27  1  0  0  0  0
 25 26  1  1  0  0  0
 29 30  1  0  0  0  0
M  CHG  5   6   1  10   1  14   1  19   1  29   1
M  END
>  <CHROM.1>
68.90057526,73.27199434,76.44638838,-59.94420299,-112.05882557,73.14466120
-82.37248731,-72.79895390,64.12115627,56.65246956,-163.86062304,61.08348959
179.46618911,-0.67065679,-2.80363541,-6.72633755,0.02201826,0.47379710,-0.14302488

>  <Name>
1byj cryst

>  <RI>
0

>  <Rbt.Current_Directory>
/home/itssahil/PROJECTS/Mol_Feturizer/New_Systems/rnas/1byj

>  <Rbt.Executable>
rbdock ($Id: //depot/dev/client3/rdock/2013.1/src/exe/rbdock.cxx#4 $)

>  <Rbt.Library>
libRbt.so (2013.1, Build901 2013/11/27)

>  <Rbt.Parameter_File>
/export/apps/rDock/src/rDock_2013.1_src/data/scripts/dock_solv.prm

>  <Rbt.Receptor>
prm/blind_docking_100.prm

>  <SCORE>
-25.3734

>  <SCORE.INTER>
-23.5126

>  <SCORE.INTER.CONST>
1

>  <SCORE.INTER.POLAR>
-4.33006

>  <SCORE.INTER.ROT>
6

>  <SCORE.INTER.SOLV>
26.306

>  <SCORE.INTER.VDW>
-17.6102

>  <SCORE.INTER.norm>
-0.758471

>  <SCORE.INTRA>
-7.04847

>  <SCORE.INTRA.DIHEDRAL>
-9.26283

>  <SCORE.INTRA.DIHEDRAL.0>
18.4149

>  <SCORE.INTRA.POLAR>
-1.13401

>  <SCORE.INTRA.POLAR.0>
0

>  <SCORE.INTRA.REPUL>
-0.0657639

>  <SCORE.INTRA.REPUL.0>
0.092687

>  <SCORE.INTRA.SOLV>
1.20675

>  <SCORE.INTRA.SOLV.lig_0>
-120.37

>  <SCORE.INTRA.VDW>
1.16404

>  <SCORE.INTRA.VDW.0>
-1.75542

>  <SCORE.INTRA.norm>
-0.22737

>  <SCORE.RESTR>
5.18769

>  <SCORE.RESTR.CAVITY>
5.18769

>  <SCORE.RESTR.norm>
0.167345

>  <SCORE.SYSTEM>
0

>  <SCORE.SYSTEM.CONST>
0

>  <SCORE.SYSTEM.DIHEDRAL>
0

>  <SCORE.SYSTEM.SOLV>
0

>  <SCORE.SYSTEM.norm>
0

>  <SCORE.heavy>
31

>  <SCORE.norm>
-0.818496

>  <RMSD>
12.023

$$$$
1byj cryst
 OpenBabel11021811383D
libRbt.so/2013.1/901 2013/11/27
 31 33  0  0  0  0  0  0  0  0999 V2000
    2.8587   -3.6386  -10.8739 C   0  0  1  0  0  0  0  0  0  0  0  0
    2.6759   -2.5445   -9.9192 O   0  0  0  0  0  0  0  0  0  0  0  0
    1.3934   -2.4199   -9.2348 C   0  0  2  0  0  0  0  0  0  0  0  0
    1.1804   -3.5231   -8.2998 O   0  0  0  0  0  0  0  0  0  0  0  0
    0.2496   -2.3538  -10.2920 C   0  0  2  0  0  0  0  0  0  0  0  0
   -1.0925   -2.2267   -9.6907 N   0  3  0  0  0  0  0  0  0  0  0  0
    0.3105   -3.5943  -11.2201 C   0  0  0  0  0  0  0  0  0  0  0  0
    1.6870   -3.7142  -11.8913 C   0  0  0  0  0  0  0  0  0  0  0  0
    4.1802   -3.4363  -11.6360 C   0  0  0  0  0  0  0  0  0  0  0  0
    5.3457   -4.0359  -10.9730 N   0  3  0  0  0  0  0  0  0  0  0  0
    1.3003   -4.5944   -6.0843 C   0  0  1  0  0  0  0  0  0  0  0  0
    1.1957   -4.3780   -4.5550 C   0  0  0  0  0  0  0  0  0  0  0  0
   -0.1651   -3.7261   -4.1902 C   0  0  1  0  0  0  0  0  0  0  0  0
   -0.2836   -3.5973   -2.7252 N   0  3  0  0  0  0  0  0  0  0  0  0
   -0.3147   -2.3535   -4.9079 C   0  0  1  0  0  0  0  0  0  0  0  0
   -0.1166   -2.4848   -6.4388 C   0  0  1  0  0  0  0  0  0  0  0  0
   -0.1040   -1.1645   -6.9610 O   0  0  0  0  0  0  0  0  0  0  0  0
    1.1832   -3.2440   -6.8646 C   0  0  2  0  0  0  0  0  0  0  0  0
    2.5487   -5.3062   -6.4101 N   0  3  0  0  0  0  0  0  0  0  0  0
   -3.8009   -3.8155   -5.4913 C   0  0  0  0  0  0  0  0  0  0  0  0
   -5.1466   -3.0744   -5.2982 C   0  0  2  0  0  0  0  0  0  0  0  0
   -5.7792   -3.0194   -6.5761 O   0  0  0  0  0  0  0  0  0  0  0  0
   -4.8726   -1.6256   -4.7440 C   0  0  1  0  0  0  0  0  0  0  0  0
   -3.7660   -0.8640   -5.5498 C   0  0  2  0  0  0  0  0  0  0  0  0
   -2.5166   -1.7295   -5.8526 C   0  0  1  0  0  0  0  0  0  0  0  0
   -1.6465   -1.8052   -4.6929 O   0  0  0  0  0  0  0  0  0  0  0  0
   -2.8987   -3.0493   -6.3333 O   0  0  0  0  0  0  0  0  0  0  0  0
   -3.3520    0.3210   -4.8748 O   0  0  0  0  0  0  0  0  0  0  0  0
   -6.1466   -0.8414   -4.7262 N   0  3  0  0  0  0  0  0  0  0  0  0
   -7.0872   -1.1151   -3.6207 C   0  0  0  0  0  0  0  0  0  0  0  0
   -6.0516   -3.9246   -4.3730 C   0  0  0  0  0  0  0  0  0  0  0  0
  1  8  1  0  0  0  0
  1  9  1  6  0  0  0
  1  2  1  0  0  0  0
  2  3  1  0  0  0  0
  3  5  1  0  0  0  0
  3  4  1  1  0  0  0
  5  7  1  0  0  0  0
  5  6  1  1  0  0  0
  7  8  1  0  0  0  0
  9 10  1  0  0  0  0
 11 12  1  0  0  0  0
 11 18  1  0  0  0  0
 11 19  1  1  0  0  0
 12 13  1  0  0  0  0
 13 15  1  0  0  0  0
 13 14  1  1  0  0  0
 15 16  1  0  0  0  0
 15 26  1  6  0  0  0
 16 18  1  0  0  0  0
 16 17  1  6  0  0  0
 18  4  1  6  0  0  0
 20 21  1  0  0  0  0
 20 27  1  0  0  0  0
 21 31  1  1  0  0  0
 21 23  1  0  0  0  0
 21 22  1  0  0  0  0
 23 24  1  0  0  0  0
 23 29  1  6  0  0  0
 24 25  1  0  0  0  0
 24 28  1  1  0  0  0
 25 27  1  0  0  0  0
 25 26  1  1  0  0  0
 29 30  1  0  0  0  0
M  CHG  5   6   1  10   1  14   1  19   1  29   1
M  END
>  <CHROM.1>
88.38513143,111.52726657,-165.85542793,155.97609109,-153.03916775,-100.83197141
135.34629414,-112.04416663,69.43221971,64.50853812,-160.71878980,-175.88897274
-167.96271622,-0.93534820,-2.79032938,-6.93588990,0.56471776,0.30473427,-1.40758400

>  <Name>
1byj cryst

>  <RI>
0

>  <Rbt.Current_Directory>
/home/itssahil/PROJECTS/Mol_Feturizer/New_Systems/rnas/1byj

>  <Rbt.Executable>
rbdock ($Id: //depot/dev/client3/rdock/2013.1/src/exe/rbdock.cxx#4 $)

>  <Rbt.Library>
libRbt.so (2013.1, Build901 2013/11/27)

>  <Rbt.Parameter_File>
/export/apps/rDock/src/rDock_2013.1_src/data/scripts/dock_solv.prm

>  <Rbt.Receptor>
prm/blind_docking_100.prm

>  <SCORE>
11.1037

>  <SCORE.INTER>
-1.85306

>  <SCORE.INTER.CONST>
1

>  <SCORE.INTER.POLAR>
-2.25561

>  <SCORE.INTER.ROT>
6

>  <SCORE.INTER.SOLV>
31.7652

>  <SCORE.INTER.VDW>
-11.9051

>  <SCORE.INTER.norm>
-0.0597763

>  <SCORE.INTRA>
4.73638

>  <SCORE.INTRA.DIHEDRAL>
9.60232

>  <SCORE.INTRA.DIHEDRAL.0>
18.4149

>  <SCORE.INTRA.POLAR>
-1.14592

>  <SCORE.INTRA.POLAR.0>
0

>  <SCORE.INTRA.REPUL>
-0.092687

>  <SCORE.INTRA.REPUL.0>
0.092687

>  <SCORE.INTRA.SOLV>
-2.74455

>  <SCORE.INTRA.SOLV.lig_0>
-120.37

>  <SCORE.INTRA.VDW>
5.66707

>  <SCORE.INTRA.VDW.0>
-1.75542

>  <SCORE.INTRA.norm>
0.152787

>  <SCORE.RESTR>
8.22034

>  <SCORE.RESTR.CAVITY>
8.22034

>  <SCORE.RESTR.norm>
0.265172

>  <SCORE.SYSTEM>
0

>  <SCORE.SYSTEM.CONST>
0

>  <SCORE.SYSTEM.DIHEDRAL>
0

>  <SCORE.SYSTEM.SOLV>
0

>  <SCORE.SYSTEM.norm>
0

>  <SCORE.heavy>
31

>  <SCORE.norm>
0.358183

>  <RMSD>
12.024

$$$$
1byj cryst
 OpenBabel11021811383D
libRbt.so/2013.1/901 2013/11/27
 31 33  0  0  0  0  0  0  0  0999 V2000
    2.6442   -0.7890   -8.7327 C   0  0  1  0  0  0  0  0  0  0  0  0
    1.5908   -1.8049   -8.7532 O   0  0  0  0  0  0  0  0  0  0  0  0
    1.9604   -3.1909   -9.0195 C   0  0  2  0  0  0  0  0  0  0  0  0
    2.7427   -3.7531   -7.9201 O   0  0  0  0  0  0  0  0  0  0  0  0
    2.7491   -3.2650  -10.3623 C   0  0  2  0  0  0  0  0  0  0  0  0
    3.1677   -4.6354  -10.7169 N   0  3  0  0  0  0  0  0  0  0  0  0
    3.9781   -2.3211  -10.3102 C   0  0  0  0  0  0  0  0  0  0  0  0
    3.5538   -0.8801   -9.9889 C   0  0  0  0  0  0  0  0  0  0  0  0
    2.0045    0.6092   -8.6697 C   0  0  0  0  0  0  0  0  0  0  0  0
    0.8358    0.6880   -7.7836 N   0  3  0  0  0  0  0  0  0  0  0  0
    1.2548   -5.6296   -7.3409 C   0  0  1  0  0  0  0  0  0  0  0  0
    0.3982   -6.2825   -6.2289 C   0  0  0  0  0  0  0  0  0  0  0  0
   -0.6310   -5.2650   -5.6676 C   0  0  1  0  0  0  0  0  0  0  0  0
   -1.4913   -5.9219   -4.6650 N   0  3  0  0  0  0  0  0  0  0  0  0
    0.1029   -4.0249   -5.0800 C   0  0  1  0  0  0  0  0  0  0  0  0
    1.0598   -3.3835   -6.1159 C   0  0  1  0  0  0  0  0  0  0  0  0
    1.7921   -2.3817   -5.4258 O   0  0  0  0  0  0  0  0  0  0  0  0
    2.0409   -4.3880   -6.8055 C   0  0  2  0  0  0  0  0  0  0  0  0
    2.1568   -6.6304   -7.9377 N   0  3  0  0  0  0  0  0  0  0  0  0
   -3.2409   -3.9197   -6.3569 C   0  0  0  0  0  0  0  0  0  0  0  0
   -4.4094   -2.9880   -5.9517 C   0  0  2  0  0  0  0  0  0  0  0  0
   -4.8099   -2.2862   -7.1278 O   0  0  0  0  0  0  0  0  0  0  0  0
   -3.9197   -1.9863   -4.8390 C   0  0  1  0  0  0  0  0  0  0  0  0
   -2.5644   -1.2889   -5.2004 C   0  0  2  0  0  0  0  0  0  0  0  0
   -1.4986   -2.2640   -5.7618 C   0  0  1  0  0  0  0  0  0  0  0  0
   -0.8552   -3.0004   -4.6887 O   0  0  0  0  0  0  0  0  0  0  0  0
   -2.0761   -3.1515   -6.7606 O   0  0  0  0  0  0  0  0  0  0  0  0
   -2.0151   -0.6036   -4.0780 O   0  0  0  0  0  0  0  0  0  0  0  0
   -4.9827   -0.9678   -4.5719 N   0  3  0  0  0  0  0  0  0  0  0  0
   -6.1366   -1.4005   -3.7575 C   0  0  0  0  0  0  0  0  0  0  0  0
   -5.6079   -3.8619   -5.5067 C   0  0  0  0  0  0  0  0  0  0  0  0
  1  8  1  0  0  0  0
  1  9  1  6  0  0  0
  1  2  1  0  0  0  0
  2  3  1  0  0  0  0
  3  5  1  0  0  0  0
  3  4  1  1  0  0  0
  5  7  1  0  0  0  0
  5  6  1  1  0  0  0
  7  8  1  0  0  0  0
  9 10  1  0  0  0  0
 11 12  1  0  0  0  0
 11 18  1  0  0  0  0
 11 19  1  1  0  0  0
 12 13  1  0  0  0  0
 13 15  1  0  0  0  0
 13 14  1  1  0  0  0
 15 16  1  0  0  0  0
 15 26  1  6  0  0  0
 16 18  1  0  0  0  0
 16 17  1  1  0  0  0
 18  4  1  6  0  0  0
 20 21  1  0  0  0  0
 20 27  1  0  0  0  0
 21 31  1  1  0  0  0
 21 23  1  0  0  0  0
 21 22  1  0  0  0  0
 23 24  1  0  0  0  0
 23 29  1  6  0  0  0
 24 25  1  0  0  0  0
 24 28  1  1  0  0  0
 25 27  1  0  0  0  0
 25 26  1  1  0  0  0
 29 30  1  0  0  0  0
M  CHG  5   6   1  10   1  14   1  19   1  29   1
M  END
>  <CHROM.1>
39.97757609,88.31275429,62.80730992,-62.59279963,109.45567109,70.70004501
40.08859899,-73.16190015,73.43766233,175.67996441,-162.24448793,60.93312056
175.70396979,-0.34723455,-2.92856273,-6.82625772,0.02096933,0.53203562,-0.19263330

>  <Name>
1byj cryst

>  <RI>
0

>  <Rbt.Current_Directory>
/home/itssahil/PROJECTS/Mol_Feturizer/New_Systems/rnas/1byj

>  <Rbt.Executable>
rbdock ($Id: //depot/dev/client3/rdock/2013.1/src/exe/rbdock.cxx#4 $)

>  <Rbt.Library>
libRbt.so (2013.1, Build901 2013/11/27)

>  <Rbt.Parameter_File>
/export/apps/rDock/src/rDock_2013.1_src/data/scripts/dock_solv.prm

>  <Rbt.Receptor>
prm/blind_docking_80.prm

>  <SCORE>
-31.3585

>  <SCORE.INTER>
-30.6921

>  <SCORE.INTER.CONST>
1

>  <SCORE.INTER.POLAR>
-4.40631

>  <SCORE.INTER.ROT>
6

>  <SCORE.INTER.SOLV>
27.9905

>  <SCORE.INTER.VDW>
-22.7039

>  <SCORE.INTER.norm>
-0.990067

>  <SCORE.INTRA>
-1.75209

>  <SCORE.INTRA.DIHEDRAL>
-6.39708

>  <SCORE.INTRA.DIHEDRAL.0>
18.4149

>  <SCORE.INTRA.POLAR>
-0.189973

>  <SCORE.INTRA.POLAR.0>
0

>  <SCORE.INTRA.REPUL>
-0.0857534

>  <SCORE.INTRA.REPUL.0>
0.092687

>  <SCORE.INTRA.SOLV>
2.28987

>  <SCORE.INTRA.SOLV.lig_0>
-120.37

>  <SCORE.INTRA.VDW>
1.37619

>  <SCORE.INTRA.VDW.0>
-1.75542

>  <SCORE.INTRA.norm>
-0.0565189

>  <SCORE.RESTR>
1.08561

>  <SCORE.RESTR.CAVITY>
1.08561

>  <SCORE.RESTR.norm>
0.0350198

>  <SCORE.SYSTEM>
0

>  <SCORE.SYSTEM.CONST>
0

>  <SCORE.SYSTEM.DIHEDRAL>
0

>  <SCORE.SYSTEM.SOLV>
0

>  <SCORE.SYSTEM.norm>
0

>  <SCORE.heavy>
31

>  <SCORE.norm>
-1.01157

>  <RMSD>
12.035

$$$$
1byj cryst
 OpenBabel11021811383D
libRbt.so/2013.1/901 2013/11/27
 31 33  0  0  0  0  0  0  0  0999 V2000
    2.1296   -1.0978   -5.2647 C   0  0  1  0  0  0  0  0  0  0  0  0
    0.7929   -0.6867   -5.6964 O   0  0  0  0  0  0  0  0  0  0  0  0
    0.5256   -0.5653   -7.1255 C   0  0  2  0  0  0  0  0  0  0  0  0
    0.5423   -1.8711   -7.7823 O   0  0  0  0  0  0  0  0  0  0  0  0
    1.5725    0.3963   -7.7655 C   0  0  2  0  0  0  0  0  0  0  0  0
    1.3814    0.5821   -9.2174 N   0  3  0  0  0  0  0  0  0  0  0  0
    3.0086   -0.1077   -7.4697 C   0  0  0  0  0  0  0  0  0  0  0  0
    3.2394   -0.2608   -5.9588 C   0  0  0  0  0  0  0  0  0  0  0  0
    2.2477   -0.9313   -3.7394 C   0  0  0  0  0  0  0  0  0  0  0  0
    1.3679   -1.8248   -2.9748 N   0  3  0  0  0  0  0  0  0  0  0  0
    0.5712   -4.3141   -7.4640 C   0  0  1  0  0  0  0  0  0  0  0  0
   -0.2121   -5.5417   -6.9388 C   0  0  0  0  0  0  0  0  0  0  0  0
   -1.6085   -5.6242   -7.6120 C   0  0  1  0  0  0  0  0  0  0  0  0
   -2.3123   -6.8401   -7.1614 N   0  3  0  0  0  0  0  0  0  0  0  0
   -2.4273   -4.3349   -7.3141 C   0  0  1  0  0  0  0  0  0  0  0  0
   -1.6512   -3.0580   -7.7230 C   0  0  1  0  0  0  0  0  0  0  0  0
   -2.4105   -1.9539   -7.2534 O   0  0  0  0  0  0  0  0  0  0  0  0
   -0.1896   -2.9794   -7.1709 C   0  0  2  0  0  0  0  0  0  0  0  0
    1.9316   -4.3022   -6.8978 N   0  3  0  0  0  0  0  0  0  0  0  0
   -3.9293   -2.8738   -5.3954 C   0  0  0  0  0  0  0  0  0  0  0  0
   -4.7239   -1.5823   -5.7084 C   0  0  2  0  0  0  0  0  0  0  0  0
   -5.9258   -1.6361   -4.9411 O   0  0  0  0  0  0  0  0  0  0  0  0
   -5.0434   -1.5237   -7.2498 C   0  0  1  0  0  0  0  0  0  0  0  0
   -5.6434   -2.8625   -7.7991 C   0  0  2  0  0  0  0  0  0  0  0  0
   -4.8942   -4.1248   -7.3019 C   0  0  1  0  0  0  0  0  0  0  0  0
   -3.6762   -4.3365   -8.0630 O   0  0  0  0  0  0  0  0  0  0  0  0
   -4.6360   -4.0502   -5.8713 O   0  0  0  0  0  0  0  0  0  0  0  0
   -5.6712   -2.8754   -9.2240 O   0  0  0  0  0  0  0  0  0  0  0  0
   -5.9628   -0.3779   -7.5327 N   0  3  0  0  0  0  0  0  0  0  0  0
   -6.6748   -0.3929   -8.8268 C   0  0  0  0  0  0  0  0  0  0  0  0
   -3.9097   -0.3656   -5.2036 C   0  0  0  0  0  0  0  0  0  0  0  0
  1  8  1  0  0  0  0
  1  9  1  1  0  0  0
  1  2  1  0  0  0  0
  2  3  1  0  0  0  0
  3  5  1  0  0  0  0
  3  4  1  6  0  0  0
  5  7  1  0  0  0  0
  5  6  1  6  0  0  0
  7  8  1  0  0  0  0
  9 10  1  0  0  0  0
 11 12  1  0  0  0  0
 11 18  1  0  0  0  0
 11 19  1  1  0  0  0
 12 13  1  0  0  0  0
 13 15  1  0  0  0  0
 13 14  1  1  0  0  0
 15 16  1  0  0  0  0
 15 26  1  6  0  0  0
 16 18  1  0  0  0  0
 16 17  1  1  0  0  0
 18  4  1  6  0  0  0
 20 21  1  0  0  0  0
 20 27  1  0  0  0  0
 21 31  1  1  0  0  0
 21 23  1  0  0  0  0
 21 22  1  0  0  0  0
 23 24  1  0  0  0  0
 23 29  1  1  0  0  0
 24 25  1  0  0  0  0
 24 28  1  6  0  0  0
 25 27  1  0  0  0  0
 25 26  1  6  0  0  0
 29 30  1  0  0  0  0
M  CHG  5   6   1  10   1  14   1  19   1  29   1
M  END
>  <CHROM.1>
65.56505428,46.93057775,-147.08730509,-61.79735286,-67.17098964,63.24481831
70.99913264,127.10977836,141.97326496,-63.15316037,-41.76243725,63.88874248
120.09183812,-1.70746949,-2.33384143,-6.82389280,0.19221672,-0.11790528,0.08293551

>  <Name>
1byj cryst

>  <RI>
0

>  <Rbt.Current_Directory>
/home/itssahil/PROJECTS/Mol_Feturizer/New_Systems/rnas/1byj

>  <Rbt.Executable>
rbdock ($Id: //depot/dev/client3/rdock/2013.1/src/exe/rbdock.cxx#4 $)

>  <Rbt.Library>
libRbt.so (2013.1, Build901 2013/11/27)

>  <Rbt.Parameter_File>
/export/apps/rDock/src/rDock_2013.1_src/data/scripts/dock_solv.prm

>  <Rbt.Receptor>
prm/blind_docking_20.prm

>  <SCORE>
0.633004

>  <SCORE.INTER>
-16.5755

>  <SCORE.INTER.CONST>
1

>  <SCORE.INTER.POLAR>
-4.24763

>  <SCORE.INTER.ROT>
6

>  <SCORE.INTER.SOLV>
32.5882

>  <SCORE.INTER.VDW>
-15.3543

>  <SCORE.INTER.norm>
-0.534695

>  <SCORE.INTRA>
7.73617

>  <SCORE.INTRA.DIHEDRAL>
7.23804

>  <SCORE.INTRA.DIHEDRAL.0>
18.4149

>  <SCORE.INTRA.POLAR>
-0.00468256

>  <SCORE.INTRA.POLAR.0>
0

>  <SCORE.INTRA.REPUL>
-0.092687

>  <SCORE.INTRA.REPUL.0>
0.092687

>  <SCORE.INTRA.SOLV>
-1.42587

>  <SCORE.INTRA.SOLV.lig_0>
-120.37

>  <SCORE.INTRA.VDW>
5.30944

>  <SCORE.INTRA.VDW.0>
-1.75542

>  <SCORE.INTRA.norm>
0.249554

>  <SCORE.RESTR>
9.47236

>  <SCORE.RESTR.CAVITY>
9.47236

>  <SCORE.RESTR.norm>
0.30556

>  <SCORE.SYSTEM>
0

>  <SCORE.SYSTEM.CONST>
0

>  <SCORE.SYSTEM.DIHEDRAL>
0

>  <SCORE.SYSTEM.SOLV>
0

>  <SCORE.SYSTEM.norm>
0

>  <SCORE.heavy>
31

>  <SCORE.norm>
0.0204195

>  <RMSD>
12.095

$$$$
1byj cryst
 OpenBabel11021811383D
libRbt.so/2013.1/901 2013/11/27
 31 33  0  0  0  0  0  0  0  0999 V2000
    6.8663   -4.3744  -12.7972 C   0  0  1  0  0  0  0  0  0  0  0  0
    5.4214   -4.1940  -12.9448 O   0  0  0  0  0  0  0  0  0  0  0  0
    4.5650   -4.4279  -11.7870 C   0  0  2  0  0  0  0  0  0  0  0  0
    4.7769   -3.4139  -10.7556 O   0  0  0  0  0  0  0  0  0  0  0  0
    4.8332   -5.8585  -11.2285 C   0  0  2  0  0  0  0  0  0  0  0  0
    4.0082   -6.1873  -10.0493 N   0  3  0  0  0  0  0  0  0  0  0  0
    6.3387   -6.0274  -10.8986 C   0  0  0  0  0  0  0  0  0  0  0  0
    7.2095   -5.7348  -12.1298 C   0  0  0  0  0  0  0  0  0  0  0  0
    7.5339   -4.3058  -14.1820 C   0  0  0  0  0  0  0  0  0  0  0  0
    6.6450   -4.6822  -15.2889 N   0  3  0  0  0  0  0  0  0  0  0  0
    4.0677   -1.0981  -10.3036 C   0  0  1  0  0  0  0  0  0  0  0  0
    2.9436   -0.1948   -9.7405 C   0  0  0  0  0  0  0  0  0  0  0  0
    2.5893   -0.6098   -8.2873 C   0  0  1  0  0  0  0  0  0  0  0  0
    1.5733    0.3073   -7.7365 N   0  3  0  0  0  0  0  0  0  0  0  0
    2.1153   -2.0916   -8.2505 C   0  0  1  0  0  0  0  0  0  0  0  0
    3.1556   -3.0404   -8.8967 C   0  0  1  0  0  0  0  0  0  0  0  0
    2.5499   -4.3230   -8.9613 O   0  0  0  0  0  0  0  0  0  0  0  0
    3.6418   -2.6029  -10.3178 C   0  0  2  0  0  0  0  0  0  0  0  0
    4.4680   -0.6318  -11.6428 N   0  3  0  0  0  0  0  0  0  0  0  0
    1.2929   -3.9053   -4.2228 C   0  0  0  0  0  0  0  0  0  0  0  0
   -0.1762   -3.5316   -3.9068 C   0  0  2  0  0  0  0  0  0  0  0  0
   -0.9150   -4.7513   -3.8565 O   0  0  0  0  0  0  0  0  0  0  0  0
   -0.7311   -2.5847   -5.0368 C   0  0  1  0  0  0  0  0  0  0  0  0
   -0.4430   -3.1235   -6.4793 C   0  0  2  0  0  0  0  0  0  0  0  0
    1.0062   -3.6393   -6.6679 C   0  0  1  0  0  0  0  0  0  0  0  0
    1.9252   -2.5348   -6.8765 O   0  0  0  0  0  0  0  0  0  0  0  0
    1.4113   -4.4807   -5.5513 O   0  0  0  0  0  0  0  0  0  0  0  0
   -0.7113   -2.1334   -7.4688 O   0  0  0  0  0  0  0  0  0  0  0  0
   -2.1977   -2.3657   -4.8383 N   0  3  0  0  0  0  0  0  0  0  0  0
   -2.6849   -0.9735   -4.9189 C   0  0  0  0  0  0  0  0  0  0  0  0
   -0.2334   -2.9002   -2.4940 C   0  0  0  0  0  0  0  0  0  0  0  0
  1  8  1  0  0  0  0
  1  9  1  6  0  0  0
  1  2  1  0  0  0  0
  2  3  1  0  0  0  0
  3  5  1  0  0  0  0
  3  4  1  1  0  0  0
  5  7  1  0  0  0  0
  5  6  1  1  0  0  0
  7  8  1  0  0  0  0
  9 10  1  0  0  0  0
 11 12  1  0  0  0  0
 11 18  1  0  0  0  0
 11 19  1  6  0  0  0
 12 13  1  0  0  0  0
 13 15  1  0  0  0  0
 13 14  1  6  0  0  0
 15 16  1  0  0  0  0
 15 26  1  1  0  0  0
 16 18  1  0  0  0  0
 16 17  1  6  0  0  0
 18  4  1  1  0  0  0
 20 21  1  0  0  0  0
 20 27  1  0  0  0  0
 21 31  1  1  0  0  0
 21 23  1  0  0  0  0
 21 22  1  0  0  0  0
 23 24  1  0  0  0  0
 23 29  1  1  0  0  0
 24 25  1  0  0  0  0
 24 28  1  6  0  0  0
 25 27  1  0  0  0  0
 25 26  1  1  0  0  0
 29 30  1  0  0  0  0
M  CHG  5   6   1  10   1  14   1  19   1  29   1
M  END
>  <CHROM.1>
-25.88983934,121.70641158,-132.20917666,-143.14563253,-58.19297105,135.82437198
174.26589618,155.75885626,57.33609856,-162.87631674,-106.25719088,-55.68360991
-88.30816404,2.63477462,-3.23816626,-8.67087397,-0.17959553,-0.86602824,2.70536232

>  <Name>
1byj cryst

>  <RI>
0

>  <Rbt.Current_Directory>
/home/itssahil/PROJECTS/Mol_Feturizer/New_Systems/rnas/1byj

>  <Rbt.Executable>
rbdock ($Id: //depot/dev/client3/rdock/2013.1/src/exe/rbdock.cxx#4 $)

>  <Rbt.Library>
libRbt.so (2013.1, Build901 2013/11/27)

>  <Rbt.Parameter_File>
/export/apps/rDock/src/rDock_2013.1_src/data/scripts/dock_solv.prm

>  <Rbt.Receptor>
prm/blind_docking_40.prm

>  <SCORE>
19.8753

>  <SCORE.INTER>
5.83478

>  <SCORE.INTER.CONST>
1

>  <SCORE.INTER.POLAR>
-1.74549

>  <SCORE.INTER.ROT>
6

>  <SCORE.INTER.SOLV>
33.9553

>  <SCORE.INTER.VDW>
-9.2103

>  <SCORE.INTER.norm>
0.188219

>  <SCORE.INTRA>
4.36764

>  <SCORE.INTRA.DIHEDRAL>
14.7662

>  <SCORE.INTRA.DIHEDRAL.0>
18.4149

>  <SCORE.INTRA.POLAR>
-1.16667

>  <SCORE.INTRA.POLAR.0>
0

>  <SCORE.INTRA.REPUL>
-0.092687

>  <SCORE.INTRA.REPUL.0>
0.092687

>  <SCORE.INTRA.SOLV>
3.10808

>  <SCORE.INTRA.SOLV.lig_0>
-120.37

>  <SCORE.INTRA.VDW>
-0.13942

>  <SCORE.INTRA.VDW.0>
-1.75542

>  <SCORE.INTRA.norm>
0.140892

>  <SCORE.RESTR>
9.67285

>  <SCORE.RESTR.CAVITY>
9.67285

>  <SCORE.RESTR.norm>
0.312027

>  <SCORE.SYSTEM>
0

>  <SCORE.SYSTEM.CONST>
0

>  <SCORE.SYSTEM.DIHEDRAL>
0

>  <SCORE.SYSTEM.SOLV>
0

>  <SCORE.SYSTEM.norm>
0

>  <SCORE.heavy>
31

>  <SCORE.norm>
0.641138

>  <RMSD>
12.119

$$$$
1byj cryst
 OpenBabel11021811383D
libRbt.so/2013.1/901 2013/11/27
 31 33  0  0  0  0  0  0  0  0999 V2000
    1.3535   -0.4477   -7.7277 C   0  0  1  0  0  0  0  0  0  0  0  0
    1.8036   -1.7546   -7.2465 O   0  0  0  0  0  0  0  0  0  0  0  0
    1.9365   -1.9631   -5.8086 C   0  0  2  0  0  0  0  0  0  0  0  0
    0.6326   -1.9580   -5.1480 O   0  0  0  0  0  0  0  0  0  0  0  0
    2.8697   -0.8654   -5.2130 C   0  0  2  0  0  0  0  0  0  0  0  0
    3.0647   -0.9951   -3.7556 N   0  3  0  0  0  0  0  0  0  0  0  0
    2.3241    0.5434   -5.5619 C   0  0  0  0  0  0  0  0  0  0  0  0
    2.1604    0.7112   -7.0800 C   0  0  0  0  0  0  0  0  0  0  0  0
    1.5124   -0.3839   -9.2570 C   0  0  0  0  0  0  0  0  0  0  0  0
    2.8901   -0.5953   -9.7201 N   0  3  0  0  0  0  0  0  0  0  0  0
    0.6577   -4.3310   -5.8104 C   0  0  1  0  0  0  0  0  0  0  0  0
   -0.1876   -5.6162   -5.9846 C   0  0  0  0  0  0  0  0  0  0  0  0
   -1.4007   -5.3469   -6.9150 C   0  0  1  0  0  0  0  0  0  0  0  0
   -2.1525   -6.5973   -7.1346 N   0  3  0  0  0  0  0  0  0  0  0  0
   -2.2995   -4.2259   -6.3176 C   0  0  1  0  0  0  0  0  0  0  0  0
   -1.4879   -2.9399   -6.0216 C   0  0  1  0  0  0  0  0  0  0  0  0
   -2.3611   -2.0592   -5.3302 O   0  0  0  0  0  0  0  0  0  0  0  0
   -0.1846   -3.1698   -5.1874 C   0  0  2  0  0  0  0  0  0  0  0  0
    1.8610   -4.6216   -5.0110 N   0  3  0  0  0  0  0  0  0  0  0  0
   -5.0593   -2.9405   -4.8943 C   0  0  0  0  0  0  0  0  0  0  0  0
   -6.2242   -2.1341   -5.5190 C   0  0  2  0  0  0  0  0  0  0  0  0
   -7.4325   -2.8062   -5.1664 O   0  0  0  0  0  0  0  0  0  0  0  0
   -6.0460   -2.0817   -7.0832 C   0  0  1  0  0  0  0  0  0  0  0  0
   -5.7550   -3.4872   -7.7109 C   0  0  2  0  0  0  0  0  0  0  0  0
   -4.6977   -4.3063   -6.9278 C   0  0  1  0  0  0  0  0  0  0  0  0
   -3.3545   -3.8619   -7.2532 O   0  0  0  0  0  0  0  0  0  0  0  0
   -4.9547   -4.2585   -5.4958 O   0  0  0  0  0  0  0  0  0  0  0  0
   -5.3368   -3.3753   -9.0687 O   0  0  0  0  0  0  0  0  0  0  0  0
   -7.2562   -1.4642   -7.7098 N   0  3  0  0  0  0  0  0  0  0  0  0
   -7.1519   -1.0775   -9.1316 C   0  0  0  0  0  0  0  0  0  0  0  0
   -6.2669   -0.7339   -4.8588 C   0  0  0  0  0  0  0  0  0  0  0  0
  1  8  1  0  0  0  0
  1  9  1  6  0  0  0
  1  2  1  0  0  0  0
  2  3  1  0  0  0  0
  3  5  1  0  0  0  0
  3  4  1  1  0  0  0
  5  7  1  0  0  0  0
  5  6  1  1  0  0  0
  7  8  1  0  0  0  0
  9 10  1  0  0  0  0
 11 12  1  0  0  0  0
 11 18  1  0  0  0  0
 11 19  1  1  0  0  0
 12 13  1  0  0  0  0
 13 15  1  0  0  0  0
 13 14  1  1  0  0  0
 15 16  1  0  0  0  0
 15 26  1  6  0  0  0
 16 18  1  0  0  0  0
 16 17  1  1  0  0  0
 18  4  1  6  0  0  0
 20 21  1  0  0  0  0
 20 27  1  0  0  0  0
 21 31  1  1  0  0  0
 21 23  1  0  0  0  0
 21 22  1  0  0  0  0
 23 24  1  0  0  0  0
 23 29  1  6  0  0  0
 24 25  1  0  0  0  0
 24 28  1  6  0  0  0
 25 27  1  0  0  0  0
 25 26  1  1  0  0  0
 29 30  1  0  0  0  0
M  CHG  5   6   1  10   1  14   1  19   1  29   1
M  END
>  <CHROM.1>
-58.75608093,80.47359803,7.76666892,124.02579042,64.92517234,-37.41598541
-31.07435860,106.80704544,-127.49932903,-174.96019521,-71.30810981,69.71522335
161.34273826,-1.83141151,-2.55828246,-6.49222906,0.12840546,-0.10556442,-0.37759960

>  <Name>
1byj cryst

>  <RI>
0

>  <Rbt.Current_Directory>
/home/itssahil/PROJECTS/Mol_Feturizer/New_Systems/rnas/1byj

>  <Rbt.Executable>
rbdock ($Id: //depot/dev/client3/rdock/2013.1/src/exe/rbdock.cxx#4 $)

>  <Rbt.Library>
libRbt.so (2013.1, Build901 2013/11/27)

>  <Rbt.Parameter_File>
/export/apps/rDock/src/rDock_2013.1_src/data/scripts/dock_solv.prm

>  <Rbt.Receptor>
prm/blind_docking_40.prm

>  <SCORE>
-15.3058

>  <SCORE.INTER>
-35.4509

>  <SCORE.INTER.CONST>
1

>  <SCORE.INTER.POLAR>
-5.86855

>  <SCORE.INTER.ROT>
6

>  <SCORE.INTER.SOLV>
30.2235

>  <SCORE.INTER.VDW>
-21.7466

>  <SCORE.INTER.norm>
-1.14358

>  <SCORE.INTRA>
11.3104

>  <SCORE.INTRA.DIHEDRAL>
12.8102

>  <SCORE.INTRA.DIHEDRAL.0>
18.4149

>  <SCORE.INTRA.POLAR>
-0.0442624

>  <SCORE.INTRA.POLAR.0>
0

>  <SCORE.INTRA.REPUL>
0.0704792

>  <SCORE.INTRA.REPUL.0>
0.092687

>  <SCORE.INTRA.SOLV>
1.20662

>  <SCORE.INTRA.SOLV.lig_0>
-120.37

>  <SCORE.INTRA.VDW>
4.10013

>  <SCORE.INTRA.VDW.0>
-1.75542

>  <SCORE.INTRA.norm>
0.364853

>  <SCORE.RESTR>
8.83461

>  <SCORE.RESTR.CAVITY>
8.83461

>  <SCORE.RESTR.norm>
0.284987

>  <SCORE.SYSTEM>
0

>  <SCORE.SYSTEM.CONST>
0

>  <SCORE.SYSTEM.DIHEDRAL>
0

>  <SCORE.SYSTEM.SOLV>
0

>  <SCORE.SYSTEM.norm>
0

>  <SCORE.heavy>
31

>  <SCORE.norm>
-0.493737

>  <RMSD>
12.144

$$$$
1byj cryst
 OpenBabel11021811383D
libRbt.so/2013.1/901 2013/11/27
 31 33  0  0  0  0  0  0  0  0999 V2000
    4.0300   -5.2843  -10.1965 C   0  0  1  0  0  0  0  0  0  0  0  0
    4.3738   -4.4912   -9.0155 O   0  0  0  0  0  0  0  0  0  0  0  0
    3.5103   -3.3744   -8.6469 C   0  0  2  0  0  0  0  0  0  0  0  0
    2.2042   -3.8420   -8.1861 O   0  0  0  0  0  0  0  0  0  0  0  0
    3.3624   -2.4135   -9.8655 C   0  0  2  0  0  0  0  0  0  0  0  0
    2.5015   -1.2473   -9.5864 N   0  3  0  0  0  0  0  0  0  0  0  0
    2.8335   -3.1932  -11.0969 C   0  0  0  0  0  0  0  0  0  0  0  0
    3.7457   -4.3833  -11.4299 C   0  0  0  0  0  0  0  0  0  0  0  0
    5.1892   -6.2420  -10.5241 C   0  0  0  0  0  0  0  0  0  0  0  0
    6.4336   -5.5600  -10.9030 N   0  3  0  0  0  0  0  0  0  0  0  0
    1.8732   -3.0062   -5.8921 C   0  0  1  0  0  0  0  0  0  0  0  0
    0.9683   -2.1662   -4.9582 C   0  0  0  0  0  0  0  0  0  0  0  0
   -0.4923   -2.6901   -5.0012 C   0  0  1  0  0  0  0  0  0  0  0  0
   -1.3262   -1.9315   -4.0494 N   0  3  0  0  0  0  0  0  0  0  0  0
   -1.0500   -2.6126   -6.4519 C   0  0  1  0  0  0  0  0  0  0  0  0
   -0.1305   -3.3496   -7.4576 C   0  0  1  0  0  0  0  0  0  0  0  0
   -0.6397   -3.0699   -8.7532 O   0  0  0  0  0  0  0  0  0  0  0  0
    1.3792   -2.9480   -7.3748 C   0  0  2  0  0  0  0  0  0  0  0  0
    3.2746   -2.5683   -5.7664 N   0  3  0  0  0  0  0  0  0  0  0  0
   -5.0460   -4.3931   -7.4168 C   0  0  0  0  0  0  0  0  0  0  0  0
   -6.1186   -3.5295   -6.7088 C   0  0  2  0  0  0  0  0  0  0  0  0
   -6.8948   -2.9075   -7.7319 O   0  0  0  0  0  0  0  0  0  0  0  0
   -5.4106   -2.4502   -5.8059 C   0  0  1  0  0  0  0  0  0  0  0  0
   -4.2762   -1.6752   -6.5586 C   0  0  2  0  0  0  0  0  0  0  0  0
   -3.3431   -2.5958   -7.3855 C   0  0  1  0  0  0  0  0  0  0  0  0
   -2.3620   -3.2396   -6.5307 O   0  0  0  0  0  0  0  0  0  0  0  0
   -4.1113   -3.5627   -8.1562 O   0  0  0  0  0  0  0  0  0  0  0  0
   -3.4834   -0.9066   -5.6575 O   0  0  0  0  0  0  0  0  0  0  0  0
   -6.4290   -1.4986   -5.2623 N   0  3  0  0  0  0  0  0  0  0  0  0
   -6.9625   -0.4833   -6.1932 C   0  0  0  0  0  0  0  0  0  0  0  0
   -7.0652   -4.4659   -5.9181 C   0  0  0  0  0  0  0  0  0  0  0  0
  1  8  1  0  0  0  0
  1  9  1  6  0  0  0
  1  2  1  0  0  0  0
  2  3  1  0  0  0  0
  3  5  1  0  0  0  0
  3  4  1  6  0  0  0
  5  7  1  0  0  0  0
  5  6  1  1  0  0  0
  7  8  1  0  0  0  0
  9 10  1  0  0  0  0
 11 12  1  0  0  0  0
 11 18  1  0  0  0  0
 11 19  1  6  0  0  0
 12 13  1  0  0  0  0
 13 15  1  0  0  0  0
 13 14  1  1  0  0  0
 15 16  1  0  0  0  0
 15 26  1  1  0  0  0
 16 18  1  0  0  0  0
 16 17  1  6  0  0  0
 18  4  1  6  0  0  0
 20 21  1  0  0  0  0
 20 27  1  0  0  0  0
 21 31  1  1  0  0  0
 21 23  1  0  0  0  0
 21 22  1  0  0  0  0
 23 24  1  0  0  0  0
 23 29  1  6  0  0  0
 24 25  1  0  0  0  0
 24 28  1  1  0  0  0
 25 27  1  0  0  0  0
 25 26  1  1  0  0  0
 29 30  1  0  0  0  0
M  CHG  5   6   1  10   1  14   1  19   1  29   1
M  END
>  <CHROM.1>
-64.11779668,160.00583876,-81.06293936,-177.09904256,61.88099366,-58.10811940
-13.53598722,141.56896130,-179.76717490,-58.94370439,45.30333458,176.53142976
-96.71592987,-0.62661919,-3.07466690,-7.56028544,0.37276174,-0.00634632,-2.05233023

>  <Name>
1byj cryst

>  <RI>
0

>  <Rbt.Current_Directory>
/home/itssahil/PROJECTS/Mol_Feturizer/New_Systems/rnas/1byj

>  <Rbt.Executable>
rbdock ($Id: //depot/dev/client3/rdock/2013.1/src/exe/rbdock.cxx#4 $)

>  <Rbt.Library>
libRbt.so (2013.1, Build901 2013/11/27)

>  <Rbt.Parameter_File>
/export/apps/rDock/src/rDock_2013.1_src/data/scripts/dock_solv.prm

>  <Rbt.Receptor>
prm/blind_docking_20.prm

>  <SCORE>
-15.8942

>  <SCORE.INTER>
-21.4512

>  <SCORE.INTER.CONST>
1

>  <SCORE.INTER.POLAR>
-4.98399

>  <SCORE.INTER.ROT>
6

>  <SCORE.INTER.SOLV>
23.2251

>  <SCORE.INTER.VDW>
-13.0292

>  <SCORE.INTER.norm>
-0.691975

>  <SCORE.INTRA>
-1.8254

>  <SCORE.INTRA.DIHEDRAL>
-0.449995

>  <SCORE.INTRA.DIHEDRAL.0>
18.4149

>  <SCORE.INTRA.POLAR>
-1.16667

>  <SCORE.INTRA.POLAR.0>
0

>  <SCORE.INTRA.REPUL>
-0.092687

>  <SCORE.INTRA.REPUL.0>
0.092687

>  <SCORE.INTRA.SOLV>
2.57291

>  <SCORE.INTRA.SOLV.lig_0>
-120.37

>  <SCORE.INTRA.VDW>
1.54325

>  <SCORE.INTRA.VDW.0>
-1.75542

>  <SCORE.INTRA.norm>
-0.0588837

>  <SCORE.RESTR>
7.38242

>  <SCORE.RESTR.CAVITY>
7.38242

>  <SCORE.RESTR.norm>
0.238142

>  <SCORE.SYSTEM>
0

>  <SCORE.SYSTEM.CONST>
0

>  <SCORE.SYSTEM.DIHEDRAL>
0

>  <SCORE.SYSTEM.SOLV>
0

>  <SCORE.SYSTEM.norm>
0

>  <SCORE.heavy>
31

>  <SCORE.norm>
-0.512716

>  <RMSD>
12.152

$$$$
1byj cryst
 OpenBabel11021811383D
libRbt.so/2013.1/901 2013/11/27
 31 33  0  0  0  0  0  0  0  0999 V2000
    0.0704   -2.0376   -7.6576 C   0  0  1  0  0  0  0  0  0  0  0  0
    1.0434   -3.1082   -7.4358 O   0  0  0  0  0  0  0  0  0  0  0  0
    1.8342   -3.0920   -6.2098 C   0  0  2  0  0  0  0  0  0  0  0  0
    1.0011   -3.3487   -5.0364 O   0  0  0  0  0  0  0  0  0  0  0  0
    2.5664   -1.7212   -6.0870 C   0  0  2  0  0  0  0  0  0  0  0  0
    3.3957   -1.6108   -4.8708 N   0  3  0  0  0  0  0  0  0  0  0  0
    1.5387   -0.5618   -6.1473 C   0  0  0  0  0  0  0  0  0  0  0  0
    0.6990   -0.6349   -7.4314 C   0  0  0  0  0  0  0  0  0  0  0  0
   -0.4679   -2.1264   -9.0965 C   0  0  0  0  0  0  0  0  0  0  0  0
    0.1064   -1.1279  -10.0079 N   0  3  0  0  0  0  0  0  0  0  0  0
   -0.2063   -5.0009   -6.4085 C   0  0  1  0  0  0  0  0  0  0  0  0
   -1.5834   -5.6318   -6.7282 C   0  0  0  0  0  0  0  0  0  0  0  0
   -2.6096   -4.5317   -7.1112 C   0  0  1  0  0  0  0  0  0  0  0  0
   -3.8939   -5.1522   -7.4883 N   0  3  0  0  0  0  0  0  0  0  0  0
   -2.7752   -3.5187   -5.9415 C   0  0  1  0  0  0  0  0  0  0  0  0
   -1.4130   -2.9257   -5.5022 C   0  0  1  0  0  0  0  0  0  0  0  0
   -1.6625   -2.1582   -4.3340 O   0  0  0  0  0  0  0  0  0  0  0  0
   -0.3006   -3.9888   -5.2199 C   0  0  2  0  0  0  0  0  0  0  0  0
    0.7860   -6.0584   -6.1472 N   0  3  0  0  0  0  0  0  0  0  0  0
   -5.6357   -0.1285   -6.6286 C   0  0  0  0  0  0  0  0  0  0  0  0
   -6.8903   -0.5922   -5.8486 C   0  0  2  0  0  0  0  0  0  0  0  0
   -7.1006    0.3510   -4.7987 O   0  0  0  0  0  0  0  0  0  0  0  0
   -6.6424   -2.0348   -5.2666 C   0  0  1  0  0  0  0  0  0  0  0  0
   -5.2704   -2.1640   -4.5216 C   0  0  2  0  0  0  0  0  0  0  0  0
   -4.0875   -1.5227   -5.2905 C   0  0  1  0  0  0  0  0  0  0  0  0
   -3.6188   -2.4027   -6.3458 O   0  0  0  0  0  0  0  0  0  0  0  0
   -4.4461   -0.2066   -5.7987 O   0  0  0  0  0  0  0  0  0  0  0  0
   -4.9542   -3.5257   -4.2439 O   0  0  0  0  0  0  0  0  0  0  0  0
   -7.7718   -2.4167   -4.3627 N   0  3  0  0  0  0  0  0  0  0  0  0
   -8.1489   -3.8444   -4.3268 C   0  0  0  0  0  0  0  0  0  0  0  0
   -8.1165   -0.5128   -6.7910 C   0  0  0  0  0  0  0  0  0  0  0  0
  1  8  1  0  0  0  0
  1  9  1  6  0  0  0
  1  2  1  0  0  0  0
  2  3  1  0  0  0  0
  3  5  1  0  0  0  0
  3  4  1  1  0  0  0
  5  7  1  0  0  0  0
  5  6  1  1  0  0  0
  7  8  1  0  0  0  0
  9 10  1  0  0  0  0
 11 12  1  0  0  0  0
 11 18  1  0  0  0  0
 11 19  1  1  0  0  0
 12 13  1  0  0  0  0
 13 15  1  0  0  0  0
 13 14  1  1  0  0  0
 15 16  1  0  0  0  0
 15 26  1  6  0  0  0
 16 18  1  0  0  0  0
 16 17  1  1  0  0  0
 18  4  1  6  0  0  0
 20 21  1  0  0  0  0
 20 27  1  0  0  0  0
 21 31  1  6  0  0  0
 21 23  1  0  0  0  0
 21 22  1  0  0  0  0
 23 24  1  0  0  0  0
 23 29  1  1  0  0  0
 24 25  1  0  0  0  0
 24 28  1  6  0  0  0
 25 27  1  0  0  0  0
 25 26  1  6  0  0  0
 29 30  1  0  0  0  0
M  CHG  5   6   1  10   1  14   1  19   1  29   1
M  END
>  <CHROM.1>
-103.21019034,19.48982731,33.79197717,160.18573235,-177.51549654,45.18743005
-126.45377579,167.75582223,-169.57942852,-49.73590145,-92.26853022,-56.59895001
-78.04244450,-2.40933815,-2.49679798,-6.08625116,-0.09413678,0.18298909,-0.21727347

>  <Name>
1byj cryst

>  <RI>
0

>  <Rbt.Current_Directory>
/home/itssahil/PROJECTS/Mol_Feturizer/New_Systems/rnas/1byj

>  <Rbt.Executable>
rbdock ($Id: //depot/dev/client3/rdock/2013.1/src/exe/rbdock.cxx#4 $)

>  <Rbt.Library>
libRbt.so (2013.1, Build901 2013/11/27)

>  <Rbt.Parameter_File>
/export/apps/rDock/src/rDock_2013.1_src/data/scripts/dock_solv.prm

>  <Rbt.Receptor>
prm/blind_docking_100.prm

>  <SCORE>
-9.55692

>  <SCORE.INTER>
-25.5066

>  <SCORE.INTER.CONST>
1

>  <SCORE.INTER.POLAR>
-4.28677

>  <SCORE.INTER.ROT>
6

>  <SCORE.INTER.SOLV>
33.2078

>  <SCORE.INTER.VDW>
-21.3844

>  <SCORE.INTER.norm>
-0.822794

>  <SCORE.INTRA>
8.50245

>  <SCORE.INTRA.DIHEDRAL>
4.95203

>  <SCORE.INTRA.DIHEDRAL.0>
18.4149

>  <SCORE.INTRA.POLAR>
-0.00359989

>  <SCORE.INTRA.POLAR.0>
0

>  <SCORE.INTRA.REPUL>
-0.092687

>  <SCORE.INTRA.REPUL.0>
0.092687

>  <SCORE.INTRA.SOLV>
-0.252925

>  <SCORE.INTRA.SOLV.lig_0>
-120.37

>  <SCORE.INTRA.VDW>
6.62857

>  <SCORE.INTRA.VDW.0>
-1.75542

>  <SCORE.INTRA.norm>
0.274272

>  <SCORE.RESTR>
7.44724

>  <SCORE.RESTR.CAVITY>
7.44724

>  <SCORE.RESTR.norm>
0.240234

>  <SCORE.SYSTEM>
0

>  <SCORE.SYSTEM.CONST>
0

>  <SCORE.SYSTEM.DIHEDRAL>
0

>  <SCORE.SYSTEM.SOLV>
0

>  <SCORE.SYSTEM.norm>
0

>  <SCORE.heavy>
31

>  <SCORE.norm>
-0.308288

>  <RMSD>
12.193

$$$$
1byj cryst
 OpenBabel11021811383D
libRbt.so/2013.1/901 2013/11/27
 31 33  0  0  0  0  0  0  0  0999 V2000
    2.5257   -0.6172   -8.6319 C   0  0  1  0  0  0  0  0  0  0  0  0
    1.4643   -1.6241   -8.6739 O   0  0  0  0  0  0  0  0  0  0  0  0
    1.8245   -3.0090   -8.9587 C   0  0  2  0  0  0  0  0  0  0  0  0
    2.5955   -3.5938   -7.8631 O   0  0  0  0  0  0  0  0  0  0  0  0
    2.6207   -3.0694  -10.2976 C   0  0  2  0  0  0  0  0  0  0  0  0
    3.0305   -4.4378  -10.6702 N   0  3  0  0  0  0  0  0  0  0  0  0
    3.8569   -2.1364  -10.2241 C   0  0  0  0  0  0  0  0  0  0  0  0
    3.4423   -0.6970   -9.8838 C   0  0  0  0  0  0  0  0  0  0  0  0
    1.8968    0.7850   -8.5519 C   0  0  0  0  0  0  0  0  0  0  0  0
    0.7650    0.8758   -7.6202 N   0  3  0  0  0  0  0  0  0  0  0  0
    1.2886   -5.5674   -7.1793 C   0  0  1  0  0  0  0  0  0  0  0  0
    0.4231   -6.2003   -6.0627 C   0  0  0  0  0  0  0  0  0  0  0  0
   -0.7584   -5.2633   -5.6938 C   0  0  1  0  0  0  0  0  0  0  0  0
   -1.6181   -5.9121   -4.6854 N   0  3  0  0  0  0  0  0  0  0  0  0
   -0.2219   -3.8880   -5.2014 C   0  0  1  0  0  0  0  0  0  0  0  0
    0.7380   -3.2463   -6.2343 C   0  0  1  0  0  0  0  0  0  0  0  0
    1.2917   -2.0957   -5.6133 O   0  0  0  0  0  0  0  0  0  0  0  0
    1.8810   -4.1897   -6.7351 C   0  0  2  0  0  0  0  0  0  0  0  0
    2.3451   -6.5072   -7.5941 N   0  3  0  0  0  0  0  0  0  0  0  0
   -3.1204   -4.1010   -7.1784 C   0  0  0  0  0  0  0  0  0  0  0  0
   -4.4720   -3.3608   -7.0276 C   0  0  2  0  0  0  0  0  0  0  0  0
   -4.7016   -2.6592   -8.2487 O   0  0  0  0  0  0  0  0  0  0  0  0
   -4.3899   -2.3618   -5.8124 C   0  0  1  0  0  0  0  0  0  0  0  0
   -3.1043   -1.4672   -5.8446 C   0  0  2  0  0  0  0  0  0  0  0  0
   -1.8111   -2.2562   -6.1716 C   0  0  1  0  0  0  0  0  0  0  0  0
   -1.3196   -2.9533   -4.9968 O   0  0  0  0  0  0  0  0  0  0  0  0
   -2.0196   -3.1603   -7.2933 O   0  0  0  0  0  0  0  0  0  0  0  0
   -2.9210   -0.7736   -4.6131 O   0  0  0  0  0  0  0  0  0  0  0  0
   -5.6220   -1.5140   -5.7704 N   0  3  0  0  0  0  0  0  0  0  0  0
   -6.0408   -1.0045   -4.4487 C   0  0  0  0  0  0  0  0  0  0  0  0
   -5.5990   -4.4128   -6.8823 C   0  0  0  0  0  0  0  0  0  0  0  0
  1  8  1  0  0  0  0
  1  9  1  6  0  0  0
  1  2  1  0  0  0  0
  2  3  1  0  0  0  0
  3  5  1  0  0  0  0
  3  4  1  1  0  0  0
  5  7  1  0  0  0  0
  5  6  1  1  0  0  0
  7  8  1  0  0  0  0
  9 10  1  0  0  0  0
 11 12  1  0  0  0  0
 11 18  1  0  0  0  0
 11 19  1  1  0  0  0
 12 13  1  0  0  0  0
 13 15  1  0  0  0  0
 13 14  1  1  0  0  0
 15 16  1  0  0  0  0
 15 26  1  6  0  0  0
 16 18  1  0  0  0  0
 16 17  1  1  0  0  0
 18  4  1  6  0  0  0
 20 21  1  0  0  0  0
 20 27  1  0  0  0  0
 21 31  1  1  0  0  0
 21 23  1  0  0  0  0
 21 22  1  0  0  0  0
 23 24  1  0  0  0  0
 23 29  1  6  0  0  0
 24 25  1  0  0  0  0
 24 28  1  1  0  0  0
 25 27  1  0  0  0  0
 25 26  1  1  0  0  0
 29 30  1  0  0  0  0
M  CHG  5   6   1  10   1  14   1  19   1  29   1
M  END
>  <CHROM.1>
42.88037589,85.77089466,74.77631334,-64.02657334,-130.55359403,-155.22524107
-81.49078357,-82.66517737,64.62238305,-61.15123830,-86.87486596,-67.17194613
171.42206655,-0.52676960,-2.90881766,-7.10487511,0.06767698,0.41089880,-0.23692218

>  <Name>
1byj cryst

>  <RI>
0

>  <Rbt.Current_Directory>
/home/itssahil/PROJECTS/Mol_Feturizer/New_Systems/rnas/1byj

>  <Rbt.Executable>
rbdock ($Id: //depot/dev/client3/rdock/2013.1/src/exe/rbdock.cxx#4 $)

>  <Rbt.Library>
libRbt.so (2013.1, Build901 2013/11/27)

>  <Rbt.Parameter_File>
/export/apps/rDock/src/rDock_2013.1_src/data/scripts/dock_solv.prm

>  <Rbt.Receptor>
prm/blind_docking_20.prm

>  <SCORE>
-20.0466

>  <SCORE.INTER>
-25.1286

>  <SCORE.INTER.CONST>
1

>  <SCORE.INTER.POLAR>
-4.44099

>  <SCORE.INTER.ROT>
6

>  <SCORE.INTER.SOLV>
28.5888

>  <SCORE.INTER.VDW>
-19.0787

>  <SCORE.INTER.norm>
-0.810601

>  <SCORE.INTRA>
0.236003

>  <SCORE.INTRA.DIHEDRAL>
-2.96924

>  <SCORE.INTRA.DIHEDRAL.0>
18.4149

>  <SCORE.INTRA.POLAR>
-0.161066

>  <SCORE.INTRA.POLAR.0>
0

>  <SCORE.INTRA.REPUL>
0.194773

>  <SCORE.INTRA.REPUL.0>
0.092687

>  <SCORE.INTRA.SOLV>
1.47772

>  <SCORE.INTRA.SOLV.lig_0>
-120.37

>  <SCORE.INTRA.VDW>
0.555521

>  <SCORE.INTRA.VDW.0>
-1.75542

>  <SCORE.INTRA.norm>
0.00761301

>  <SCORE.RESTR>
4.84597

>  <SCORE.RESTR.CAVITY>
4.84597

>  <SCORE.RESTR.norm>
0.156322

>  <SCORE.SYSTEM>
0

>  <SCORE.SYSTEM.CONST>
0

>  <SCORE.SYSTEM.DIHEDRAL>
0

>  <SCORE.SYSTEM.SOLV>
0

>  <SCORE.SYSTEM.norm>
0

>  <SCORE.heavy>
31

>  <SCORE.norm>
-0.646666

>  <RMSD>
12.195

$$$$
1byj cryst
 OpenBabel11021811383D
libRbt.so/2013.1/901 2013/11/27
 31 33  0  0  0  0  0  0  0  0999 V2000
    3.2930   -7.1497   -9.8036 C   0  0  1  0  0  0  0  0  0  0  0  0
    3.9733   -6.0161   -9.1757 O   0  0  0  0  0  0  0  0  0  0  0  0
    4.9933   -5.3030   -9.9372 C   0  0  2  0  0  0  0  0  0  0  0  0
    4.4056   -4.5723  -11.0586 O   0  0  0  0  0  0  0  0  0  0  0  0
    6.0693   -6.3166  -10.4323 C   0  0  2  0  0  0  0  0  0  0  0  0
    7.1480   -5.6840  -11.2166 N   0  3  0  0  0  0  0  0  0  0  0  0
    5.3972   -7.4479  -11.2523 C   0  0  0  0  0  0  0  0  0  0  0  0
    4.3033   -8.1485  -10.4324 C   0  0  0  0  0  0  0  0  0  0  0  0
    2.4434   -7.8827   -8.7505 C   0  0  0  0  0  0  0  0  0  0  0  0
    1.8988   -7.0018   -7.7091 N   0  3  0  0  0  0  0  0  0  0  0  0
    4.2616   -2.1128  -11.0793 C   0  0  1  0  0  0  0  0  0  0  0  0
    3.4046   -0.8815  -10.6972 C   0  0  0  0  0  0  0  0  0  0  0  0
    3.0549   -0.9108   -9.1850 C   0  0  1  0  0  0  0  0  0  0  0  0
    2.3053    0.3062   -8.8191 N   0  3  0  0  0  0  0  0  0  0  0  0
    2.2642   -2.2059   -8.8398 C   0  0  1  0  0  0  0  0  0  0  0  0
    3.0247   -3.4774   -9.2928 C   0  0  1  0  0  0  0  0  0  0  0  0
    2.1443   -4.5720   -9.0857 O   0  0  0  0  0  0  0  0  0  0  0  0
    3.5096   -3.4510  -10.7799 C   0  0  2  0  0  0  0  0  0  0  0  0
    4.6745   -2.0231  -12.4910 N   0  3  0  0  0  0  0  0  0  0  0  0
   -0.9794   -2.5530   -7.4808 C   0  0  0  0  0  0  0  0  0  0  0  0
   -1.4063   -2.8547   -6.0232 C   0  0  2  0  0  0  0  0  0  0  0  0
   -2.2478   -1.7810   -5.6047 O   0  0  0  0  0  0  0  0  0  0  0  0
   -0.1255   -2.9532   -5.1114 C   0  0  1  0  0  0  0  0  0  0  0  0
    0.8614   -1.7539   -5.3153 C   0  0  2  0  0  0  0  0  0  0  0  0
    1.1060   -1.4017   -6.8046 C   0  0  1  0  0  0  0  0  0  0  0  0
    2.0632   -2.3155   -7.4017 O   0  0  0  0  0  0  0  0  0  0  0  0
   -0.1463   -1.3648   -7.5458 O   0  0  0  0  0  0  0  0  0  0  0  0
    2.1176   -2.0001   -4.6887 O   0  0  0  0  0  0  0  0  0  0  0  0
   -0.5336   -3.0629   -3.6762 N   0  3  0  0  0  0  0  0  0  0  0  0
    0.4983   -3.5081   -2.7177 C   0  0  0  0  0  0  0  0  0  0  0  0
   -2.2657   -4.1429   -6.0157 C   0  0  0  0  0  0  0  0  0  0  0  0
  1  8  1  0  0  0  0
  1  9  1  1  0  0  0
  1  2  1  0  0  0  0
  2  3  1  0  0  0  0
  3  5  1  0  0  0  0
  3  4  1  6  0  0  0
  5  7  1  0  0  0  0
  5  6  1  6  0  0  0
  7  8  1  0  0  0  0
  9 10  1  0  0  0  0
 11 12  1  0  0  0  0
 11 18  1  0  0  0  0
 11 19  1  6  0  0  0
 12 13  1  0  0  0  0
 13 15  1  0  0  0  0
 13 14  1  6  0  0  0
 15 16  1  0  0  0  0
 15 26  1  1  0  0  0
 16 18  1  0  0  0  0
 16 17  1  6  0  0  0
 18  4  1  1  0  0  0
 20 21  1  0  0  0  0
 20 27  1  0  0  0  0
 21 31  1  1  0  0  0
 21 23  1  0  0  0  0
 21 22  1  0  0  0  0
 23 24  1  0  0  0  0
 23 29  1  1  0  0  0
 24 25  1  0  0  0  0
 24 28  1  6  0  0  0
 25 27  1  0  0  0  0
 25 26  1  6  0  0  0
 29 30  1  0  0  0  0
M  CHG  5   6   1  10   1  14   1  19   1  29   1
M  END
>  <CHROM.1>
32.13858987,66.21282485,105.70621802,-50.32355481,-96.60352591,-106.29617896
126.74450385,72.18193581,63.32961624,-40.78712095,-74.18731452,-173.19029679
172.64711581,2.29686185,-3.67313913,-8.31671864,0.23422886,-0.84128907,2.92640444

>  <Name>
1byj cryst

>  <RI>
0

>  <Rbt.Current_Directory>
/home/itssahil/PROJECTS/Mol_Feturizer/New_Systems/rnas/1byj

>  <Rbt.Executable>
rbdock ($Id: //depot/dev/client3/rdock/2013.1/src/exe/rbdock.cxx#4 $)

>  <Rbt.Library>
libRbt.so (2013.1, Build901 2013/11/27)

>  <Rbt.Parameter_File>
/export/apps/rDock/src/rDock_2013.1_src/data/scripts/dock_solv.prm

>  <Rbt.Receptor>
prm/blind_docking_80.prm

>  <SCORE>
2.17154

>  <SCORE.INTER>
-2.79788

>  <SCORE.INTER.CONST>
1

>  <SCORE.INTER.POLAR>
-5.19261

>  <SCORE.INTER.ROT>
6

>  <SCORE.INTER.SOLV>
32.3798

>  <SCORE.INTER.VDW>
-2.94982

>  <SCORE.INTER.norm>
-0.0902541

>  <SCORE.INTRA>
2.20824

>  <SCORE.INTRA.DIHEDRAL>
3.56969

>  <SCORE.INTRA.DIHEDRAL.0>
18.4149

>  <SCORE.INTRA.POLAR>
-1.91244

>  <SCORE.INTRA.POLAR.0>
0

>  <SCORE.INTRA.REPUL>
-0.092687

>  <SCORE.INTRA.REPUL.0>
0.092687

>  <SCORE.INTRA.SOLV>
1.19682

>  <SCORE.INTRA.SOLV.lig_0>
-120.37

>  <SCORE.INTRA.VDW>
6.79072

>  <SCORE.INTRA.VDW.0>
-1.75542

>  <SCORE.INTRA.norm>
0.0712336

>  <SCORE.RESTR>
2.76118

>  <SCORE.RESTR.CAVITY>
2.76118

>  <SCORE.RESTR.norm>
0.0890702

>  <SCORE.SYSTEM>
0

>  <SCORE.SYSTEM.CONST>
0

>  <SCORE.SYSTEM.DIHEDRAL>
0

>  <SCORE.SYSTEM.SOLV>
0

>  <SCORE.SYSTEM.norm>
0

>  <SCORE.heavy>
31

>  <SCORE.norm>
0.0700497

>  <RMSD>
12.208

$$$$
1byj cryst
 OpenBabel11021811383D
libRbt.so/2013.1/901 2013/11/27
 31 33  0  0  0  0  0  0  0  0999 V2000
    2.8896   -0.8085   -9.8120 C   0  0  1  0  0  0  0  0  0  0  0  0
    3.2741   -1.3008   -8.4884 O   0  0  0  0  0  0  0  0  0  0  0  0
    2.3208   -1.1757   -7.3911 C   0  0  2  0  0  0  0  0  0  0  0  0
    1.1654   -2.0492   -7.5885 O   0  0  0  0  0  0  0  0  0  0  0  0
    1.8799    0.3138   -7.2590 C   0  0  2  0  0  0  0  0  0  0  0  0
    0.9102    0.5396   -6.1691 N   0  3  0  0  0  0  0  0  0  0  0  0
    1.3051    0.8201   -8.6071 C   0  0  0  0  0  0  0  0  0  0  0  0
    2.3213    0.6358   -9.7442 C   0  0  0  0  0  0  0  0  0  0  0  0
    4.1166   -0.8280  -10.7406 C   0  0  0  0  0  0  0  0  0  0  0  0
    4.2762   -2.0827  -11.4873 N   0  3  0  0  0  0  0  0  0  0  0  0
    1.0902   -4.3785   -6.7892 C   0  0  1  0  0  0  0  0  0  0  0  0
    0.5435   -5.3383   -5.7046 C   0  0  0  0  0  0  0  0  0  0  0  0
   -1.0030   -5.2358   -5.6175 C   0  0  1  0  0  0  0  0  0  0  0  0
   -1.5166   -6.2105   -4.6362 N   0  3  0  0  0  0  0  0  0  0  0  0
   -1.4276   -3.7802   -5.2672 C   0  0  1  0  0  0  0  0  0  0  0  0
   -0.8246   -2.7547   -6.2597 C   0  0  1  0  0  0  0  0  0  0  0  0
   -1.1326   -1.4663   -5.7487 O   0  0  0  0  0  0  0  0  0  0  0  0
    0.7182   -2.8912   -6.4800 C   0  0  2  0  0  0  0  0  0  0  0  0
    2.5455   -4.5576   -6.9359 N   0  3  0  0  0  0  0  0  0  0  0  0
   -3.9726   -3.6498   -8.1802 C   0  0  0  0  0  0  0  0  0  0  0  0
   -5.4872   -3.3604   -8.0386 C   0  0  2  0  0  0  0  0  0  0  0  0
   -5.7468   -2.1457   -8.7407 O   0  0  0  0  0  0  0  0  0  0  0  0
   -5.8533   -3.2172   -6.5132 C   0  0  1  0  0  0  0  0  0  0  0  0
   -4.8846   -2.2581   -5.7414 C   0  0  2  0  0  0  0  0  0  0  0  0
   -3.3886   -2.4981   -6.0675 C   0  0  1  0  0  0  0  0  0  0  0  0
   -2.8755   -3.6393   -5.3313 O   0  0  0  0  0  0  0  0  0  0  0  0
   -3.1818   -2.6379   -7.5015 O   0  0  0  0  0  0  0  0  0  0  0  0
   -5.0693   -2.3546   -4.3315 O   0  0  0  0  0  0  0  0  0  0  0  0
   -7.2709   -2.7595   -6.3741 N   0  3  0  0  0  0  0  0  0  0  0  0
   -7.8100   -2.6536   -5.0029 C   0  0  0  0  0  0  0  0  0  0  0  0
   -6.2750   -4.4841   -8.7561 C   0  0  0  0  0  0  0  0  0  0  0  0
  1  8  1  0  0  0  0
  1  9  1  6  0  0  0
  1  2  1  0  0  0  0
  2  3  1  0  0  0  0
  3  5  1  0  0  0  0
  3  4  1  6  0  0  0
  5  7  1  0  0  0  0
  5  6  1  1  0  0  0
  7  8  1  0  0  0  0
  9 10  1  0  0  0  0
 11 12  1  0  0  0  0
 11 18  1  0  0  0  0
 11 19  1  1  0  0  0
 12 13  1  0  0  0  0
 13 15  1  0  0  0  0
 13 14  1  1  0  0  0
 15 16  1  0  0  0  0
 15 26  1  6  0  0  0
 16 18  1  0  0  0  0
 16 17  1  1  0  0  0
 18  4  1  6  0  0  0
 20 21  1  0  0  0  0
 20 27  1  0  0  0  0
 21 31  1  6  0  0  0
 21 23  1  0  0  0  0
 21 22  1  0  0  0  0
 23 24  1  0  0  0  0
 23 29  1  6  0  0  0
 24 25  1  0  0  0  0
 24 28  1  1  0  0  0
 25 27  1  0  0  0  0
 25 26  1  1  0  0  0
 29 30  1  0  0  0  0
M  CHG  5   6   1  10   1  14   1  19   1  29   1
M  END
>  <CHROM.1>
90.64233160,131.92526051,-107.56050858,53.72780494,-59.60268664,-75.24384964
-134.26717996,-131.99045281,57.37988011,60.68258822,-62.67151143,84.41789556
-164.78742768,-1.24683463,-2.52928183,-7.13075981,0.35348328,0.07648839,-0.70862849

>  <Name>
1byj cryst

>  <RI>
0

>  <Rbt.Current_Directory>
/home/itssahil/PROJECTS/Mol_Feturizer/New_Systems/rnas/1byj

>  <Rbt.Executable>
rbdock ($Id: //depot/dev/client3/rdock/2013.1/src/exe/rbdock.cxx#4 $)

>  <Rbt.Library>
libRbt.so (2013.1, Build901 2013/11/27)

>  <Rbt.Parameter_File>
/export/apps/rDock/src/rDock_2013.1_src/data/scripts/dock_solv.prm

>  <Rbt.Receptor>
prm/blind_docking_100.prm

>  <SCORE>
11.9305

>  <SCORE.INTER>
-0.0419394

>  <SCORE.INTER.CONST>
1

>  <SCORE.INTER.POLAR>
-3.25314

>  <SCORE.INTER.ROT>
6

>  <SCORE.INTER.SOLV>
32.6113

>  <SCORE.INTER.VDW>
-7.6546

>  <SCORE.INTER.norm>
-0.00135288

>  <SCORE.INTRA>
7.80583

>  <SCORE.INTRA.DIHEDRAL>
11.5166

>  <SCORE.INTRA.DIHEDRAL.0>
18.4149

>  <SCORE.INTRA.POLAR>
-1.08043

>  <SCORE.INTRA.POLAR.0>
0

>  <SCORE.INTRA.REPUL>
-0.092687

>  <SCORE.INTRA.REPUL.0>
0.092687

>  <SCORE.INTRA.SOLV>
-1.30253

>  <SCORE.INTRA.SOLV.lig_0>
-120.37

>  <SCORE.INTRA.VDW>
6.83569

>  <SCORE.INTRA.VDW.0>
-1.75542

>  <SCORE.INTRA.norm>
0.251801

>  <SCORE.RESTR>
4.16659

>  <SCORE.RESTR.CAVITY>
4.16659

>  <SCORE.RESTR.norm>
0.134406

>  <SCORE.SYSTEM>
0

>  <SCORE.SYSTEM.CONST>
0

>  <SCORE.SYSTEM.DIHEDRAL>
0

>  <SCORE.SYSTEM.SOLV>
0

>  <SCORE.SYSTEM.norm>
0

>  <SCORE.heavy>
31

>  <SCORE.norm>
0.384854

>  <RMSD>
12.216

$$$$
1byj cryst
 OpenBabel11021811383D
libRbt.so/2013.1/901 2013/11/27
 31 33  0  0  0  0  0  0  0  0999 V2000
    3.8574   -7.0140  -10.4936 C   0  0  1  0  0  0  0  0  0  0  0  0
    4.2693   -5.8940   -9.6462 O   0  0  0  0  0  0  0  0  0  0  0  0
    5.1221   -4.8588  -10.2203 C   0  0  2  0  0  0  0  0  0  0  0  0
    4.4063   -4.0790  -11.2284 O   0  0  0  0  0  0  0  0  0  0  0  0
    6.3977   -5.5195  -10.8260 C   0  0  2  0  0  0  0  0  0  0  0  0
    7.3256   -4.5453  -11.4334 N   0  3  0  0  0  0  0  0  0  0  0  0
    5.9959   -6.6013  -11.8616 C   0  0  0  0  0  0  0  0  0  0  0  0
    5.0675   -7.6504  -11.2317 C   0  0  0  0  0  0  0  0  0  0  0  0
    3.1713   -8.0849   -9.6272 C   0  0  0  0  0  0  0  0  0  0  0  0
    2.4507   -7.5396   -8.4694 N   0  3  0  0  0  0  0  0  0  0  0  0
    4.2651   -1.6643  -10.7598 C   0  0  1  0  0  0  0  0  0  0  0  0
    3.3842   -0.5235  -10.1949 C   0  0  0  0  0  0  0  0  0  0  0  0
    2.9307   -0.8529   -8.7473 C   0  0  1  0  0  0  0  0  0  0  0  0
    2.1580    0.2756   -8.1939 N   0  3  0  0  0  0  0  0  0  0  0  0
    2.1174   -2.1795   -8.7261 C   0  0  1  0  0  0  0  0  0  0  0  0
    2.9069   -3.3439   -9.3750 C   0  0  1  0  0  0  0  0  0  0  0  0
    2.0138   -4.4449   -9.4542 O   0  0  0  0  0  0  0  0  0  0  0  0
    3.4936   -3.0244  -10.7895 C   0  0  2  0  0  0  0  0  0  0  0  0
    4.7747   -1.2969  -12.0927 N   0  3  0  0  0  0  0  0  0  0  0  0
    1.2528   -4.1223   -4.7868 C   0  0  0  0  0  0  0  0  0  0  0  0
   -0.1749   -3.7023   -4.3591 C   0  0  2  0  0  0  0  0  0  0  0  0
   -0.9754   -4.8835   -4.3620 O   0  0  0  0  0  0  0  0  0  0  0  0
   -0.7365   -2.6403   -5.3781 C   0  0  1  0  0  0  0  0  0  0  0  0
   -0.5551   -3.0742   -6.8724 C   0  0  2  0  0  0  0  0  0  0  0  0
    0.8518   -3.6450   -7.1832 C   0  0  1  0  0  0  0  0  0  0  0  0
    1.8172   -2.5747   -7.3571 O   0  0  0  0  0  0  0  0  0  0  0  0
    1.2691   -4.5934   -6.1608 O   0  0  0  0  0  0  0  0  0  0  0  0
   -0.8211   -1.9950   -7.7645 O   0  0  0  0  0  0  0  0  0  0  0  0
   -2.1764   -2.3649   -5.0795 N   0  3  0  0  0  0  0  0  0  0  0  0
   -2.4846   -1.1115   -4.3612 C   0  0  0  0  0  0  0  0  0  0  0  0
   -0.1226   -3.1854   -2.9003 C   0  0  0  0  0  0  0  0  0  0  0  0
  1  8  1  0  0  0  0
  1  9  1  1  0  0  0
  1  2  1  0  0  0  0
  2  3  1  0  0  0  0
  3  5  1  0  0  0  0
  3  4  1  6  0  0  0
  5  7  1  0  0  0  0
  5  6  1  6  0  0  0
  7  8  1  0  0  0  0
  9 10  1  0  0  0  0
 11 12  1  0  0  0  0
 11 18  1  0  0  0  0
 11 19  1  6  0  0  0
 12 13  1  0  0  0  0
 13 15  1  0  0  0  0
 13 14  1  6  0  0  0
 15 16  1  0  0  0  0
 15 26  1  1  0  0  0
 16 18  1  0  0  0  0
 16 17  1  6  0  0  0
 18  4  1  1  0  0  0
 20 21  1  0  0  0  0
 20 27  1  0  0  0  0
 21 31  1  1  0  0  0
 21 23  1  0  0  0  0
 21 22  1  0  0  0  0
 23 24  1  0  0  0  0
 23 29  1  1  0  0  0
 24 25  1  0  0  0  0
 24 28  1  6  0  0  0
 25 27  1  0  0  0  0
 25 26  1  1  0  0  0
 29 30  1  0  0  0  0
M  CHG  5   6   1  10   1  14   1  19   1  29   1
M  END
>  <CHROM.1>
31.36273422,79.60941738,93.60894825,-50.62825778,79.90027181,-150.41823550
-61.00775091,168.52782714,64.24117941,-62.88724490,-136.64665554,178.82130148
-97.95698062,2.33729054,-3.75483431,-8.38204304,0.11484927,-0.81568404,2.93532490

>  <Name>
1byj cryst

>  <RI>
0

>  <Rbt.Current_Directory>
/home/itssahil/PROJECTS/Mol_Feturizer/New_Systems/rnas/1byj

>  <Rbt.Executable>
rbdock ($Id: //depot/dev/client3/rdock/2013.1/src/exe/rbdock.cxx#4 $)

>  <Rbt.Library>
libRbt.so (2013.1, Build901 2013/11/27)

>  <Rbt.Parameter_File>
/export/apps/rDock/src/rDock_2013.1_src/data/scripts/dock_solv.prm

>  <Rbt.Receptor>
prm/blind_docking_80.prm

>  <SCORE>
-8.59539

>  <SCORE.INTER>
-9.6483

>  <SCORE.INTER.CONST>
1

>  <SCORE.INTER.POLAR>
-4.29543

>  <SCORE.INTER.ROT>
6

>  <SCORE.INTER.SOLV>
35.847

>  <SCORE.INTER.VDW>
-11.6631

>  <SCORE.INTER.norm>
-0.311235

>  <SCORE.INTRA>
-0.203024

>  <SCORE.INTRA.DIHEDRAL>
1.81393

>  <SCORE.INTRA.DIHEDRAL.0>
18.4149

>  <SCORE.INTRA.POLAR>
-0.181997

>  <SCORE.INTRA.POLAR.0>
0

>  <SCORE.INTRA.REPUL>
-0.0922945

>  <SCORE.INTRA.REPUL.0>
0.092687

>  <SCORE.INTRA.SOLV>
0.0896283

>  <SCORE.INTRA.SOLV.lig_0>
-120.37

>  <SCORE.INTRA.VDW>
-0.0745383

>  <SCORE.INTRA.VDW.0>
-1.75542

>  <SCORE.INTRA.norm>
-0.00654916

>  <SCORE.RESTR>
1.25594

>  <SCORE.RESTR.CAVITY>
1.25594

>  <SCORE.RESTR.norm>
0.0405141

>  <SCORE.SYSTEM>
0

>  <SCORE.SYSTEM.CONST>
0

>  <SCORE.SYSTEM.DIHEDRAL>
0

>  <SCORE.SYSTEM.SOLV>
0

>  <SCORE.SYSTEM.norm>
0

>  <SCORE.heavy>
31

>  <SCORE.norm>
-0.277271

>  <RMSD>
12.263

$$$$
1byj cryst
 OpenBabel11021811383D
libRbt.so/2013.1/901 2013/11/27
 31 33  0  0  0  0  0  0  0  0999 V2000
    4.1061   -3.9187  -10.0474 C   0  0  1  0  0  0  0  0  0  0  0  0
    4.0953   -3.3462   -8.7005 O   0  0  0  0  0  0  0  0  0  0  0  0
    3.1093   -2.3182   -8.3850 C   0  0  2  0  0  0  0  0  0  0  0  0
    1.7551   -2.8683   -8.3666 O   0  0  0  0  0  0  0  0  0  0  0  0
    3.2273   -1.1567   -9.4181 C   0  0  2  0  0  0  0  0  0  0  0  0
    2.2640   -0.0642   -9.1786 N   0  3  0  0  0  0  0  0  0  0  0  0
    3.0715   -1.7082  -10.8588 C   0  0  0  0  0  0  0  0  0  0  0  0
    4.0994   -2.8145  -11.1403 C   0  0  0  0  0  0  0  0  0  0  0  0
    5.3589   -4.7956  -10.2198 C   0  0  0  0  0  0  0  0  0  0  0  0
    5.0909   -6.2372  -10.1346 N   0  3  0  0  0  0  0  0  0  0  0  0
    1.0732   -4.9738   -7.2839 C   0  0  1  0  0  0  0  0  0  0  0  0
    0.4202   -5.6127   -6.0341 C   0  0  0  0  0  0  0  0  0  0  0  0
   -0.9855   -5.0036   -5.7838 C   0  0  1  0  0  0  0  0  0  0  0  0
   -1.6274   -5.6756   -4.6379 N   0  3  0  0  0  0  0  0  0  0  0  0
   -0.8760   -3.4662   -5.5687 C   0  0  1  0  0  0  0  0  0  0  0  0
   -0.1360   -2.7765   -6.7421 C   0  0  1  0  0  0  0  0  0  0  0  0
    0.0543   -1.4219   -6.3614 O   0  0  0  0  0  0  0  0  0  0  0  0
    1.2358   -3.4270   -7.1192 C   0  0  2  0  0  0  0  0  0  0  0  0
    2.3605   -5.6299   -7.5731 N   0  3  0  0  0  0  0  0  0  0  0  0
   -4.3630   -4.2499   -7.1332 C   0  0  0  0  0  0  0  0  0  0  0  0
   -5.6158   -3.3485   -7.0079 C   0  0  2  0  0  0  0  0  0  0  0  0
   -5.9449   -2.9070   -8.3243 O   0  0  0  0  0  0  0  0  0  0  0  0
   -5.2901   -2.1255   -6.0700 C   0  0  1  0  0  0  0  0  0  0  0  0
   -3.9493   -1.4084   -6.4470 C   0  0  2  0  0  0  0  0  0  0  0  0
   -2.7817   -2.3888   -6.7251 C   0  0  1  0  0  0  0  0  0  0  0  0
   -2.1996   -2.8652   -5.4833 O   0  0  0  0  0  0  0  0  0  0  0  0
   -3.2118   -3.4853   -7.5803 O   0  0  0  0  0  0  0  0  0  0  0  0
   -3.5471   -0.4894   -5.4347 O   0  0  0  0  0  0  0  0  0  0  0  0
   -6.4300   -1.1567   -6.0878 N   0  3  0  0  0  0  0  0  0  0  0  0
   -6.5948   -0.3372   -7.3056 C   0  0  0  0  0  0  0  0  0  0  0  0
   -6.7982   -4.2116   -6.5029 C   0  0  0  0  0  0  0  0  0  0  0  0
  1  8  1  0  0  0  0
  1  9  1  1  0  0  0
  1  2  1  0  0  0  0
  2  3  1  0  0  0  0
  3  5  1  0  0  0  0
  3  4  1  6  0  0  0
  5  7  1  0  0  0  0
  5  6  1  1  0  0  0
  7  8  1  0  0  0  0
  9 10  1  0  0  0  0
 11 12  1  0  0  0  0
 11 18  1  0  0  0  0
 11 19  1  1  0  0  0
 12 13  1  0  0  0  0
 13 15  1  0  0  0  0
 13 14  1  1  0  0  0
 15 16  1  0  0  0  0
 15 26  1  6  0  0  0
 16 18  1  0  0  0  0
 16 17  1  1  0  0  0
 18  4  1  6  0  0  0
 20 21  1  0  0  0  0
 20 27  1  0  0  0  0
 21 31  1  1  0  0  0
 21 23  1  0  0  0  0
 21 22  1  0  0  0  0
 23 24  1  0  0  0  0
 23 29  1  6  0  0  0
 24 25  1  0  0  0  0
 24 28  1  1  0  0  0
 25 27  1  0  0  0  0
 25 26  1  1  0  0  0
 29 30  1  0  0  0  0
M  CHG  5   6   1  10   1  14   1  19   1  29   1
M  END
>  <CHROM.1>
103.06147014,88.55396692,-111.99699863,117.65819066,64.50738247,102.69758083
29.35328802,-91.33542652,-71.80739841,60.45685702,47.47235692,-171.78220690
-162.56751979,-0.62704109,-3.09953682,-7.52871535,0.00577674,0.34070077,-0.41381228

>  <Name>
1byj cryst

>  <RI>
0

>  <Rbt.Current_Directory>
/home/itssahil/PROJECTS/Mol_Feturizer/New_Systems/rnas/1byj

>  <Rbt.Executable>
rbdock ($Id: //depot/dev/client3/rdock/2013.1/src/exe/rbdock.cxx#4 $)

>  <Rbt.Library>
libRbt.so (2013.1, Build901 2013/11/27)

>  <Rbt.Parameter_File>
/export/apps/rDock/src/rDock_2013.1_src/data/scripts/dock_solv.prm

>  <Rbt.Receptor>
prm/blind_docking_20.prm

>  <SCORE>
17.6468

>  <SCORE.INTER>
6.96869

>  <SCORE.INTER.CONST>
1

>  <SCORE.INTER.POLAR>
-6.50723

>  <SCORE.INTER.ROT>
6

>  <SCORE.INTER.SOLV>
30.1374

>  <SCORE.INTER.VDW>
8.69077

>  <SCORE.INTER.norm>
0.224796

>  <SCORE.INTRA>
6.84428

>  <SCORE.INTRA.DIHEDRAL>
11.3941

>  <SCORE.INTRA.DIHEDRAL.0>
18.4149

>  <SCORE.INTRA.POLAR>
-0.622806

>  <SCORE.INTRA.POLAR.0>
0

>  <SCORE.INTRA.REPUL>
-0.0588422

>  <SCORE.INTRA.REPUL.0>
0.092687

>  <SCORE.INTRA.SOLV>
-0.126883

>  <SCORE.INTRA.SOLV.lig_0>
-120.37

>  <SCORE.INTRA.VDW>
3.62241

>  <SCORE.INTRA.VDW.0>
-1.75542

>  <SCORE.INTRA.norm>
0.220783

>  <SCORE.RESTR>
3.83387

>  <SCORE.RESTR.CAVITY>
3.83387

>  <SCORE.RESTR.norm>
0.123673

>  <SCORE.SYSTEM>
0

>  <SCORE.SYSTEM.CONST>
0

>  <SCORE.SYSTEM.DIHEDRAL>
0

>  <SCORE.SYSTEM.SOLV>
0

>  <SCORE.SYSTEM.norm>
0

>  <SCORE.heavy>
31

>  <SCORE.norm>
0.569253

>  <RMSD>
12.276

$$$$
1byj cryst
 OpenBabel11021811383D
libRbt.so/2013.1/901 2013/11/27
 31 33  0  0  0  0  0  0  0  0999 V2000
   -3.6965    0.7308   -0.0755 C   0  0  1  0  0  0  0  0  0  0  0  0
   -2.7688    0.7870   -1.2061 O   0  0  0  0  0  0  0  0  0  0  0  0
   -2.1459   -0.4509   -1.6624 C   0  0  2  0  0  0  0  0  0  0  0  0
   -3.1278   -1.3481   -2.2688 O   0  0  0  0  0  0  0  0  0  0  0  0
   -1.4262   -1.1382   -0.4623 C   0  0  2  0  0  0  0  0  0  0  0  0
   -0.7631   -2.4051   -0.8291 N   0  3  0  0  0  0  0  0  0  0  0  0
   -2.4286   -1.3692    0.6978 C   0  0  0  0  0  0  0  0  0  0  0  0
   -3.0928   -0.0512    1.1237 C   0  0  0  0  0  0  0  0  0  0  0  0
   -4.0416    2.1616    0.3739 C   0  0  0  0  0  0  0  0  0  0  0  0
   -4.8487    2.2205    1.5996 N   0  3  0  0  0  0  0  0  0  0  0  0
   -4.6581   -2.0873   -4.0526 C   0  0  1  0  0  0  0  0  0  0  0  0
   -4.9217   -2.1139   -5.5778 C   0  0  0  0  0  0  0  0  0  0  0  0
   -3.7129   -2.7355   -6.3276 C   0  0  1  0  0  0  0  0  0  0  0  0
   -4.0092   -2.8261   -7.7701 N   0  3  0  0  0  0  0  0  0  0  0  0
   -2.4239   -1.9090   -6.0501 C   0  0  1  0  0  0  0  0  0  0  0  0
   -2.1592   -1.7562   -4.5313 C   0  0  1  0  0  0  0  0  0  0  0  0
   -1.0718   -0.8529   -4.3980 O   0  0  0  0  0  0  0  0  0  0  0  0
   -3.3857   -1.2472   -3.7044 C   0  0  2  0  0  0  0  0  0  0  0  0
   -5.8502   -1.5919   -3.3420 N   0  3  0  0  0  0  0  0  0  0  0  0
    1.4467   -3.8581   -6.0480 C   0  0  0  0  0  0  0  0  0  0  0  0
    2.2776   -3.6661   -7.3404 C   0  0  2  0  0  0  0  0  0  0  0  0
    3.4170   -2.8815   -6.9907 O   0  0  0  0  0  0  0  0  0  0  0  0
    1.4006   -2.9318   -8.4234 C   0  0  1  0  0  0  0  0  0  0  0  0
    0.6786   -1.6596   -7.8626 C   0  0  2  0  0  0  0  0  0  0  0  0
    0.0141   -1.8855   -6.4808 C   0  0  1  0  0  0  0  0  0  0  0  0
   -1.2592   -2.5678   -6.6247 O   0  0  0  0  0  0  0  0  0  0  0  0
    0.9113   -2.5922   -5.5783 O   0  0  0  0  0  0  0  0  0  0  0  0
   -0.3055   -1.1750   -8.7726 O   0  0  0  0  0  0  0  0  0  0  0  0
    2.2467   -2.5802   -9.6061 N   0  3  0  0  0  0  0  0  0  0  0  0
    3.0296   -1.3303   -9.5230 C   0  0  0  0  0  0  0  0  0  0  0  0
    2.7964   -5.0491   -7.8055 C   0  0  0  0  0  0  0  0  0  0  0  0
  1  8  1  0  0  0  0
  1  9  1  1  0  0  0
  1  2  1  0  0  0  0
  2  3  1  0  0  0  0
  3  5  1  0  0  0  0
  3  4  1  1  0  0  0
  5  7  1  0  0  0  0
  5  6  1  6  0  0  0
  7  8  1  0  0  0  0
  9 10  1  0  0  0  0
 11 12  1  0  0  0  0
 11 18  1  0  0  0  0
 11 19  1  1  0  0  0
 12 13  1  0  0  0  0
 13 15  1  0  0  0  0
 13 14  1  6  0  0  0
 15 16  1  0  0  0  0
 15 26  1  6  0  0  0
 16 18  1  0  0  0  0
 16 17  1  6  0  0  0
 18  4  1  1  0  0  0
 20 21  1  0  0  0  0
 20 27  1  0  0  0  0
 21 31  1  6  0  0  0
 21 23  1  0  0  0  0
 21 22  1  0  0  0  0
 23 24  1  0  0  0  0
 23 29  1  6  0  0  0
 24 25  1  0  0  0  0
 24 28  1  6  0  0  0
 25 27  1  0  0  0  0
 25 26  1  6  0  0  0
 29 30  1  0  0  0  0
M  CHG  5   6   1  10   1  14   1  19   1  29   1
M  END
>  <CHROM.1>
-173.50174989,89.80988175,-168.56107815,-66.86723247,174.54205457,164.58440239
-46.59016498,178.05684020,-95.78575130,-56.45826778,37.43104425,-125.01434055
-124.15665482,-1.41031646,-1.60645594,-4.51281014,-2.13381916,0.10439980
-1.86652227

>  <Name>
1byj cryst

>  <RI>
0

>  <Rbt.Current_Directory>
/home/itssahil/PROJECTS/Mol_Feturizer/New_Systems/rnas/1byj

>  <Rbt.Executable>
rbdock ($Id: //depot/dev/client3/rdock/2013.1/src/exe/rbdock.cxx#4 $)

>  <Rbt.Library>
libRbt.so (2013.1, Build901 2013/11/27)

>  <Rbt.Parameter_File>
/export/apps/rDock/src/rDock_2013.1_src/data/scripts/dock_solv.prm

>  <Rbt.Receptor>
prm/blind_docking_20.prm

>  <SCORE>
-19.011

>  <SCORE.INTER>
-24.9432

>  <SCORE.INTER.CONST>
1

>  <SCORE.INTER.POLAR>
-5.14755

>  <SCORE.INTER.ROT>
6

>  <SCORE.INTER.SOLV>
25.143

>  <SCORE.INTER.VDW>
-15.4513

>  <SCORE.INTER.norm>
-0.80462

>  <SCORE.INTRA>
2.03079

>  <SCORE.INTRA.DIHEDRAL>
7.20856

>  <SCORE.INTRA.DIHEDRAL.0>
18.4149

>  <SCORE.INTRA.POLAR>
-0.706641

>  <SCORE.INTRA.POLAR.0>
0

>  <SCORE.INTRA.REPUL>
-0.092687

>  <SCORE.INTRA.REPUL.0>
0.092687

>  <SCORE.INTRA.SOLV>
-4.71715

>  <SCORE.INTRA.SOLV.lig_0>
-120.37

>  <SCORE.INTRA.VDW>
3.6511

>  <SCORE.INTRA.VDW.0>
-1.75542

>  <SCORE.INTRA.norm>
0.0655094

>  <SCORE.RESTR>
3.90148

>  <SCORE.RESTR.CAVITY>
3.90148

>  <SCORE.RESTR.norm>
0.125854

>  <SCORE.SYSTEM>
0

>  <SCORE.SYSTEM.CONST>
0

>  <SCORE.SYSTEM.DIHEDRAL>
0

>  <SCORE.SYSTEM.SOLV>
0

>  <SCORE.SYSTEM.norm>
0

>  <SCORE.heavy>
31

>  <SCORE.norm>
-0.613257

>  <RMSD>
12.293

$$$$
1byj cryst
 OpenBabel11021811383D
libRbt.so/2013.1/901 2013/11/27
 31 33  0  0  0  0  0  0  0  0999 V2000
    0.4045   -0.8626   -8.4025 C   0  0  1  0  0  0  0  0  0  0  0  0
    1.1637   -1.9576   -7.7970 O   0  0  0  0  0  0  0  0  0  0  0  0
    1.6910   -1.7814   -6.4481 C   0  0  2  0  0  0  0  0  0  0  0  0
    0.6155   -1.7288   -5.4596 O   0  0  0  0  0  0  0  0  0  0  0  0
    2.5595   -0.4877   -6.3994 C   0  0  2  0  0  0  0  0  0  0  0  0
    3.1385   -0.2249   -5.0672 N   0  3  0  0  0  0  0  0  0  0  0  0
    1.7269    0.7303   -6.8764 C   0  0  0  0  0  0  0  0  0  0  0  0
    1.1562    0.4919   -8.2824 C   0  0  0  0  0  0  0  0  0  0  0  0
    0.1551   -1.1744   -9.8887 C   0  0  0  0  0  0  0  0  0  0  0  0
   -0.7342   -2.3215  -10.1135 N   0  3  0  0  0  0  0  0  0  0  0  0
    0.4923   -4.1853   -5.6043 C   0  0  1  0  0  0  0  0  0  0  0  0
   -0.4449   -5.4174   -5.6161 C   0  0  0  0  0  0  0  0  0  0  0  0
   -1.5140   -5.2764   -6.7327 C   0  0  1  0  0  0  0  0  0  0  0  0
   -2.3504   -6.4908   -6.7835 N   0  3  0  0  0  0  0  0  0  0  0  0
   -2.3654   -3.9939   -6.5047 C   0  0  1  0  0  0  0  0  0  0  0  0
   -1.4752   -2.7321   -6.3794 C   0  0  1  0  0  0  0  0  0  0  0  0
   -2.3345   -1.6649   -6.0068 O   0  0  0  0  0  0  0  0  0  0  0  0
   -0.3023   -2.8620   -5.3524 C   0  0  2  0  0  0  0  0  0  0  0  0
    1.5646   -4.3750   -4.6115 N   0  3  0  0  0  0  0  0  0  0  0  0
   -4.8850   -3.2045   -5.0987 C   0  0  0  0  0  0  0  0  0  0  0  0
   -5.9038   -2.1097   -5.4998 C   0  0  2  0  0  0  0  0  0  0  0  0
   -7.2057   -2.6618   -5.3092 O   0  0  0  0  0  0  0  0  0  0  0  0
   -5.6780   -1.7100   -7.0067 C   0  0  1  0  0  0  0  0  0  0  0  0
   -5.5765   -2.9507   -7.9576 C   0  0  2  0  0  0  0  0  0  0  0  0
   -4.6702   -4.0798   -7.4049 C   0  0  1  0  0  0  0  0  0  0  0  0
   -3.2686   -3.7725   -7.6254 O   0  0  0  0  0  0  0  0  0  0  0  0
   -4.9560   -4.3402   -6.0016 O   0  0  0  0  0  0  0  0  0  0  0  0
   -5.1102   -2.5786   -9.2520 O   0  0  0  0  0  0  0  0  0  0  0  0
   -6.7688   -0.7893   -7.4547 N   0  3  0  0  0  0  0  0  0  0  0  0
   -6.5208   -0.0017   -8.6795 C   0  0  0  0  0  0  0  0  0  0  0  0
   -5.7614   -0.9183   -4.5207 C   0  0  0  0  0  0  0  0  0  0  0  0
  1  8  1  0  0  0  0
  1  9  1  6  0  0  0
  1  2  1  0  0  0  0
  2  3  1  0  0  0  0
  3  5  1  0  0  0  0
  3  4  1  1  0  0  0
  5  7  1  0  0  0  0
  5  6  1  1  0  0  0
  7  8  1  0  0  0  0
  9 10  1  0  0  0  0
 11 12  1  0  0  0  0
 11 18  1  0  0  0  0
 11 19  1  1  0  0  0
 12 13  1  0  0  0  0
 13 15  1  0  0  0  0
 13 14  1  1  0  0  0
 15 16  1  0  0  0  0
 15 26  1  6  0  0  0
 16 18  1  0  0  0  0
 16 17  1  1  0  0  0
 18  4  1  6  0  0  0
 20 21  1  0  0  0  0
 20 27  1  0  0  0  0
 21 31  1  1  0  0  0
 21 23  1  0  0  0  0
 21 22  1  0  0  0  0
 23 24  1  0  0  0  0
 23 29  1  6  0  0  0
 24 25  1  0  0  0  0
 24 28  1  6  0  0  0
 25 27  1  0  0  0  0
 25 26  1  1  0  0  0
 29 30  1  0  0  0  0
M  CHG  5   6   1  10   1  14   1  19   1  29   1
M  END
>  <CHROM.1>
66.70466897,58.29603522,35.92553774,-151.73343868,74.98044263,22.70222688
-58.44607990,105.09592885,-54.26152575,-59.30711146,-76.58148910,53.53391888
134.76520683,-2.05880286,-2.44401724,-6.78228243,0.08994160,-0.07966811,-0.48514625

>  <Name>
1byj cryst

>  <RI>
0

>  <Rbt.Current_Directory>
/home/itssahil/PROJECTS/Mol_Feturizer/New_Systems/rnas/1byj

>  <Rbt.Executable>
rbdock ($Id: //depot/dev/client3/rdock/2013.1/src/exe/rbdock.cxx#4 $)

>  <Rbt.Library>
libRbt.so (2013.1, Build901 2013/11/27)

>  <Rbt.Parameter_File>
/export/apps/rDock/src/rDock_2013.1_src/data/scripts/dock_solv.prm

>  <Rbt.Receptor>
prm/blind_docking_20.prm

>  <SCORE>
-16.6226

>  <SCORE.INTER>
-22.8518

>  <SCORE.INTER.CONST>
1

>  <SCORE.INTER.POLAR>
-3.64136

>  <SCORE.INTER.ROT>
6

>  <SCORE.INTER.SOLV>
27.3132

>  <SCORE.INTER.VDW>
-19.8011

>  <SCORE.INTER.norm>
-0.737156

>  <SCORE.INTRA>
-0.0208078

>  <SCORE.INTRA.DIHEDRAL>
2.52689

>  <SCORE.INTRA.DIHEDRAL.0>
18.4149

>  <SCORE.INTRA.POLAR>
-0.0177006

>  <SCORE.INTRA.POLAR.0>
0

>  <SCORE.INTRA.REPUL>
-0.092687

>  <SCORE.INTRA.REPUL.0>
0.092687

>  <SCORE.INTRA.SOLV>
-0.119857

>  <SCORE.INTRA.SOLV.lig_0>
-120.37

>  <SCORE.INTRA.VDW>
-0.700706

>  <SCORE.INTRA.VDW.0>
-1.75542

>  <SCORE.INTRA.norm>
-0.00067122

>  <SCORE.RESTR>
6.25006

>  <SCORE.RESTR.CAVITY>
6.25006

>  <SCORE.RESTR.norm>
0.201615

>  <SCORE.SYSTEM>
0

>  <SCORE.SYSTEM.CONST>
0

>  <SCORE.SYSTEM.DIHEDRAL>
0

>  <SCORE.SYSTEM.SOLV>
0

>  <SCORE.SYSTEM.norm>
0

>  <SCORE.heavy>
31

>  <SCORE.norm>
-0.536213

>  <RMSD>
12.301

$$$$
1byj cryst
 OpenBabel11021811383D
libRbt.so/2013.1/901 2013/11/27
 31 33  0  0  0  0  0  0  0  0999 V2000
    2.8303   -1.8022   -9.3010 C   0  0  1  0  0  0  0  0  0  0  0  0
    3.0808   -2.0104   -7.8742 O   0  0  0  0  0  0  0  0  0  0  0  0
    2.3507   -1.1953   -6.9092 C   0  0  2  0  0  0  0  0  0  0  0  0
    0.9274   -1.5282   -6.9010 O   0  0  0  0  0  0  0  0  0  0  0  0
    2.5706    0.3127   -7.2378 C   0  0  2  0  0  0  0  0  0  0  0  0
    1.8664    1.2196   -6.3101 N   0  3  0  0  0  0  0  0  0  0  0  0
    2.1510    0.6050   -8.7016 C   0  0  0  0  0  0  0  0  0  0  0  0
    2.9108   -0.2987   -9.6843 C   0  0  0  0  0  0  0  0  0  0  0  0
    3.8654   -2.5912  -10.1220 C   0  0  0  0  0  0  0  0  0  0  0  0
    3.8699   -2.2554  -11.5519 N   0  3  0  0  0  0  0  0  0  0  0  0
    1.1438   -3.9519   -6.5143 C   0  0  1  0  0  0  0  0  0  0  0  0
    0.6075   -5.1709   -5.7251 C   0  0  0  0  0  0  0  0  0  0  0  0
   -0.9246   -5.3181   -5.9271 C   0  0  1  0  0  0  0  0  0  0  0  0
   -1.4088   -6.5271   -5.2338 N   0  3  0  0  0  0  0  0  0  0  0  0
   -1.6580   -4.0354   -5.4388 C   0  0  1  0  0  0  0  0  0  0  0  0
   -1.0945   -2.7618   -6.1174 C   0  0  1  0  0  0  0  0  0  0  0  0
   -1.7114   -1.6545   -5.4775 O   0  0  0  0  0  0  0  0  0  0  0  0
    0.4623   -2.6228   -6.0505 C   0  0  2  0  0  0  0  0  0  0  0  0
    2.6112   -3.8812   -6.4001 N   0  3  0  0  0  0  0  0  0  0  0  0
   -4.5396   -3.0208   -8.2133 C   0  0  0  0  0  0  0  0  0  0  0  0
   -6.0412   -3.0367   -7.8361 C   0  0  2  0  0  0  0  0  0  0  0  0
   -6.4998   -1.6867   -7.8940 O   0  0  0  0  0  0  0  0  0  0  0  0
   -6.2113   -3.6262   -6.3852 C   0  0  1  0  0  0  0  0  0  0  0  0
   -5.2374   -2.9754   -5.3450 C   0  0  2  0  0  0  0  0  0  0  0  0
   -3.7831   -2.8378   -5.8627 C   0  0  1  0  0  0  0  0  0  0  0  0
   -3.0765   -4.1019   -5.7617 O   0  0  0  0  0  0  0  0  0  0  0  0
   -3.7584   -2.3073   -7.2180 O   0  0  0  0  0  0  0  0  0  0  0  0
   -5.2225   -3.7024   -4.1192 O   0  0  0  0  0  0  0  0  0  0  0  0
   -7.6326   -3.4779   -5.9423 N   0  3  0  0  0  0  0  0  0  0  0  0
   -8.0427   -4.2320   -4.7403 C   0  0  0  0  0  0  0  0  0  0  0  0
   -6.8146   -3.8321   -8.9165 C   0  0  0  0  0  0  0  0  0  0  0  0
  1  8  1  0  0  0  0
  1  9  1  6  0  0  0
  1  2  1  0  0  0  0
  2  3  1  0  0  0  0
  3  5  1  0  0  0  0
  3  4  1  6  0  0  0
  5  7  1  0  0  0  0
  5  6  1  1  0  0  0
  7  8  1  0  0  0  0
  9 10  1  0  0  0  0
 11 12  1  0  0  0  0
 11 18  1  0  0  0  0
 11 19  1  1  0  0  0
 12 13  1  0  0  0  0
 13 15  1  0  0  0  0
 13 14  1  1  0  0  0
 15 16  1  0  0  0  0
 15 26  1  6  0  0  0
 16 18  1  0  0  0  0
 16 17  1  1  0  0  0
 18  4  1  6  0  0  0
 20 21  1  0  0  0  0
 20 27  1  0  0  0  0
 21 31  1  6  0  0  0
 21 23  1  0  0  0  0
 21 22  1  0  0  0  0
 23 24  1  0  0  0  0
 23 29  1  1  0  0  0
 24 25  1  0  0  0  0
 24 28  1  1  0  0  0
 25 27  1  0  0  0  0
 25 26  1  6  0  0  0
 29 30  1  0  0  0  0
M  CHG  5   6   1  10   1  14   1  19   1  29   1
M  END
>  <CHROM.1>
-168.98393014,86.47074727,-61.93121198,24.75703558,81.75331400,159.02408782
-87.46966659,-156.56605030,66.72972550,-56.95853528,-71.91611895,68.43561949
-145.01959292,-1.38000602,-2.71658885,-6.94784673,0.32329145,0.03445450,-0.72313094

>  <Name>
1byj cryst

>  <RI>
0

>  <Rbt.Current_Directory>
/home/itssahil/PROJECTS/Mol_Feturizer/New_Systems/rnas/1byj

>  <Rbt.Executable>
rbdock ($Id: //depot/dev/client3/rdock/2013.1/src/exe/rbdock.cxx#4 $)

>  <Rbt.Library>
libRbt.so (2013.1, Build901 2013/11/27)

>  <Rbt.Parameter_File>
/export/apps/rDock/src/rDock_2013.1_src/data/scripts/dock_solv.prm

>  <Rbt.Receptor>
prm/blind_docking_100.prm

>  <SCORE>
18.6239

>  <SCORE.INTER>
8.82039

>  <SCORE.INTER.CONST>
1

>  <SCORE.INTER.POLAR>
-3.4378

>  <SCORE.INTER.ROT>
6

>  <SCORE.INTER.SOLV>
33.2979

>  <SCORE.INTER.VDW>
-1.35973

>  <SCORE.INTER.norm>
0.284529

>  <SCORE.INTRA>
5.17124

>  <SCORE.INTRA.DIHEDRAL>
-0.955136

>  <SCORE.INTRA.DIHEDRAL.0>
18.4149

>  <SCORE.INTRA.POLAR>
-0.700479

>  <SCORE.INTRA.POLAR.0>
0

>  <SCORE.INTRA.REPUL>
-0.092687

>  <SCORE.INTRA.REPUL.0>
0.092687

>  <SCORE.INTRA.SOLV>
-0.319154

>  <SCORE.INTRA.SOLV.lig_0>
-120.37

>  <SCORE.INTRA.VDW>
8.65345

>  <SCORE.INTRA.VDW.0>
-1.75542

>  <SCORE.INTRA.norm>
0.166814

>  <SCORE.RESTR>
4.63226

>  <SCORE.RESTR.CAVITY>
4.63226

>  <SCORE.RESTR.norm>
0.149428

>  <SCORE.SYSTEM>
0

>  <SCORE.SYSTEM.CONST>
0

>  <SCORE.SYSTEM.DIHEDRAL>
0

>  <SCORE.SYSTEM.SOLV>
0

>  <SCORE.SYSTEM.norm>
0

>  <SCORE.heavy>
31

>  <SCORE.norm>
0.600771

>  <RMSD>
12.308

$$$$
1byj cryst
 OpenBabel11021811383D
libRbt.so/2013.1/901 2013/11/27
 31 33  0  0  0  0  0  0  0  0999 V2000
    0.2661   -2.5283   -8.4292 C   0  0  1  0  0  0  0  0  0  0  0  0
    1.5312   -2.9889   -7.8553 O   0  0  0  0  0  0  0  0  0  0  0  0
    2.2176   -2.1310   -6.8954 C   0  0  2  0  0  0  0  0  0  0  0  0
    1.4693   -2.0287   -5.6438 O   0  0  0  0  0  0  0  0  0  0  0  0
    2.4420   -0.7247   -7.5296 C   0  0  2  0  0  0  0  0  0  0  0  0
    3.1334    0.2173   -6.6275 N   0  3  0  0  0  0  0  0  0  0  0  0
    1.0887   -0.1299   -7.9974 C   0  0  0  0  0  0  0  0  0  0  0  0
    0.3779   -1.0779   -8.9750 C   0  0  0  0  0  0  0  0  0  0  0  0
   -0.1491   -3.4703   -9.5731 C   0  0  0  0  0  0  0  0  0  0  0  0
   -0.1781   -2.8254  -10.8924 N   0  3  0  0  0  0  0  0  0  0  0  0
    0.8222   -4.3905   -5.9148 C   0  0  1  0  0  0  0  0  0  0  0  0
   -0.3206   -5.4250   -5.7711 C   0  0  0  0  0  0  0  0  0  0  0  0
   -1.5709   -4.9683   -6.5698 C   0  0  1  0  0  0  0  0  0  0  0  0
   -2.6233   -5.9991   -6.4879 N   0  3  0  0  0  0  0  0  0  0  0  0
   -2.0678   -3.5883   -6.0499 C   0  0  1  0  0  0  0  0  0  0  0  0
   -0.9372   -2.5293   -6.0702 C   0  0  1  0  0  0  0  0  0  0  0  0
   -1.4511   -1.3747   -5.4231 O   0  0  0  0  0  0  0  0  0  0  0  0
    0.3930   -2.9836   -5.3836 C   0  0  2  0  0  0  0  0  0  0  0  0
    2.0365   -4.8814   -5.2397 N   0  3  0  0  0  0  0  0  0  0  0  0
   -5.0679   -2.9374   -4.5223 C   0  0  0  0  0  0  0  0  0  0  0  0
   -6.2998   -2.1556   -5.0407 C   0  0  2  0  0  0  0  0  0  0  0  0
   -7.4221   -3.0309   -4.9388 O   0  0  0  0  0  0  0  0  0  0  0  0
   -6.0566   -1.7255   -6.5364 C   0  0  1  0  0  0  0  0  0  0  0  0
   -5.5498   -2.9044   -7.4349 C   0  0  2  0  0  0  0  0  0  0  0  0
   -4.4302   -3.7477   -6.7735 C   0  0  1  0  0  0  0  0  0  0  0  0
   -3.1451   -3.0823   -6.8890 O   0  0  0  0  0  0  0  0  0  0  0  0
   -4.7588   -4.0603   -5.3903 O   0  0  0  0  0  0  0  0  0  0  0  0
   -5.0867   -2.4352   -8.6984 O   0  0  0  0  0  0  0  0  0  0  0  0
   -7.3078   -1.1311   -7.1017 N   0  3  0  0  0  0  0  0  0  0  0  0
   -7.2566    0.2923   -7.4933 C   0  0  0  0  0  0  0  0  0  0  0  0
   -6.5616   -0.9593   -4.0928 C   0  0  0  0  0  0  0  0  0  0  0  0
  1  8  1  0  0  0  0
  1  9  1  6  0  0  0
  1  2  1  0  0  0  0
  2  3  1  0  0  0  0
  3  5  1  0  0  0  0
  3  4  1  1  0  0  0
  5  7  1  0  0  0  0
  5  6  1  1  0  0  0
  7  8  1  0  0  0  0
  9 10  1  0  0  0  0
 11 12  1  0  0  0  0
 11 18  1  0  0  0  0
 11 19  1  1  0  0  0
 12 13  1  0  0  0  0
 13 15  1  0  0  0  0
 13 14  1  1  0  0  0
 15 16  1  0  0  0  0
 15 26  1  6  0  0  0
 16 18  1  0  0  0  0
 16 17  1  1  0  0  0
 18  4  1  6  0  0  0
 20 21  1  0  0  0  0
 20 27  1  0  0  0  0
 21 31  1  1  0  0  0
 21 23  1  0  0  0  0
 21 22  1  0  0  0  0
 23 24  1  0  0  0  0
 23 29  1  6  0  0  0
 24 25  1  0  0  0  0
 24 28  1  6  0  0  0
 25 27  1  0  0  0  0
 25 26  1  1  0  0  0
 29 30  1  0  0  0  0
M  CHG  5   6   1  10   1  14   1  19   1  29   1
M  END
>  <CHROM.1>
-115.63310763,14.61529588,38.10243959,166.55740648,172.24679591,78.48173992
-121.74659560,72.21260643,60.43892733,-56.37201262,-122.99739622,-62.79667357
165.81943561,-2.02988440,-2.63597844,-6.72686942,0.06648128,0.12430442,-0.62723213

>  <Name>
1byj cryst

>  <RI>
0

>  <Rbt.Current_Directory>
/home/itssahil/PROJECTS/Mol_Feturizer/New_Systems/rnas/1byj

>  <Rbt.Executable>
rbdock ($Id: //depot/dev/client3/rdock/2013.1/src/exe/rbdock.cxx#4 $)

>  <Rbt.Library>
libRbt.so (2013.1, Build901 2013/11/27)

>  <Rbt.Parameter_File>
/export/apps/rDock/src/rDock_2013.1_src/data/scripts/dock_solv.prm

>  <Rbt.Receptor>
prm/blind_docking_100.prm

>  <SCORE>
-11.2015

>  <SCORE.INTER>
-25.7958

>  <SCORE.INTER.CONST>
1

>  <SCORE.INTER.POLAR>
-4.25627

>  <SCORE.INTER.ROT>
6

>  <SCORE.INTER.SOLV>
28.5057

>  <SCORE.INTER.VDW>
-20.1115

>  <SCORE.INTER.norm>
-0.832122

>  <SCORE.INTRA>
6.55172

>  <SCORE.INTRA.DIHEDRAL>
5.646

>  <SCORE.INTRA.DIHEDRAL.0>
18.4149

>  <SCORE.INTRA.POLAR>
-1.1763

>  <SCORE.INTRA.POLAR.0>
0

>  <SCORE.INTRA.REPUL>
-0.092687

>  <SCORE.INTRA.REPUL.0>
0.092687

>  <SCORE.INTRA.SOLV>
0.575053

>  <SCORE.INTRA.SOLV.lig_0>
-120.37

>  <SCORE.INTRA.VDW>
7.90405

>  <SCORE.INTRA.VDW.0>
-1.75542

>  <SCORE.INTRA.norm>
0.211346

>  <SCORE.RESTR>
8.04256

>  <SCORE.RESTR.CAVITY>
8.04256

>  <SCORE.RESTR.norm>
0.259437

>  <SCORE.SYSTEM>
0

>  <SCORE.SYSTEM.CONST>
0

>  <SCORE.SYSTEM.DIHEDRAL>
0

>  <SCORE.SYSTEM.SOLV>
0

>  <SCORE.SYSTEM.norm>
0

>  <SCORE.heavy>
31

>  <SCORE.norm>
-0.361339

>  <RMSD>
12.308

$$$$
1byj cryst
 OpenBabel11021811383D
libRbt.so/2013.1/901 2013/11/27
 31 33  0  0  0  0  0  0  0  0999 V2000
   -3.9333    1.6280    0.3960 C   0  0  1  0  0  0  0  0  0  0  0  0
   -2.7855    1.0424   -0.2981 O   0  0  0  0  0  0  0  0  0  0  0  0
   -2.6246   -0.4076   -0.2842 C   0  0  2  0  0  0  0  0  0  0  0  0
   -3.6717   -1.0661   -1.0632 O   0  0  0  0  0  0  0  0  0  0  0  0
   -2.6241   -0.9118    1.1910 C   0  0  2  0  0  0  0  0  0  0  0  0
   -2.4658   -2.3749    1.3063 N   0  3  0  0  0  0  0  0  0  0  0  0
   -3.9168   -0.4498    1.9117 C   0  0  0  0  0  0  0  0  0  0  0  0
   -4.0719    1.0768    1.8419 C   0  0  0  0  0  0  0  0  0  0  0  0
   -3.7722    3.1575    0.4492 C   0  0  0  0  0  0  0  0  0  0  0  0
   -2.4031    3.6198    0.1865 N   0  3  0  0  0  0  0  0  0  0  0  0
   -4.9740   -1.5884   -3.0884 C   0  0  1  0  0  0  0  0  0  0  0  0
   -5.0783   -1.4022   -4.6217 C   0  0  0  0  0  0  0  0  0  0  0  0
   -3.7706   -1.8687   -5.3161 C   0  0  1  0  0  0  0  0  0  0  0  0
   -3.9127   -1.7587   -6.7805 N   0  3  0  0  0  0  0  0  0  0  0  0
   -2.5578   -1.0495   -4.7871 C   0  0  1  0  0  0  0  0  0  0  0  0
   -2.4578   -1.1099   -3.2423 C   0  0  1  0  0  0  0  0  0  0  0  0
   -1.4343   -0.2005   -2.8661 O   0  0  0  0  0  0  0  0  0  0  0  0
   -3.7857   -0.7666   -2.4897 C   0  0  2  0  0  0  0  0  0  0  0  0
   -6.2549   -1.2405   -2.4485 N   0  3  0  0  0  0  0  0  0  0  0  0
   -1.8592   -4.4114   -6.3188 C   0  0  0  0  0  0  0  0  0  0  0  0
   -0.4983   -4.9343   -6.8405 C   0  0  2  0  0  0  0  0  0  0  0  0
   -0.1632   -6.0785   -6.0565 O   0  0  0  0  0  0  0  0  0  0  0  0
    0.5912   -3.8073   -6.6844 C   0  0  1  0  0  0  0  0  0  0  0  0
    0.5939   -3.1554   -5.2600 C   0  0  2  0  0  0  0  0  0  0  0  0
   -0.8237   -2.8157   -4.7336 C   0  0  1  0  0  0  0  0  0  0  0  0
   -1.3102   -1.5796   -5.3191 O   0  0  0  0  0  0  0  0  0  0  0  0
   -1.7431   -3.9221   -4.9561 O   0  0  0  0  0  0  0  0  0  0  0  0
    1.3914   -1.9746   -5.2286 O   0  0  0  0  0  0  0  0  0  0  0  0
    1.9417   -4.3602   -7.0145 N   0  3  0  0  0  0  0  0  0  0  0  0
    3.0571   -3.3961   -7.1053 C   0  0  0  0  0  0  0  0  0  0  0  0
   -0.6797   -5.4146   -8.3015 C   0  0  0  0  0  0  0  0  0  0  0  0
  1  8  1  0  0  0  0
  1  9  1  1  0  0  0
  1  2  1  0  0  0  0
  2  3  1  0  0  0  0
  3  5  1  0  0  0  0
  3  4  1  6  0  0  0
  5  7  1  0  0  0  0
  5  6  1  6  0  0  0
  7  8  1  0  0  0  0
  9 10  1  0  0  0  0
 11 12  1  0  0  0  0
 11 18  1  0  0  0  0
 11 19  1  1  0  0  0
 12 13  1  0  0  0  0
 13 15  1  0  0  0  0
 13 14  1  6  0  0  0
 15 16  1  0  0  0  0
 15 26  1  6  0  0  0
 16 18  1  0  0  0  0
 16 17  1  1  0  0  0
 18  4  1  1  0  0  0
 20 21  1  0  0  0  0
 20 27  1  0  0  0  0
 21 31  1  6  0  0  0
 21 23  1  0  0  0  0
 21 22  1  0  0  0  0
 23 24  1  0  0  0  0
 23 29  1  1  0  0  0
 24 25  1  0  0  0  0
 24 28  1  6  0  0  0
 25 27  1  0  0  0  0
 25 26  1  6  0  0  0
 29 30  1  0  0  0  0
M  CHG  5   6   1  10   1  14   1  19   1  29   1
M  END
>  <CHROM.1>
-17.21676143,60.83793547,-179.87142426,-52.79447279,-41.36295911,176.09865621
-67.83281985,-75.57928444,68.71173248,-69.73821292,-67.28393726,71.33997654
-172.43090092,-2.10456696,-1.66019793,-3.35785747,-1.98359888,0.07018043
-2.14873596

>  <Name>
1byj cryst

>  <RI>
0

>  <Rbt.Current_Directory>
/home/itssahil/PROJECTS/Mol_Feturizer/New_Systems/rnas/1byj

>  <Rbt.Executable>
rbdock ($Id: //depot/dev/client3/rdock/2013.1/src/exe/rbdock.cxx#4 $)

>  <Rbt.Library>
libRbt.so (2013.1, Build901 2013/11/27)

>  <Rbt.Parameter_File>
/export/apps/rDock/src/rDock_2013.1_src/data/scripts/dock_solv.prm

>  <Rbt.Receptor>
prm/blind_docking_60.prm

>  <SCORE>
-10.7976

>  <SCORE.INTER>
-9.79351

>  <SCORE.INTER.CONST>
1

>  <SCORE.INTER.POLAR>
-2.55172

>  <SCORE.INTER.ROT>
6

>  <SCORE.INTER.SOLV>
28.1783

>  <SCORE.INTER.VDW>
-15.0161

>  <SCORE.INTER.norm>
-0.31592

>  <SCORE.INTRA>
-6.77706

>  <SCORE.INTRA.DIHEDRAL>
-9.72886

>  <SCORE.INTRA.DIHEDRAL.0>
18.4149

>  <SCORE.INTRA.POLAR>
-0.0587909

>  <SCORE.INTRA.POLAR.0>
0

>  <SCORE.INTRA.REPUL>
-0.092687

>  <SCORE.INTRA.REPUL.0>
0.092687

>  <SCORE.INTRA.SOLV>
-2.66863

>  <SCORE.INTRA.SOLV.lig_0>
-120.37

>  <SCORE.INTRA.VDW>
0.0850097

>  <SCORE.INTRA.VDW.0>
-1.75542

>  <SCORE.INTRA.norm>
-0.218615

>  <SCORE.RESTR>
5.77292

>  <SCORE.RESTR.CAVITY>
5.77292

>  <SCORE.RESTR.norm>
0.186223

>  <SCORE.SYSTEM>
0

>  <SCORE.SYSTEM.CONST>
0

>  <SCORE.SYSTEM.DIHEDRAL>
0

>  <SCORE.SYSTEM.SOLV>
0

>  <SCORE.SYSTEM.norm>
0

>  <SCORE.heavy>
31

>  <SCORE.norm>
-0.348311

>  <RMSD>
12.308

$$$$
1byj cryst
 OpenBabel11021811383D
libRbt.so/2013.1/901 2013/11/27
 31 33  0  0  0  0  0  0  0  0999 V2000
   -5.3124   -1.1670   -7.1188 C   0  0  1  0  0  0  0  0  0  0  0  0
   -4.9555   -1.8683   -5.8847 O   0  0  0  0  0  0  0  0  0  0  0  0
   -3.9750   -2.9467   -5.9513 C   0  0  2  0  0  0  0  0  0  0  0  0
   -2.6430   -2.4352   -6.2692 O   0  0  0  0  0  0  0  0  0  0  0  0
   -4.4366   -3.9984   -7.0054 C   0  0  2  0  0  0  0  0  0  0  0  0
   -3.5025   -5.1330   -7.1436 N   0  3  0  0  0  0  0  0  0  0  0  0
   -4.6611   -3.3130   -8.3779 C   0  0  0  0  0  0  0  0  0  0  0  0
   -5.6681   -2.1591   -8.2602 C   0  0  0  0  0  0  0  0  0  0  0  0
   -6.5165   -0.2462   -6.8532 C   0  0  0  0  0  0  0  0  0  0  0  0
   -6.7380    0.7587   -7.9012 N   0  3  0  0  0  0  0  0  0  0  0  0
   -0.8021   -2.9385   -4.7110 C   0  0  1  0  0  0  0  0  0  0  0  0
    0.0159   -2.4345   -3.4971 C   0  0  0  0  0  0  0  0  0  0  0  0
   -0.9253   -2.0965   -2.3099 C   0  0  1  0  0  0  0  0  0  0  0  0
   -0.1281   -1.6924   -1.1360 N   0  3  0  0  0  0  0  0  0  0  0  0
   -1.9443   -0.9966   -2.7265 C   0  0  1  0  0  0  0  0  0  0  0  0
   -2.7266   -1.3965   -4.0025 C   0  0  1  0  0  0  0  0  0  0  0  0
   -3.4913   -0.2618   -4.3818 O   0  0  0  0  0  0  0  0  0  0  0  0
   -1.8302   -1.8645   -5.1961 C   0  0  2  0  0  0  0  0  0  0  0  0
    0.1055   -3.3538   -5.7951 N   0  3  0  0  0  0  0  0  0  0  0  0
   -4.5723    1.2294   -0.0700 C   0  0  0  0  0  0  0  0  0  0  0  0
   -4.7941    0.5698    1.3132 C   0  0  2  0  0  0  0  0  0  0  0  0
   -4.1889    1.4230    2.2837 O   0  0  0  0  0  0  0  0  0  0  0  0
   -4.1280   -0.8576    1.3264 C   0  0  1  0  0  0  0  0  0  0  0  0
   -2.6580   -0.8492    0.7852 C   0  0  2  0  0  0  0  0  0  0  0  0
   -2.4832   -0.0234   -0.5146 C   0  0  1  0  0  0  0  0  0  0  0  0
   -2.9249   -0.7807   -1.6718 O   0  0  0  0  0  0  0  0  0  0  0  0
   -3.1613    1.2607   -0.4135 O   0  0  0  0  0  0  0  0  0  0  0  0
   -2.1786   -2.1719    0.5576 O   0  0  0  0  0  0  0  0  0  0  0  0
   -4.1781   -1.4265    2.7092 N   0  3  0  0  0  0  0  0  0  0  0  0
   -3.6749   -2.8039    2.8865 C   0  0  0  0  0  0  0  0  0  0  0  0
   -6.3138    0.5408    1.6098 C   0  0  0  0  0  0  0  0  0  0  0  0
  1  8  1  0  0  0  0
  1  9  1  1  0  0  0
  1  2  1  0  0  0  0
  2  3  1  0  0  0  0
  3  5  1  0  0  0  0
  3  4  1  6  0  0  0
  5  7  1  0  0  0  0
  5  6  1  6  0  0  0
  7  8  1  0  0  0  0
  9 10  1  0  0  0  0
 11 12  1  0  0  0  0
 11 18  1  0  0  0  0
 11 19  1  6  0  0  0
 12 13  1  0  0  0  0
 13 15  1  0  0  0  0
 13 14  1  1  0  0  0
 15 16  1  0  0  0  0
 15 26  1  1  0  0  0
 16 18  1  0  0  0  0
 16 17  1  6  0  0  0
 18  4  1  6  0  0  0
 20 21  1  0  0  0  0
 20 27  1  0  0  0  0
 21 31  1  1  0  0  0
 21 23  1  0  0  0  0
 21 22  1  0  0  0  0
 23 24  1  0  0  0  0
 23 29  1  1  0  0  0
 24 25  1  0  0  0  0
 24 28  1  6  0  0  0
 25 27  1  0  0  0  0
 25 26  1  6  0  0  0
 29 30  1  0  0  0  0
M  CHG  5   6   1  10   1  14   1  19   1  29   1
M  END
>  <CHROM.1>
164.66271694,81.23572829,99.32246447,-75.72754153,66.95233022,-57.51206689
88.60327047,76.00777770,-163.07119012,-62.93573859,-62.86231547,53.22287324
-122.15121950,-3.39187924,-1.39741566,-3.01258943,1.63499742,0.53193362,-1.83815606

>  <Name>
1byj cryst

>  <RI>
0

>  <Rbt.Current_Directory>
/home/itssahil/PROJECTS/Mol_Feturizer/New_Systems/rnas/1byj

>  <Rbt.Executable>
rbdock ($Id: //depot/dev/client3/rdock/2013.1/src/exe/rbdock.cxx#4 $)

>  <Rbt.Library>
libRbt.so (2013.1, Build901 2013/11/27)

>  <Rbt.Parameter_File>
/export/apps/rDock/src/rDock_2013.1_src/data/scripts/dock_solv.prm

>  <Rbt.Receptor>
prm/blind_docking_20.prm

>  <SCORE>
-21.0162

>  <SCORE.INTER>
-21.5883

>  <SCORE.INTER.CONST>
1

>  <SCORE.INTER.POLAR>
-2.2439

>  <SCORE.INTER.ROT>
6

>  <SCORE.INTER.SOLV>
18.535

>  <SCORE.INTER.VDW>
-20.6909

>  <SCORE.INTER.norm>
-0.696398

>  <SCORE.INTRA>
-5.0978

>  <SCORE.INTRA.DIHEDRAL>
2.27281

>  <SCORE.INTRA.DIHEDRAL.0>
18.4149

>  <SCORE.INTRA.POLAR>
-1.95997

>  <SCORE.INTRA.POLAR.0>
0

>  <SCORE.INTRA.REPUL>
-0.092687

>  <SCORE.INTRA.REPUL.0>
0.092687

>  <SCORE.INTRA.SOLV>
0.647575

>  <SCORE.INTRA.SOLV.lig_0>
-120.37

>  <SCORE.INTRA.VDW>
0.56935

>  <SCORE.INTRA.VDW.0>
-1.75542

>  <SCORE.INTRA.norm>
-0.164445

>  <SCORE.RESTR>
5.6699

>  <SCORE.RESTR.CAVITY>
5.6699

>  <SCORE.RESTR.norm>
0.1829

>  <SCORE.SYSTEM>
0

>  <SCORE.SYSTEM.CONST>
0

>  <SCORE.SYSTEM.DIHEDRAL>
0

>  <SCORE.SYSTEM.SOLV>
0

>  <SCORE.SYSTEM.norm>
0

>  <SCORE.heavy>
31

>  <SCORE.norm>
-0.677943

>  <RMSD>
12.317

$$$$
1byj cryst
 OpenBabel11021811383D
libRbt.so/2013.1/901 2013/11/27
 31 33  0  0  0  0  0  0  0  0999 V2000
    0.4453   -1.0153   -8.3617 C   0  0  1  0  0  0  0  0  0  0  0  0
    1.2515   -2.1610   -7.9381 O   0  0  0  0  0  0  0  0  0  0  0  0
    1.9319   -2.0995   -6.6489 C   0  0  2  0  0  0  0  0  0  0  0  0
    0.9770   -2.1218   -5.5423 O   0  0  0  0  0  0  0  0  0  0  0  0
    2.8201   -0.8194   -6.5957 C   0  0  2  0  0  0  0  0  0  0  0  0
    3.5513   -0.6706   -5.3220 N   0  3  0  0  0  0  0  0  0  0  0  0
    1.9575    0.4386   -6.8737 C   0  0  0  0  0  0  0  0  0  0  0  0
    1.2265    0.3200   -8.2195 C   0  0  0  0  0  0  0  0  0  0  0  0
    0.0232   -1.2024   -9.8296 C   0  0  0  0  0  0  0  0  0  0  0  0
   -0.8996   -2.3249  -10.0436 N   0  3  0  0  0  0  0  0  0  0  0  0
    0.6305   -4.5075   -6.0509 C   0  0  1  0  0  0  0  0  0  0  0  0
   -0.3996   -5.6611   -6.1190 C   0  0  0  0  0  0  0  0  0  0  0  0
   -1.5931   -5.2710   -7.0318 C   0  0  1  0  0  0  0  0  0  0  0  0
   -2.5274   -6.4067   -7.1500 N   0  3  0  0  0  0  0  0  0  0  0  0
   -2.2959   -3.9953   -6.4839 C   0  0  1  0  0  0  0  0  0  0  0  0
   -1.2946   -2.8285   -6.2934 C   0  0  1  0  0  0  0  0  0  0  0  0
   -2.0038   -1.7884   -5.6368 O   0  0  0  0  0  0  0  0  0  0  0  0
   -0.0097   -3.1991   -5.4815 C   0  0  2  0  0  0  0  0  0  0  0  0
    1.8064   -4.9252   -5.2672 N   0  3  0  0  0  0  0  0  0  0  0  0
   -4.8531   -3.6647   -4.7757 C   0  0  0  0  0  0  0  0  0  0  0  0
   -6.0139   -2.6510   -4.9252 C   0  0  2  0  0  0  0  0  0  0  0  0
   -7.2295   -3.3888   -4.8066 O   0  0  0  0  0  0  0  0  0  0  0  0
   -5.9182   -1.9478   -6.3315 C   0  0  1  0  0  0  0  0  0  0  0  0
   -5.7226   -2.9629   -7.5084 C   0  0  2  0  0  0  0  0  0  0  0  0
   -4.6611   -4.0530   -7.2136 C   0  0  1  0  0  0  0  0  0  0  0  0
   -3.3193   -3.5353   -7.4121 O   0  0  0  0  0  0  0  0  0  0  0  0
   -4.8383   -4.6084   -5.8799 O   0  0  0  0  0  0  0  0  0  0  0  0
   -5.3737   -2.2966   -8.7190 O   0  0  0  0  0  0  0  0  0  0  0  0
   -7.1325   -1.1038   -6.5587 N   0  3  0  0  0  0  0  0  0  0  0  0
   -7.2495    0.1322   -5.7583 C   0  0  0  0  0  0  0  0  0  0  0  0
   -5.9603   -1.6585   -3.7376 C   0  0  0  0  0  0  0  0  0  0  0  0
  1  8  1  0  0  0  0
  1  9  1  6  0  0  0
  1  2  1  0  0  0  0
  2  3  1  0  0  0  0
  3  5  1  0  0  0  0
  3  4  1  1  0  0  0
  5  7  1  0  0  0  0
  5  6  1  1  0  0  0
  7  8  1  0  0  0  0
  9 10  1  0  0  0  0
 11 12  1  0  0  0  0
 11 18  1  0  0  0  0
 11 19  1  1  0  0  0
 12 13  1  0  0  0  0
 13 15  1  0  0  0  0
 13 14  1  1  0  0  0
 15 16  1  0  0  0  0
 15 26  1  6  0  0  0
 16 18  1  0  0  0  0
 16 17  1  1  0  0  0
 18  4  1  6  0  0  0
 20 21  1  0  0  0  0
 20 27  1  0  0  0  0
 21 31  1  1  0  0  0
 21 23  1  0  0  0  0
 21 22  1  0  0  0  0
 23 24  1  0  0  0  0
 23 29  1  6  0  0  0
 24 25  1  0  0  0  0
 24 28  1  6  0  0  0
 25 27  1  0  0  0  0
 25 26  1  1  0  0  0
 29 30  1  0  0  0  0
M  CHG  5   6   1  10   1  14   1  19   1  29   1
M  END
>  <CHROM.1>
66.48961946,53.51340338,33.86321778,163.74684573,-168.77689611,68.86750343
65.56390816,91.02854631,-156.75906580,176.49061719,-167.60712757,-59.32050419
142.77374973,-2.04581698,-2.65098744,-6.59999045,0.11826581,0.07981279,-0.26945780

>  <Name>
1byj cryst

>  <RI>
0

>  <Rbt.Current_Directory>
/home/itssahil/PROJECTS/Mol_Feturizer/New_Systems/rnas/1byj

>  <Rbt.Executable>
rbdock ($Id: //depot/dev/client3/rdock/2013.1/src/exe/rbdock.cxx#4 $)

>  <Rbt.Library>
libRbt.so (2013.1, Build901 2013/11/27)

>  <Rbt.Parameter_File>
/export/apps/rDock/src/rDock_2013.1_src/data/scripts/dock_solv.prm

>  <Rbt.Receptor>
prm/blind_docking_100.prm

>  <SCORE>
-10.1053

>  <SCORE.INTER>
-17.01

>  <SCORE.INTER.CONST>
1

>  <SCORE.INTER.POLAR>
-3.00621

>  <SCORE.INTER.ROT>
6

>  <SCORE.INTER.SOLV>
28.9669

>  <SCORE.INTER.VDW>
-18.5749

>  <SCORE.INTER.norm>
-0.548709

>  <SCORE.INTRA>
-0.414722

>  <SCORE.INTRA.DIHEDRAL>
-2.32927

>  <SCORE.INTRA.DIHEDRAL.0>
18.4149

>  <SCORE.INTRA.POLAR>
0

>  <SCORE.INTRA.POLAR.0>
0

>  <SCORE.INTRA.REPUL>
-0.092687

>  <SCORE.INTRA.REPUL.0>
0.092687

>  <SCORE.INTRA.SOLV>
0.626863

>  <SCORE.INTRA.SOLV.lig_0>
-120.37

>  <SCORE.INTRA.VDW>
0.899916

>  <SCORE.INTRA.VDW.0>
-1.75542

>  <SCORE.INTRA.norm>
-0.0133781

>  <SCORE.RESTR>
7.31939

>  <SCORE.RESTR.CAVITY>
7.31939

>  <SCORE.RESTR.norm>
0.236109

>  <SCORE.SYSTEM>
0

>  <SCORE.SYSTEM.CONST>
0

>  <SCORE.SYSTEM.DIHEDRAL>
0

>  <SCORE.SYSTEM.SOLV>
0

>  <SCORE.SYSTEM.norm>
0

>  <SCORE.heavy>
31

>  <SCORE.norm>
-0.325978

>  <RMSD>
12.321

$$$$
1byj cryst
 OpenBabel11021811383D
libRbt.so/2013.1/901 2013/11/27
 31 33  0  0  0  0  0  0  0  0999 V2000
    3.9902   -5.3126  -10.3235 C   0  0  1  0  0  0  0  0  0  0  0  0
    4.1258   -4.6486   -9.0263 O   0  0  0  0  0  0  0  0  0  0  0  0
    3.3856   -3.4134   -8.7916 C   0  0  2  0  0  0  0  0  0  0  0  0
    1.9463   -3.6603   -8.7272 O   0  0  0  0  0  0  0  0  0  0  0  0
    3.7275   -2.3868   -9.9139 C   0  0  2  0  0  0  0  0  0  0  0  0
    3.0218   -1.0994   -9.7601 N   0  3  0  0  0  0  0  0  0  0  0  0
    3.4318   -3.0021  -11.3060 C   0  0  0  0  0  0  0  0  0  0  0  0
    4.1969   -4.3198  -11.5006 C   0  0  0  0  0  0  0  0  0  0  0  0
    5.0256   -6.4462  -10.4280 C   0  0  0  0  0  0  0  0  0  0  0  0
    4.9683   -7.1878  -11.6945 N   0  3  0  0  0  0  0  0  0  0  0  0
    1.4222   -5.5639   -7.2535 C   0  0  1  0  0  0  0  0  0  0  0  0
    0.7018   -6.0154   -5.9598 C   0  0  0  0  0  0  0  0  0  0  0  0
   -0.7953   -5.6068   -6.0004 C   0  0  1  0  0  0  0  0  0  0  0  0
   -1.4863   -6.1109   -4.7982 N   0  3  0  0  0  0  0  0  0  0  0  0
   -0.9287   -4.0629   -6.1425 C   0  0  1  0  0  0  0  0  0  0  0  0
   -0.1402   -3.5316   -7.3657 C   0  0  1  0  0  0  0  0  0  0  0  0
   -0.1914   -2.1143   -7.2969 O   0  0  0  0  0  0  0  0  0  0  0  0
    1.3463   -4.0131   -7.4414 C   0  0  2  0  0  0  0  0  0  0  0  0
    2.8148   -6.0456   -7.2513 N   0  3  0  0  0  0  0  0  0  0  0  0
   -5.0144   -2.4270   -7.0325 C   0  0  0  0  0  0  0  0  0  0  0  0
   -5.4254   -1.6124   -5.7814 C   0  0  2  0  0  0  0  0  0  0  0  0
   -5.5268   -0.2482   -6.1871 O   0  0  0  0  0  0  0  0  0  0  0  0
   -4.3323   -1.7856   -4.6605 C   0  0  1  0  0  0  0  0  0  0  0  0
   -2.8752   -1.5625   -5.1906 C   0  0  2  0  0  0  0  0  0  0  0  0
   -2.5929   -2.2730   -6.5387 C   0  0  1  0  0  0  0  0  0  0  0  0
   -2.3220   -3.6844   -6.3326 O   0  0  0  0  0  0  0  0  0  0  0  0
   -3.6823   -2.0599   -7.4804 O   0  0  0  0  0  0  0  0  0  0  0  0
   -1.9033   -1.9830   -4.2367 O   0  0  0  0  0  0  0  0  0  0  0  0
   -4.6263   -0.8627   -3.5203 N   0  3  0  0  0  0  0  0  0  0  0  0
   -5.6582   -1.2956   -2.5560 C   0  0  0  0  0  0  0  0  0  0  0  0
   -6.8376   -2.0666   -5.3371 C   0  0  0  0  0  0  0  0  0  0  0  0
  1  8  1  0  0  0  0
  1  9  1  1  0  0  0
  1  2  1  0  0  0  0
  2  3  1  0  0  0  0
  3  5  1  0  0  0  0
  3  4  1  6  0  0  0
  5  7  1  0  0  0  0
  5  6  1  1  0  0  0
  7  8  1  0  0  0  0
  9 10  1  0  0  0  0
 11 12  1  0  0  0  0
 11 18  1  0  0  0  0
 11 19  1  1  0  0  0
 12 13  1  0  0  0  0
 13 15  1  0  0  0  0
 13 14  1  1  0  0  0
 15 16  1  0  0  0  0
 15 26  1  6  0  0  0
 16 18  1  0  0  0  0
 16 17  1  1  0  0  0
 18  4  1  6  0  0  0
 20 21  1  0  0  0  0
 20 27  1  0  0  0  0
 21 31  1  1  0  0  0
 21 23  1  0  0  0  0
 21 22  1  0  0  0  0
 23 24  1  0  0  0  0
 23 29  1  1  0  0  0
 24 25  1  0  0  0  0
 24 28  1  1  0  0  0
 25 27  1  0  0  0  0
 25 26  1  1  0  0  0
 29 30  1  0  0  0  0
M  CHG  5   6   1  10   1  14   1  19   1  29   1
M  END
>  <CHROM.1>
179.56422992,87.85562112,-87.77312357,161.47763337,-161.19593685,-138.05910828
-129.75279811,-177.41250200,59.84868653,66.53132553,-158.64552012,61.45852649
-91.35184186,-0.33257775,-3.42387564,-7.27249843,0.02314758,0.60159266,-0.59416230

>  <Name>
1byj cryst

>  <RI>
0

>  <Rbt.Current_Directory>
/home/itssahil/PROJECTS/Mol_Feturizer/New_Systems/rnas/1byj

>  <Rbt.Executable>
rbdock ($Id: //depot/dev/client3/rdock/2013.1/src/exe/rbdock.cxx#4 $)

>  <Rbt.Library>
libRbt.so (2013.1, Build901 2013/11/27)

>  <Rbt.Parameter_File>
/export/apps/rDock/src/rDock_2013.1_src/data/scripts/dock_solv.prm

>  <Rbt.Receptor>
prm/blind_docking_80.prm

>  <SCORE>
-14.1929

>  <SCORE.INTER>
-19.1014

>  <SCORE.INTER.CONST>
1

>  <SCORE.INTER.POLAR>
-4.93682

>  <SCORE.INTER.ROT>
6

>  <SCORE.INTER.SOLV>
34.0018

>  <SCORE.INTER.VDW>
-15.2121

>  <SCORE.INTER.norm>
-0.616174

>  <SCORE.INTRA>
3.07914

>  <SCORE.INTRA.DIHEDRAL>
1.10634

>  <SCORE.INTRA.DIHEDRAL.0>
18.4149

>  <SCORE.INTRA.POLAR>
-1.08627

>  <SCORE.INTRA.POLAR.0>
0

>  <SCORE.INTRA.REPUL>
0.226495

>  <SCORE.INTRA.REPUL.0>
0.092687

>  <SCORE.INTRA.SOLV>
0.0708265

>  <SCORE.INTRA.SOLV.lig_0>
-120.37

>  <SCORE.INTRA.VDW>
5.05141

>  <SCORE.INTRA.VDW.0>
-1.75542

>  <SCORE.INTRA.norm>
0.0993271

>  <SCORE.RESTR>
1.82937

>  <SCORE.RESTR.CAVITY>
1.82937

>  <SCORE.RESTR.norm>
0.0590121

>  <SCORE.SYSTEM>
0

>  <SCORE.SYSTEM.CONST>
0

>  <SCORE.SYSTEM.DIHEDRAL>
0

>  <SCORE.SYSTEM.SOLV>
0

>  <SCORE.SYSTEM.norm>
0

>  <SCORE.heavy>
31

>  <SCORE.norm>
-0.457835

>  <RMSD>
12.350

$$$$
1byj cryst
 OpenBabel11021811383D
libRbt.so/2013.1/901 2013/11/27
 31 33  0  0  0  0  0  0  0  0999 V2000
    0.6800   -2.4573   -4.7731 C   0  0  1  0  0  0  0  0  0  0  0  0
   -0.1071   -1.6861   -5.7363 O   0  0  0  0  0  0  0  0  0  0  0  0
    0.4899   -1.3612   -7.0273 C   0  0  2  0  0  0  0  0  0  0  0  0
    0.6693   -2.5585   -7.8464 O   0  0  0  0  0  0  0  0  0  0  0  0
    1.8485   -0.6318   -6.7977 C   0  0  2  0  0  0  0  0  0  0  0  0
    2.5302   -0.2617   -8.0536 N   0  3  0  0  0  0  0  0  0  0  0  0
    2.7781   -1.5040   -5.9150 C   0  0  0  0  0  0  0  0  0  0  0  0
    2.1008   -1.8584   -4.5826 C   0  0  0  0  0  0  0  0  0  0  0  0
   -0.0482   -2.4771   -3.4175 C   0  0  0  0  0  0  0  0  0  0  0  0
    0.0473   -3.7613   -2.7110 N   0  3  0  0  0  0  0  0  0  0  0  0
   -1.1825   -2.6220   -9.4704 C   0  0  1  0  0  0  0  0  0  0  0  0
   -2.5030   -3.3224   -9.8731 C   0  0  0  0  0  0  0  0  0  0  0  0
   -3.5106   -3.3030   -8.6924 C   0  0  1  0  0  0  0  0  0  0  0  0
   -4.7905   -3.9035   -9.1144 N   0  3  0  0  0  0  0  0  0  0  0  0
   -2.9068   -4.0313   -7.4568 C   0  0  1  0  0  0  0  0  0  0  0  0
   -1.5284   -3.4429   -7.0641 C   0  0  1  0  0  0  0  0  0  0  0  0
   -1.0025   -4.2844   -6.0486 O   0  0  0  0  0  0  0  0  0  0  0  0
   -0.5101   -3.3250   -8.2458 C   0  0  2  0  0  0  0  0  0  0  0  0
   -0.2728   -2.5541  -10.6276 N   0  3  0  0  0  0  0  0  0  0  0  0
   -6.8033   -4.2393   -6.0652 C   0  0  0  0  0  0  0  0  0  0  0  0
   -7.1919   -3.5709   -4.7236 C   0  0  2  0  0  0  0  0  0  0  0  0
   -8.0912   -2.5071   -5.0329 O   0  0  0  0  0  0  0  0  0  0  0  0
   -5.8956   -3.0231   -4.0159 C   0  0  1  0  0  0  0  0  0  0  0  0
   -4.9857   -2.1837   -4.9758 C   0  0  2  0  0  0  0  0  0  0  0  0
   -4.7826   -2.8400   -6.3650 C   0  0  1  0  0  0  0  0  0  0  0  0
   -3.7799   -3.8879   -6.3002 O   0  0  0  0  0  0  0  0  0  0  0  0
   -6.0446   -3.3269   -6.9029 O   0  0  0  0  0  0  0  0  0  0  0  0
   -3.7087   -1.9312   -4.3953 O   0  0  0  0  0  0  0  0  0  0  0  0
   -6.2772   -2.2192   -2.8131 N   0  3  0  0  0  0  0  0  0  0  0  0
   -7.0020   -0.9549   -3.0539 C   0  0  0  0  0  0  0  0  0  0  0  0
   -7.9717   -4.5982   -3.8664 C   0  0  0  0  0  0  0  0  0  0  0  0
  1  8  1  0  0  0  0
  1  9  1  1  0  0  0
  1  2  1  0  0  0  0
  2  3  1  0  0  0  0
  3  5  1  0  0  0  0
  3  4  1  6  0  0  0
  5  7  1  0  0  0  0
  5  6  1  6  0  0  0
  7  8  1  0  0  0  0
  9 10  1  0  0  0  0
 11 12  1  0  0  0  0
 11 18  1  0  0  0  0
 11 19  1  6  0  0  0
 12 13  1  0  0  0  0
 13 15  1  0  0  0  0
 13 14  1  6  0  0  0
 15 16  1  0  0  0  0
 15 26  1  1  0  0  0
 16 18  1  0  0  0  0
 16 17  1  1  0  0  0
 18  4  1  1  0  0  0
 20 21  1  0  0  0  0
 20 27  1  0  0  0  0
 21 31  1  1  0  0  0
 21 23  1  0  0  0  0
 21 22  1  0  0  0  0
 23 24  1  0  0  0  0
 23 29  1  1  0  0  0
 24 25  1  0  0  0  0
 24 28  1  1  0  0  0
 25 27  1  0  0  0  0
 25 26  1  1  0  0  0
 29 30  1  0  0  0  0
M  CHG  5   6   1  10   1  14   1  19   1  29   1
M  END
>  <CHROM.1>
141.80168262,62.15201038,80.31024164,-64.72367622,-136.91312659,-74.46990628
57.37180816,-17.01225996,60.57926956,-56.91737530,54.46343093,59.55860787
-143.62482821,-2.57754815,-2.73439960,-6.18585016,-0.25213355,0.18291097
1.43083291

>  <Name>
1byj cryst

>  <RI>
0

>  <Rbt.Current_Directory>
/home/itssahil/PROJECTS/Mol_Feturizer/New_Systems/rnas/1byj

>  <Rbt.Executable>
rbdock ($Id: //depot/dev/client3/rdock/2013.1/src/exe/rbdock.cxx#4 $)

>  <Rbt.Library>
libRbt.so (2013.1, Build901 2013/11/27)

>  <Rbt.Parameter_File>
/export/apps/rDock/src/rDock_2013.1_src/data/scripts/dock_solv.prm

>  <Rbt.Receptor>
prm/blind_docking_40.prm

>  <SCORE>
-18.4256

>  <SCORE.INTER>
-24.9656

>  <SCORE.INTER.CONST>
1

>  <SCORE.INTER.POLAR>
-3.78432

>  <SCORE.INTER.ROT>
6

>  <SCORE.INTER.SOLV>
23.2558

>  <SCORE.INTER.VDW>
-19.3813

>  <SCORE.INTER.norm>
-0.805342

>  <SCORE.INTRA>
0.317323

>  <SCORE.INTRA.DIHEDRAL>
1.84135

>  <SCORE.INTRA.DIHEDRAL.0>
18.4149

>  <SCORE.INTRA.POLAR>
-1.16675

>  <SCORE.INTRA.POLAR.0>
0

>  <SCORE.INTRA.REPUL>
-0.0907987

>  <SCORE.INTRA.REPUL.0>
0.092687

>  <SCORE.INTRA.SOLV>
-0.77834

>  <SCORE.INTRA.SOLV.lig_0>
-120.37

>  <SCORE.INTRA.VDW>
4.20677

>  <SCORE.INTRA.VDW.0>
-1.75542

>  <SCORE.INTRA.norm>
0.0102362

>  <SCORE.RESTR>
6.22266

>  <SCORE.RESTR.CAVITY>
6.22266

>  <SCORE.RESTR.norm>
0.200731

>  <SCORE.SYSTEM>
0

>  <SCORE.SYSTEM.CONST>
0

>  <SCORE.SYSTEM.DIHEDRAL>
0

>  <SCORE.SYSTEM.SOLV>
0

>  <SCORE.SYSTEM.norm>
0

>  <SCORE.heavy>
31

>  <SCORE.norm>
-0.594375

>  <RMSD>
12.357

$$$$
1byj cryst
 OpenBabel11021811383D
libRbt.so/2013.1/901 2013/11/27
 31 33  0  0  0  0  0  0  0  0999 V2000
    0.9769   -3.4322   -8.1386 C   0  0  1  0  0  0  0  0  0  0  0  0
    1.8637   -2.7084   -7.2266 O   0  0  0  0  0  0  0  0  0  0  0  0
    1.7070   -1.2635   -7.0981 C   0  0  2  0  0  0  0  0  0  0  0  0
    0.4451   -0.9218   -6.4443 O   0  0  0  0  0  0  0  0  0  0  0  0
    1.8017   -0.6074   -8.5091 C   0  0  2  0  0  0  0  0  0  0  0  0
    1.6537    0.8610   -8.4796 N   0  3  0  0  0  0  0  0  0  0  0  0
    0.7517   -1.2373   -9.4603 C   0  0  0  0  0  0  0  0  0  0  0  0
    0.9229   -2.7618   -9.5391 C   0  0  0  0  0  0  0  0  0  0  0  0
    1.4711   -4.8818   -8.2886 C   0  0  0  0  0  0  0  0  0  0  0  0
    2.9073   -5.0491   -8.0304 N   0  3  0  0  0  0  0  0  0  0  0  0
    0.8014   -2.9418   -5.0794 C   0  0  1  0  0  0  0  0  0  0  0  0
    0.1199   -4.1203   -4.3423 C   0  0  0  0  0  0  0  0  0  0  0  0
   -0.7963   -4.9120   -5.3137 C   0  0  1  0  0  0  0  0  0  0  0  0
   -1.3777   -6.0765   -4.6189 N   0  3  0  0  0  0  0  0  0  0  0  0
   -1.8941   -3.9780   -5.9004 C   0  0  1  0  0  0  0  0  0  0  0  0
   -1.2793   -2.7207   -6.5645 C   0  0  1  0  0  0  0  0  0  0  0  0
   -2.3642   -1.8707   -6.9061 O   0  0  0  0  0  0  0  0  0  0  0  0
   -0.2519   -1.9492   -5.6719 C   0  0  2  0  0  0  0  0  0  0  0  0
    1.7465   -2.2601   -4.1776 N   0  3  0  0  0  0  0  0  0  0  0  0
   -4.4392   -3.0221   -5.0679 C   0  0  0  0  0  0  0  0  0  0  0  0
   -5.4512   -2.3063   -5.9959 C   0  0  2  0  0  0  0  0  0  0  0  0
   -6.7522   -2.7544   -5.6182 O   0  0  0  0  0  0  0  0  0  0  0  0
   -5.1419   -2.6783   -7.4950 C   0  0  1  0  0  0  0  0  0  0  0  0
   -4.9612   -4.2186   -7.7160 C   0  0  2  0  0  0  0  0  0  0  0  0
   -4.0701   -4.8958   -6.6440 C   0  0  1  0  0  0  0  0  0  0  0  0
   -2.6633   -4.6715   -6.9241 O   0  0  0  0  0  0  0  0  0  0  0  0
   -4.4354   -4.4551   -5.3057 O   0  0  0  0  0  0  0  0  0  0  0  0
   -4.4243   -4.5007   -9.0056 O   0  0  0  0  0  0  0  0  0  0  0  0
   -6.2198   -2.1406   -8.3823 N   0  3  0  0  0  0  0  0  0  0  0  0
   -6.1249   -0.7173   -8.7661 C   0  0  0  0  0  0  0  0  0  0  0  0
   -5.3892   -0.7846   -5.7156 C   0  0  0  0  0  0  0  0  0  0  0  0
  1  8  1  0  0  0  0
  1  9  1  6  0  0  0
  1  2  1  0  0  0  0
  2  3  1  0  0  0  0
  3  5  1  0  0  0  0
  3  4  1  6  0  0  0
  5  7  1  0  0  0  0
  5  6  1  1  0  0  0
  7  8  1  0  0  0  0
  9 10  1  0  0  0  0
 11 12  1  0  0  0  0
 11 18  1  0  0  0  0
 11 19  1  1  0  0  0
 12 13  1  0  0  0  0
 13 15  1  0  0  0  0
 13 14  1  1  0  0  0
 15 16  1  0  0  0  0
 15 26  1  6  0  0  0
 16 18  1  0  0  0  0
 16 17  1  1  0  0  0
 18  4  1  6  0  0  0
 20 21  1  0  0  0  0
 20 27  1  0  0  0  0
 21 31  1  1  0  0  0
 21 23  1  0  0  0  0
 21 22  1  0  0  0  0
 23 24  1  0  0  0  0
 23 29  1  6  0  0  0
 24 25  1  0  0  0  0
 24 28  1  6  0  0  0
 25 27  1  0  0  0  0
 25 26  1  6  0  0  0
 29 30  1  0  0  0  0
M  CHG  5   6   1  10   1  14   1  19   1  29   1
M  END
>  <CHROM.1>
-25.31646260,18.35117485,29.90952674,-155.21460216,-40.89558134,93.57800866
-64.69094745,115.49420451,79.18623599,-52.68088856,-157.23512320,65.35896221
120.34770063,-1.64428858,-2.90285250,-6.84970821,0.09224537,0.01577273,-0.64679066

>  <Name>
1byj cryst

>  <RI>
0

>  <Rbt.Current_Directory>
/home/itssahil/PROJECTS/Mol_Feturizer/New_Systems/rnas/1byj

>  <Rbt.Executable>
rbdock ($Id: //depot/dev/client3/rdock/2013.1/src/exe/rbdock.cxx#4 $)

>  <Rbt.Library>
libRbt.so (2013.1, Build901 2013/11/27)

>  <Rbt.Parameter_File>
/export/apps/rDock/src/rDock_2013.1_src/data/scripts/dock_solv.prm

>  <Rbt.Receptor>
prm/blind_docking_100.prm

>  <SCORE>
4.70513

>  <SCORE.INTER>
-15.9153

>  <SCORE.INTER.CONST>
1

>  <SCORE.INTER.POLAR>
-3.57987

>  <SCORE.INTER.ROT>
6

>  <SCORE.INTER.SOLV>
32.9742

>  <SCORE.INTER.VDW>
-17.2687

>  <SCORE.INTER.norm>
-0.513396

>  <SCORE.INTRA>
13.3956

>  <SCORE.INTRA.DIHEDRAL>
16.05

>  <SCORE.INTRA.DIHEDRAL.0>
18.4149

>  <SCORE.INTRA.POLAR>
-0.0385391

>  <SCORE.INTRA.POLAR.0>
0

>  <SCORE.INTRA.REPUL>
-0.092687

>  <SCORE.INTRA.REPUL.0>
0.092687

>  <SCORE.INTRA.SOLV>
0.472932

>  <SCORE.INTRA.SOLV.lig_0>
-120.37

>  <SCORE.INTRA.VDW>
5.72856

>  <SCORE.INTRA.VDW.0>
-1.75542

>  <SCORE.INTRA.norm>
0.432115

>  <SCORE.RESTR>
7.22486

>  <SCORE.RESTR.CAVITY>
7.22486

>  <SCORE.RESTR.norm>
0.23306

>  <SCORE.SYSTEM>
0

>  <SCORE.SYSTEM.CONST>
0

>  <SCORE.SYSTEM.DIHEDRAL>
0

>  <SCORE.SYSTEM.SOLV>
0

>  <SCORE.SYSTEM.norm>
0

>  <SCORE.heavy>
31

>  <SCORE.norm>
0.151778

>  <RMSD>
12.382

$$$$
1byj cryst
 OpenBabel11021811383D
libRbt.so/2013.1/901 2013/11/27
 31 33  0  0  0  0  0  0  0  0999 V2000
    3.9012   -6.9153  -10.5130 C   0  0  1  0  0  0  0  0  0  0  0  0
    4.4178   -5.7772   -9.7515 O   0  0  0  0  0  0  0  0  0  0  0  0
    5.2465   -4.7932  -10.4396 C   0  0  2  0  0  0  0  0  0  0  0  0
    4.4679   -4.0302  -11.4135 O   0  0  0  0  0  0  0  0  0  0  0  0
    6.4445   -5.5177  -11.1253 C   0  0  2  0  0  0  0  0  0  0  0  0
    7.3433   -4.5983  -11.8505 N   0  3  0  0  0  0  0  0  0  0  0  0
    5.9225   -6.6252  -12.0766 C   0  0  0  0  0  0  0  0  0  0  0  0
    5.0230   -7.6186  -11.3258 C   0  0  0  0  0  0  0  0  0  0  0  0
    3.2629   -7.9290   -9.5469 C   0  0  0  0  0  0  0  0  0  0  0  0
    1.9889   -7.4792   -8.9709 N   0  3  0  0  0  0  0  0  0  0  0  0
    4.3115   -1.6291  -10.8838 C   0  0  1  0  0  0  0  0  0  0  0  0
    3.4298   -0.5114  -10.2757 C   0  0  0  0  0  0  0  0  0  0  0  0
    3.0058   -0.8803   -8.8286 C   0  0  1  0  0  0  0  0  0  0  0  0
    2.2322    0.2265   -8.2343 N   0  3  0  0  0  0  0  0  0  0  0  0
    2.2061   -2.2153   -8.8253 C   0  0  1  0  0  0  0  0  0  0  0  0
    2.9951   -3.3555   -9.5163 C   0  0  1  0  0  0  0  0  0  0  0  0
    2.1116   -4.4634   -9.6063 O   0  0  0  0  0  0  0  0  0  0  0  0
    3.5530   -2.9959  -10.9329 C   0  0  2  0  0  0  0  0  0  0  0  0
    4.7933   -1.2245  -12.2163 N   0  3  0  0  0  0  0  0  0  0  0  0
    1.1926   -4.0566   -4.8571 C   0  0  0  0  0  0  0  0  0  0  0  0
   -0.2447   -3.5836   -4.5285 C   0  0  2  0  0  0  0  0  0  0  0  0
   -1.0741   -4.7447   -4.5209 O   0  0  0  0  0  0  0  0  0  0  0  0
   -0.7230   -2.5586   -5.6249 C   0  0  1  0  0  0  0  0  0  0  0  0
   -0.4725   -3.0671   -7.0852 C   0  0  2  0  0  0  0  0  0  0  0  0
    0.9339   -3.6846   -7.2914 C   0  0  1  0  0  0  0  0  0  0  0  0
    1.9346   -2.6465   -7.4611 O   0  0  0  0  0  0  0  0  0  0  0  0
    1.2708   -4.5927   -6.2048 O   0  0  0  0  0  0  0  0  0  0  0  0
   -0.6621   -2.0257   -8.0396 O   0  0  0  0  0  0  0  0  0  0  0  0
   -2.1693   -2.2358   -5.4190 N   0  3  0  0  0  0  0  0  0  0  0  0
   -3.1538   -3.1187   -6.0773 C   0  0  0  0  0  0  0  0  0  0  0  0
   -0.2579   -2.9993   -3.0945 C   0  0  0  0  0  0  0  0  0  0  0  0
  1  8  1  0  0  0  0
  1  9  1  1  0  0  0
  1  2  1  0  0  0  0
  2  3  1  0  0  0  0
  3  5  1  0  0  0  0
  3  4  1  6  0  0  0
  5  7  1  0  0  0  0
  5  6  1  6  0  0  0
  7  8  1  0  0  0  0
  9 10  1  0  0  0  0
 11 12  1  0  0  0  0
 11 18  1  0  0  0  0
 11 19  1  6  0  0  0
 12 13  1  0  0  0  0
 13 15  1  0  0  0  0
 13 14  1  6  0  0  0
 15 16  1  0  0  0  0
 15 26  1  1  0  0  0
 16 18  1  0  0  0  0
 16 17  1  6  0  0  0
 18  4  1  1  0  0  0
 20 21  1  0  0  0  0
 20 27  1  0  0  0  0
 21 31  1  1  0  0  0
 21 23  1  0  0  0  0
 21 22  1  0  0  0  0
 23 24  1  0  0  0  0
 23 29  1  6  0  0  0
 24 25  1  0  0  0  0
 24 28  1  6  0  0  0
 25 27  1  0  0  0  0
 25 26  1  1  0  0  0
 29 30  1  0  0  0  0
M  CHG  5   6   1  10   1  14   1  19   1  29   1
M  END
>  <CHROM.1>
71.74934065,75.13518277,91.36300245,-60.33814426,86.62194152,-6.03642259
61.69068612,165.54800584,78.73102450,44.44567343,33.12134900,-177.71964013
-91.07167147,2.33518858,-3.78394410,-8.59594393,0.11366067,-0.78592825,2.98958347

>  <Name>
1byj cryst

>  <RI>
0

>  <Rbt.Current_Directory>
/home/itssahil/PROJECTS/Mol_Feturizer/New_Systems/rnas/1byj

>  <Rbt.Executable>
rbdock ($Id: //depot/dev/client3/rdock/2013.1/src/exe/rbdock.cxx#4 $)

>  <Rbt.Library>
libRbt.so (2013.1, Build901 2013/11/27)

>  <Rbt.Parameter_File>
/export/apps/rDock/src/rDock_2013.1_src/data/scripts/dock_solv.prm

>  <Rbt.Receptor>
prm/blind_docking_80.prm

>  <SCORE>
-12.0529

>  <SCORE.INTER>
-11.9992

>  <SCORE.INTER.CONST>
1

>  <SCORE.INTER.POLAR>
-5.47681

>  <SCORE.INTER.ROT>
6

>  <SCORE.INTER.SOLV>
33.6622

>  <SCORE.INTER.VDW>
-8.56414

>  <SCORE.INTER.norm>
-0.387069

>  <SCORE.INTRA>
-1.75571

>  <SCORE.INTRA.DIHEDRAL>
1.213

>  <SCORE.INTRA.DIHEDRAL.0>
18.4149

>  <SCORE.INTRA.POLAR>
-1.14799

>  <SCORE.INTRA.POLAR.0>
0

>  <SCORE.INTRA.REPUL>
-0.092687

>  <SCORE.INTRA.REPUL.0>
0.092687

>  <SCORE.INTRA.SOLV>
-1.31919

>  <SCORE.INTRA.SOLV.lig_0>
-120.37

>  <SCORE.INTRA.VDW>
2.66398

>  <SCORE.INTRA.VDW.0>
-1.75542

>  <SCORE.INTRA.norm>
-0.0566358

>  <SCORE.RESTR>
1.70192

>  <SCORE.RESTR.CAVITY>
1.70192

>  <SCORE.RESTR.norm>
0.0549005

>  <SCORE.SYSTEM>
0

>  <SCORE.SYSTEM.CONST>
0

>  <SCORE.SYSTEM.DIHEDRAL>
0

>  <SCORE.SYSTEM.SOLV>
0

>  <SCORE.SYSTEM.norm>
0

>  <SCORE.heavy>
31

>  <SCORE.norm>
-0.388805

>  <RMSD>
12.417

$$$$
1byj cryst
 OpenBabel11021811383D
libRbt.so/2013.1/901 2013/11/27
 31 33  0  0  0  0  0  0  0  0999 V2000
    3.8184   -7.1024  -10.5978 C   0  0  1  0  0  0  0  0  0  0  0  0
    4.2980   -5.8978   -9.9188 O   0  0  0  0  0  0  0  0  0  0  0  0
    5.0272   -4.9005  -10.6948 C   0  0  2  0  0  0  0  0  0  0  0  0
    4.1543   -4.2368  -11.6614 O   0  0  0  0  0  0  0  0  0  0  0  0
    6.2339   -5.5835  -11.4074 C   0  0  2  0  0  0  0  0  0  0  0  0
    7.0351   -4.6482  -12.2211 N   0  3  0  0  0  0  0  0  0  0  0  0
    5.7376   -6.7675  -12.2770 C   0  0  0  0  0  0  0  0  0  0  0  0
    4.9415   -7.7752  -11.4343 C   0  0  0  0  0  0  0  0  0  0  0  0
    3.2947   -8.1036   -9.5530 C   0  0  0  0  0  0  0  0  0  0  0  0
    2.3993   -7.5055   -8.5542 N   0  3  0  0  0  0  0  0  0  0  0  0
    4.4110   -1.8624  -11.0556 C   0  0  1  0  0  0  0  0  0  0  0  0
    3.7008   -0.6023  -10.5040 C   0  0  0  0  0  0  0  0  0  0  0  0
    3.0474   -0.9049   -9.1288 C   0  0  1  0  0  0  0  0  0  0  0  0
    2.4419    0.3232   -8.5793 N   0  3  0  0  0  0  0  0  0  0  0  0
    2.0067   -2.0535   -9.2678 C   0  0  1  0  0  0  0  0  0  0  0  0
    2.6318   -3.3158   -9.9129 C   0  0  1  0  0  0  0  0  0  0  0  0
    1.5649   -4.2236  -10.1447 O   0  0  0  0  0  0  0  0  0  0  0  0
    3.4103   -3.0496  -11.2434 C   0  0  2  0  0  0  0  0  0  0  0  0
    5.1144   -1.5384  -12.3093 N   0  3  0  0  0  0  0  0  0  0  0  0
   -1.4347   -3.2305   -7.6490 C   0  0  0  0  0  0  0  0  0  0  0  0
   -1.6679   -3.3526   -6.1232 C   0  0  2  0  0  0  0  0  0  0  0  0
   -2.6627   -2.3906   -5.7753 O   0  0  0  0  0  0  0  0  0  0  0  0
   -0.3188   -3.0664   -5.3620 C   0  0  1  0  0  0  0  0  0  0  0  0
    0.3952   -1.7627   -5.8565 C   0  0  2  0  0  0  0  0  0  0  0  0
    0.4377   -1.6295   -7.4000 C   0  0  1  0  0  0  0  0  0  0  0  0
    1.4992   -2.4461   -7.9605 O   0  0  0  0  0  0  0  0  0  0  0  0
   -0.8569   -1.9416   -7.9877 O   0  0  0  0  0  0  0  0  0  0  0  0
    1.7244   -1.6723   -5.3503 O   0  0  0  0  0  0  0  0  0  0  0  0
   -0.5728   -3.0027   -3.8889 N   0  3  0  0  0  0  0  0  0  0  0  0
    0.5423   -3.3850   -2.9989 C   0  0  0  0  0  0  0  0  0  0  0  0
   -2.2569   -4.7530   -5.8229 C   0  0  0  0  0  0  0  0  0  0  0  0
  1  8  1  0  0  0  0
  1  9  1  1  0  0  0
  1  2  1  0  0  0  0
  2  3  1  0  0  0  0
  3  5  1  0  0  0  0
  3  4  1  6  0  0  0
  5  7  1  0  0  0  0
  5  6  1  6  0  0  0
  7  8  1  0  0  0  0
  9 10  1  0  0  0  0
 11 12  1  0  0  0  0
 11 18  1  0  0  0  0
 11 19  1  6  0  0  0
 12 13  1  0  0  0  0
 13 15  1  0  0  0  0
 13 14  1  6  0  0  0
 15 16  1  0  0  0  0
 15 26  1  1  0  0  0
 16 18  1  0  0  0  0
 16 17  1  6  0  0  0
 18  4  1  1  0  0  0
 20 21  1  0  0  0  0
 20 27  1  0  0  0  0
 21 31  1  1  0  0  0
 21 23  1  0  0  0  0
 21 22  1  0  0  0  0
 23 24  1  0  0  0  0
 23 29  1  1  0  0  0
 24 25  1  0  0  0  0
 24 28  1  6  0  0  0
 25 27  1  0  0  0  0
 25 26  1  6  0  0  0
 29 30  1  0  0  0  0
M  CHG  5   6   1  10   1  14   1  19   1  29   1
M  END
>  <CHROM.1>
47.30065403,88.09115300,70.66844454,-67.39854732,-176.54059150,73.25382328
62.60249257,81.81925355,-60.91794782,-53.90234579,-87.38682577,-68.20936671
-156.70832634,2.24824347,-3.60442006,-8.77029479,0.25567819,-0.79741225,3.08790726

>  <Name>
1byj cryst

>  <RI>
0

>  <Rbt.Current_Directory>
/home/itssahil/PROJECTS/Mol_Feturizer/New_Systems/rnas/1byj

>  <Rbt.Executable>
rbdock ($Id: //depot/dev/client3/rdock/2013.1/src/exe/rbdock.cxx#4 $)

>  <Rbt.Library>
libRbt.so (2013.1, Build901 2013/11/27)

>  <Rbt.Parameter_File>
/export/apps/rDock/src/rDock_2013.1_src/data/scripts/dock_solv.prm

>  <Rbt.Receptor>
prm/blind_docking_80.prm

>  <SCORE>
-13.7103

>  <SCORE.INTER>
-12.2138

>  <SCORE.INTER.CONST>
1

>  <SCORE.INTER.POLAR>
-4.75822

>  <SCORE.INTER.ROT>
6

>  <SCORE.INTER.SOLV>
32.4014

>  <SCORE.INTER.VDW>
-10.6823

>  <SCORE.INTER.norm>
-0.393995

>  <SCORE.INTRA>
-4.03982

>  <SCORE.INTRA.DIHEDRAL>
-6.45152

>  <SCORE.INTRA.DIHEDRAL.0>
18.4149

>  <SCORE.INTRA.POLAR>
-0.0143029

>  <SCORE.INTRA.POLAR.0>
0

>  <SCORE.INTRA.REPUL>
-0.092687

>  <SCORE.INTRA.REPUL.0>
0.092687

>  <SCORE.INTRA.SOLV>
2.16045

>  <SCORE.INTRA.SOLV.lig_0>
-120.37

>  <SCORE.INTRA.VDW>
-1.38223

>  <SCORE.INTRA.VDW.0>
-1.75542

>  <SCORE.INTRA.norm>
-0.130317

>  <SCORE.RESTR>
2.5434

>  <SCORE.RESTR.CAVITY>
2.5434

>  <SCORE.RESTR.norm>
0.0820452

>  <SCORE.SYSTEM>
0

>  <SCORE.SYSTEM.CONST>
0

>  <SCORE.SYSTEM.DIHEDRAL>
0

>  <SCORE.SYSTEM.SOLV>
0

>  <SCORE.SYSTEM.norm>
0

>  <SCORE.heavy>
31

>  <SCORE.norm>
-0.442267

>  <RMSD>
12.425

$$$$
1byj cryst
 OpenBabel11021811383D
libRbt.so/2013.1/901 2013/11/27
 31 33  0  0  0  0  0  0  0  0999 V2000
    4.7499   -5.4420  -11.7340 C   0  0  1  0  0  0  0  0  0  0  0  0
    5.0230   -4.8352  -10.4304 O   0  0  0  0  0  0  0  0  0  0  0  0
    4.3413   -3.5938  -10.0799 C   0  0  2  0  0  0  0  0  0  0  0  0
    2.9080   -3.8095   -9.8906 O   0  0  0  0  0  0  0  0  0  0  0  0
    4.6053   -2.5302  -11.1887 C   0  0  2  0  0  0  0  0  0  0  0  0
    3.9518   -1.2342  -10.9198 N   0  3  0  0  0  0  0  0  0  0  0  0
    4.1653   -3.0809  -12.5697 C   0  0  0  0  0  0  0  0  0  0  0  0
    4.8734   -4.4069  -12.8859 C   0  0  0  0  0  0  0  0  0  0  0  0
    5.7403   -6.5941  -11.9787 C   0  0  0  0  0  0  0  0  0  0  0  0
    5.8226   -7.5522  -10.8685 N   0  3  0  0  0  0  0  0  0  0  0  0
    2.2696   -5.6024   -8.3257 C   0  0  1  0  0  0  0  0  0  0  0  0
    1.6322   -5.9316   -6.9539 C   0  0  0  0  0  0  0  0  0  0  0  0
    0.2156   -5.3055   -6.8484 C   0  0  1  0  0  0  0  0  0  0  0  0
   -0.4103   -5.6917   -5.5694 N   0  3  0  0  0  0  0  0  0  0  0  0
    0.2960   -3.7601   -7.0124 C   0  0  1  0  0  0  0  0  0  0  0  0
    1.0196   -3.3616   -8.3231 C   0  0  1  0  0  0  0  0  0  0  0  0
    1.1846   -1.9519   -8.2829 O   0  0  0  0  0  0  0  0  0  0  0  0
    2.4028   -4.0591   -8.5414 C   0  0  2  0  0  0  0  0  0  0  0  0
    3.5686   -6.2855   -8.4568 N   0  3  0  0  0  0  0  0  0  0  0  0
   -1.2004   -1.5812   -4.4703 C   0  0  0  0  0  0  0  0  0  0  0  0
   -2.5894   -0.8972   -4.4946 C   0  0  2  0  0  0  0  0  0  0  0  0
   -3.3130   -1.3830   -3.3647 O   0  0  0  0  0  0  0  0  0  0  0  0
   -3.3303   -1.2623   -5.8359 C   0  0  1  0  0  0  0  0  0  0  0  0
   -3.3027   -2.7970   -6.1491 C   0  0  2  0  0  0  0  0  0  0  0  0
   -1.9115   -3.4457   -5.9362 C   0  0  1  0  0  0  0  0  0  0  0  0
   -1.0388   -3.1804   -7.0657 O   0  0  0  0  0  0  0  0  0  0  0  0
   -1.3199   -3.0138   -4.6783 O   0  0  0  0  0  0  0  0  0  0  0  0
   -3.7366   -3.0653   -7.4799 O   0  0  0  0  0  0  0  0  0  0  0  0
   -4.7382   -0.7582   -5.7895 N   0  3  0  0  0  0  0  0  0  0  0  0
   -5.4397   -0.6081   -7.0807 C   0  0  0  0  0  0  0  0  0  0  0  0
   -2.3945    0.6262   -4.2960 C   0  0  0  0  0  0  0  0  0  0  0  0
  1  8  1  0  0  0  0
  1  9  1  6  0  0  0
  1  2  1  0  0  0  0
  2  3  1  0  0  0  0
  3  5  1  0  0  0  0
  3  4  1  6  0  0  0
  5  7  1  0  0  0  0
  5  6  1  1  0  0  0
  7  8  1  0  0  0  0
  9 10  1  0  0  0  0
 11 12  1  0  0  0  0
 11 18  1  0  0  0  0
 11 19  1  1  0  0  0
 12 13  1  0  0  0  0
 13 15  1  0  0  0  0
 13 14  1  1  0  0  0
 15 16  1  0  0  0  0
 15 26  1  6  0  0  0
 16 18  1  0  0  0  0
 16 17  1  1  0  0  0
 18  4  1  6  0  0  0
 20 21  1  0  0  0  0
 20 27  1  0  0  0  0
 21 31  1  1  0  0  0
 21 23  1  0  0  0  0
 21 22  1  0  0  0  0
 23 24  1  0  0  0  0
 23 29  1  1  0  0  0
 24 25  1  0  0  0  0
 24 28  1  6  0  0  0
 25 27  1  0  0  0  0
 25 26  1  6  0  0  0
 29 30  1  0  0  0  0
M  CHG  5   6   1  10   1  14   1  19   1  29   1
M  END
>  <CHROM.1>
50.61590351,94.36951838,-96.22978430,179.89685400,55.62770657,-38.05556110
-6.87920299,57.20602389,68.18740334,-58.29069842,-78.38094677,50.05591927
-178.61338365,0.76256341,-3.43542652,-7.96322608,0.01509262,0.69800140,-0.55077256

>  <Name>
1byj cryst

>  <RI>
0

>  <Rbt.Current_Directory>
/home/itssahil/PROJECTS/Mol_Feturizer/New_Systems/rnas/1byj

>  <Rbt.Executable>
rbdock ($Id: //depot/dev/client3/rdock/2013.1/src/exe/rbdock.cxx#4 $)

>  <Rbt.Library>
libRbt.so (2013.1, Build901 2013/11/27)

>  <Rbt.Parameter_File>
/export/apps/rDock/src/rDock_2013.1_src/data/scripts/dock_solv.prm

>  <Rbt.Receptor>
prm/blind_docking_80.prm

>  <SCORE>
-23.9023

>  <SCORE.INTER>
-21.5731

>  <SCORE.INTER.CONST>
1

>  <SCORE.INTER.POLAR>
-3.67082

>  <SCORE.INTER.ROT>
6

>  <SCORE.INTER.SOLV>
30.7665

>  <SCORE.INTER.VDW>
-20.0015

>  <SCORE.INTER.norm>
-0.695906

>  <SCORE.INTRA>
-4.4617

>  <SCORE.INTRA.DIHEDRAL>
-2.26145

>  <SCORE.INTRA.DIHEDRAL.0>
18.4149

>  <SCORE.INTRA.POLAR>
-2.06594

>  <SCORE.INTRA.POLAR.0>
0

>  <SCORE.INTRA.REPUL>
-0.092687

>  <SCORE.INTRA.REPUL.0>
0.092687

>  <SCORE.INTRA.SOLV>
4.8917

>  <SCORE.INTRA.SOLV.lig_0>
-120.37

>  <SCORE.INTRA.VDW>
1.7108

>  <SCORE.INTRA.VDW.0>
-1.75542

>  <SCORE.INTRA.norm>
-0.143926

>  <SCORE.RESTR>
2.13248

>  <SCORE.RESTR.CAVITY>
2.13248

>  <SCORE.RESTR.norm>
0.0687897

>  <SCORE.SYSTEM>
0

>  <SCORE.SYSTEM.CONST>
0

>  <SCORE.SYSTEM.DIHEDRAL>
0

>  <SCORE.SYSTEM.SOLV>
0

>  <SCORE.SYSTEM.norm>
0

>  <SCORE.heavy>
31

>  <SCORE.norm>
-0.771042

>  <RMSD>
12.425

$$$$
1byj cryst
 OpenBabel11021811383D
libRbt.so/2013.1/901 2013/11/27
 31 33  0  0  0  0  0  0  0  0999 V2000
    1.1972   -1.7619   -7.5014 C   0  0  1  0  0  0  0  0  0  0  0  0
    0.0713   -2.6944   -7.5699 O   0  0  0  0  0  0  0  0  0  0  0  0
    0.1323   -3.9240   -6.7869 C   0  0  2  0  0  0  0  0  0  0  0  0
    0.0593   -3.6456   -5.3537 O   0  0  0  0  0  0  0  0  0  0  0  0
    1.4397   -4.6959   -7.1409 C   0  0  2  0  0  0  0  0  0  0  0  0
    1.5899   -5.9601   -6.3937 N   0  3  0  0  0  0  0  0  0  0  0  0
    2.6735   -3.7846   -6.9146 C   0  0  0  0  0  0  0  0  0  0  0  0
    2.5547   -2.4842   -7.7234 C   0  0  0  0  0  0  0  0  0  0  0  0
    1.0223   -0.6702   -8.5717 C   0  0  0  0  0  0  0  0  0  0  0  0
    1.8648    0.5134   -8.3558 N   0  3  0  0  0  0  0  0  0  0  0  0
   -0.5788   -2.3754   -3.3412 C   0  0  1  0  0  0  0  0  0  0  0  0
   -1.4438   -1.2193   -2.7831 C   0  0  0  0  0  0  0  0  0  0  0  0
   -2.9374   -1.4327   -3.1483 C   0  0  1  0  0  0  0  0  0  0  0  0
   -3.7594   -0.3665   -2.5447 N   0  3  0  0  0  0  0  0  0  0  0  0
   -3.1107   -1.4952   -4.6935 C   0  0  1  0  0  0  0  0  0  0  0  0
   -2.1904   -2.5675   -5.3286 C   0  0  1  0  0  0  0  0  0  0  0  0
   -2.3048   -2.4183   -6.7360 O   0  0  0  0  0  0  0  0  0  0  0  0
   -0.6892   -2.4751   -4.8981 C   0  0  2  0  0  0  0  0  0  0  0  0
    0.8191   -2.2184   -2.9025 N   0  3  0  0  0  0  0  0  0  0  0  0
   -7.1942   -2.8909   -4.1132 C   0  0  0  0  0  0  0  0  0  0  0  0
   -7.8090   -3.5928   -5.3489 C   0  0  2  0  0  0  0  0  0  0  0  0
   -7.9982   -4.9631   -4.9988 O   0  0  0  0  0  0  0  0  0  0  0  0
   -6.8265   -3.4559   -6.5726 C   0  0  1  0  0  0  0  0  0  0  0  0
   -5.3504   -3.8395   -6.2149 C   0  0  2  0  0  0  0  0  0  0  0  0
   -4.8630   -3.2350   -4.8737 C   0  0  1  0  0  0  0  0  0  0  0  0
   -4.4808   -1.8445   -5.0418 O   0  0  0  0  0  0  0  0  0  0  0  0
   -5.8641   -3.4018   -3.8303 O   0  0  0  0  0  0  0  0  0  0  0  0
   -4.4470   -3.4553   -7.2480 O   0  0  0  0  0  0  0  0  0  0  0  0
   -7.3244   -4.2824   -7.7160 N   0  3  0  0  0  0  0  0  0  0  0  0
   -6.7651   -3.9868   -9.0508 C   0  0  0  0  0  0  0  0  0  0  0  0
   -9.2096   -2.9883   -5.6156 C   0  0  0  0  0  0  0  0  0  0  0  0
  1  8  1  0  0  0  0
  1  9  1  6  0  0  0
  1  2  1  0  0  0  0
  2  3  1  0  0  0  0
  3  5  1  0  0  0  0
  3  4  1  1  0  0  0
  5  7  1  0  0  0  0
  5  6  1  1  0  0  0
  7  8  1  0  0  0  0
  9 10  1  0  0  0  0
 11 12  1  0  0  0  0
 11 18  1  0  0  0  0
 11 19  1  6  0  0  0
 12 13  1  0  0  0  0
 13 15  1  0  0  0  0
 13 14  1  6  0  0  0
 15 16  1  0  0  0  0
 15 26  1  1  0  0  0
 16 18  1  0  0  0  0
 16 17  1  6  0  0  0
 18  4  1  1  0  0  0
 20 21  1  0  0  0  0
 20 27  1  0  0  0  0
 21 31  1  6  0  0  0
 21 23  1  0  0  0  0
 21 22  1  0  0  0  0
 23 24  1  0  0  0  0
 23 29  1  6  0  0  0
 24 25  1  0  0  0  0
 24 28  1  6  0  0  0
 25 27  1  0  0  0  0
 25 26  1  6  0  0  0
 29 30  1  0  0  0  0
M  CHG  5   6   1  10   1  14   1  19   1  29   1
M  END
>  <CHROM.1>
163.53588441,30.21372965,-178.26962761,-162.48847352,-54.00765604,-175.50265307
-81.58584584,-75.77184014,-166.52570184,-53.04645202,-75.89434021,62.46744087
-121.51907428,-2.63622139,-2.82729396,-5.79100266,0.06986533,-0.14415809
-1.96498452

>  <Name>
1byj cryst

>  <RI>
0

>  <Rbt.Current_Directory>
/home/itssahil/PROJECTS/Mol_Feturizer/New_Systems/rnas/1byj

>  <Rbt.Executable>
rbdock ($Id: //depot/dev/client3/rdock/2013.1/src/exe/rbdock.cxx#4 $)

>  <Rbt.Library>
libRbt.so (2013.1, Build901 2013/11/27)

>  <Rbt.Parameter_File>
/export/apps/rDock/src/rDock_2013.1_src/data/scripts/dock_solv.prm

>  <Rbt.Receptor>
prm/blind_docking_40.prm

>  <SCORE>
-4.01537

>  <SCORE.INTER>
-12.5749

>  <SCORE.INTER.CONST>
1

>  <SCORE.INTER.POLAR>
-3.0324

>  <SCORE.INTER.ROT>
6

>  <SCORE.INTER.SOLV>
27.4951

>  <SCORE.INTER.VDW>
-15.0403

>  <SCORE.INTER.norm>
-0.405643

>  <SCORE.INTRA>
-0.415922

>  <SCORE.INTRA.DIHEDRAL>
-1.60101

>  <SCORE.INTRA.DIHEDRAL.0>
18.4149

>  <SCORE.INTRA.POLAR>
-0.119589

>  <SCORE.INTRA.POLAR.0>
0

>  <SCORE.INTRA.REPUL>
-0.092687

>  <SCORE.INTRA.REPUL.0>
0.092687

>  <SCORE.INTRA.SOLV>
-3.25679

>  <SCORE.INTRA.SOLV.lig_0>
-120.37

>  <SCORE.INTRA.VDW>
2.88301

>  <SCORE.INTRA.VDW.0>
-1.75542

>  <SCORE.INTRA.norm>
-0.0134168

>  <SCORE.RESTR>
8.97549

>  <SCORE.RESTR.CAVITY>
8.97549

>  <SCORE.RESTR.norm>
0.289532

>  <SCORE.SYSTEM>
0

>  <SCORE.SYSTEM.CONST>
0

>  <SCORE.SYSTEM.DIHEDRAL>
0

>  <SCORE.SYSTEM.SOLV>
0

>  <SCORE.SYSTEM.norm>
0

>  <SCORE.heavy>
31

>  <SCORE.norm>
-0.129528

>  <RMSD>
12.430

$$$$
1byj cryst
 OpenBabel11021811383D
libRbt.so/2013.1/901 2013/11/27
 31 33  0  0  0  0  0  0  0  0999 V2000
    3.7977   -7.0901  -10.4552 C   0  0  1  0  0  0  0  0  0  0  0  0
    4.2235   -5.9663   -9.6198 O   0  0  0  0  0  0  0  0  0  0  0  0
    5.1380   -4.9805  -10.1861 C   0  0  2  0  0  0  0  0  0  0  0  0
    4.4916   -4.1986  -11.2384 O   0  0  0  0  0  0  0  0  0  0  0  0
    6.4069   -5.7063  -10.7278 C   0  0  2  0  0  0  0  0  0  0  0  0
    7.3951   -4.7853  -11.3230 N   0  3  0  0  0  0  0  0  0  0  0  0
    5.9996   -6.7971  -11.7517 C   0  0  0  0  0  0  0  0  0  0  0  0
    5.0070   -7.7923  -11.1322 C   0  0  0  0  0  0  0  0  0  0  0  0
    3.0376   -8.1106   -9.5900 C   0  0  0  0  0  0  0  0  0  0  0  0
    2.4722   -9.2313  -10.3526 N   0  3  0  0  0  0  0  0  0  0  0  0
    4.2417   -1.7597  -10.9932 C   0  0  1  0  0  0  0  0  0  0  0  0
    3.3249   -0.6143  -10.4991 C   0  0  0  0  0  0  0  0  0  0  0  0
    2.9477   -0.8247   -9.0081 C   0  0  1  0  0  0  0  0  0  0  0  0
    2.1391    0.3127   -8.5292 N   0  3  0  0  0  0  0  0  0  0  0  0
    2.2073   -2.1812   -8.8258 C   0  0  1  0  0  0  0  0  0  0  0  0
    3.0307   -3.3627   -9.3970 C   0  0  1  0  0  0  0  0  0  0  0  0
    2.1947   -4.5086   -9.3322 O   0  0  0  0  0  0  0  0  0  0  0  0
    3.5427   -3.1525  -10.8602 C   0  0  2  0  0  0  0  0  0  0  0  0
    4.6774   -1.4979  -12.3763 N   0  3  0  0  0  0  0  0  0  0  0  0
   -0.9150   -3.4056   -7.5516 C   0  0  0  0  0  0  0  0  0  0  0  0
   -1.2684   -3.8585   -6.1136 C   0  0  2  0  0  0  0  0  0  0  0  0
   -2.3438   -3.0327   -5.6690 O   0  0  0  0  0  0  0  0  0  0  0  0
   -0.0074   -3.6874   -5.1852 C   0  0  1  0  0  0  0  0  0  0  0  0
    0.6680   -2.2811   -5.3277 C   0  0  2  0  0  0  0  0  0  0  0  0
    0.8324   -1.8211   -6.7985 C   0  0  1  0  0  0  0  0  0  0  0  0
    1.9834   -2.4571   -7.4136 O   0  0  0  0  0  0  0  0  0  0  0  0
   -0.3876   -2.0522   -7.5582 O   0  0  0  0  0  0  0  0  0  0  0  0
    1.9422   -2.2477   -4.6901 O   0  0  0  0  0  0  0  0  0  0  0  0
   -0.3878   -3.9485   -3.7621 N   0  3  0  0  0  0  0  0  0  0  0  0
    0.3207   -3.1712   -2.7249 C   0  0  0  0  0  0  0  0  0  0  0  0
   -1.7973   -5.3129   -6.1687 C   0  0  0  0  0  0  0  0  0  0  0  0
  1  8  1  0  0  0  0
  1  9  1  1  0  0  0
  1  2  1  0  0  0  0
  2  3  1  0  0  0  0
  3  5  1  0  0  0  0
  3  4  1  6  0  0  0
  5  7  1  0  0  0  0
  5  6  1  6  0  0  0
  7  8  1  0  0  0  0
  9 10  1  0  0  0  0
 11 12  1  0  0  0  0
 11 18  1  0  0  0  0
 11 19  1  6  0  0  0
 12 13  1  0  0  0  0
 13 15  1  0  0  0  0
 13 14  1  6  0  0  0
 15 16  1  0  0  0  0
 15 26  1  1  0  0  0
 16 18  1  0  0  0  0
 16 17  1  6  0  0  0
 18  4  1  1  0  0  0
 20 21  1  0  0  0  0
 20 27  1  0  0  0  0
 21 31  1  6  0  0  0
 21 23  1  0  0  0  0
 21 22  1  0  0  0  0
 23 24  1  0  0  0  0
 23 29  1  1  0  0  0
 24 25  1  0  0  0  0
 24 28  1  6  0  0  0
 25 27  1  0  0  0  0
 25 26  1  6  0  0  0
 29 30  1  0  0  0  0
M  CHG  5   6   1  10   1  14   1  19   1  29   1
M  END
>  <CHROM.1>
175.43004182,75.82668424,102.75472311,-45.55724014,-49.70845767,132.87202961
-59.23936520,82.21360789,-54.41249462,-54.06887318,-25.70392637,51.76054478
176.15292924,2.40553556,-3.85341611,-8.54187315,0.31338164,-0.80818420,-3.13415962

>  <Name>
1byj cryst

>  <RI>
0

>  <Rbt.Current_Directory>
/home/itssahil/PROJECTS/Mol_Feturizer/New_Systems/rnas/1byj

>  <Rbt.Executable>
rbdock ($Id: //depot/dev/client3/rdock/2013.1/src/exe/rbdock.cxx#4 $)

>  <Rbt.Library>
libRbt.so (2013.1, Build901 2013/11/27)

>  <Rbt.Parameter_File>
/export/apps/rDock/src/rDock_2013.1_src/data/scripts/dock_solv.prm

>  <Rbt.Receptor>
prm/blind_docking_80.prm

>  <SCORE>
-7.22439

>  <SCORE.INTER>
-12.4478

>  <SCORE.INTER.CONST>
1

>  <SCORE.INTER.POLAR>
-6.22639

>  <SCORE.INTER.ROT>
6

>  <SCORE.INTER.SOLV>
33.753

>  <SCORE.INTER.VDW>
-6.3949

>  <SCORE.INTER.norm>
-0.401543

>  <SCORE.INTRA>
2.44761

>  <SCORE.INTRA.DIHEDRAL>
-2.04059

>  <SCORE.INTRA.DIHEDRAL.0>
18.4149

>  <SCORE.INTRA.POLAR>
-0.0534779

>  <SCORE.INTRA.POLAR.0>
0

>  <SCORE.INTRA.REPUL>
-0.092687

>  <SCORE.INTRA.REPUL.0>
0.092687

>  <SCORE.INTRA.SOLV>
-2.35922

>  <SCORE.INTRA.SOLV.lig_0>
-120.37

>  <SCORE.INTRA.VDW>
5.29277

>  <SCORE.INTRA.VDW.0>
-1.75542

>  <SCORE.INTRA.norm>
0.0789552

>  <SCORE.RESTR>
2.77583

>  <SCORE.RESTR.CAVITY>
2.77583

>  <SCORE.RESTR.norm>
0.0895428

>  <SCORE.SYSTEM>
0

>  <SCORE.SYSTEM.CONST>
0

>  <SCORE.SYSTEM.DIHEDRAL>
0

>  <SCORE.SYSTEM.SOLV>
0

>  <SCORE.SYSTEM.norm>
0

>  <SCORE.heavy>
31

>  <SCORE.norm>
-0.233045

>  <RMSD>
12.441

$$$$
1byj cryst
 OpenBabel11021811383D
libRbt.so/2013.1/901 2013/11/27
 31 33  0  0  0  0  0  0  0  0999 V2000
    3.3448   -2.8927   -9.5266 C   0  0  1  0  0  0  0  0  0  0  0  0
    3.2444   -2.7225   -8.0764 O   0  0  0  0  0  0  0  0  0  0  0  0
    2.4140   -1.6423   -7.5545 C   0  0  2  0  0  0  0  0  0  0  0  0
    0.9966   -1.8886   -7.8138 O   0  0  0  0  0  0  0  0  0  0  0  0
    2.8712   -0.2911   -8.1834 C   0  0  2  0  0  0  0  0  0  0  0  0
    2.0845    0.8659   -7.7127 N   0  3  0  0  0  0  0  0  0  0  0  0
    2.8257   -0.3819   -9.7305 C   0  0  0  0  0  0  0  0  0  0  0  0
    3.6788   -1.5534  -10.2397 C   0  0  0  0  0  0  0  0  0  0  0  0
    4.4412   -3.9244   -9.8451 C   0  0  0  0  0  0  0  0  0  0  0  0
    4.0428   -5.3139   -9.5843 N   0  3  0  0  0  0  0  0  0  0  0  0
    1.0856   -3.5711   -6.0160 C   0  0  1  0  0  0  0  0  0  0  0  0
    0.2634   -4.3783   -4.9821 C   0  0  0  0  0  0  0  0  0  0  0  0
   -0.8786   -5.1593   -5.6860 C   0  0  1  0  0  0  0  0  0  0  0  0
   -1.6044   -5.9840   -4.7011 N   0  3  0  0  0  0  0  0  0  0  0  0
   -1.8263   -4.1741   -6.4296 C   0  0  1  0  0  0  0  0  0  0  0  0
   -1.0469   -3.2612   -7.4090 C   0  0  1  0  0  0  0  0  0  0  0  0
   -1.9745   -2.3025   -7.8953 O   0  0  0  0  0  0  0  0  0  0  0  0
    0.1921   -2.5409   -6.7817 C   0  0  2  0  0  0  0  0  0  0  0  0
    2.2278   -2.9165   -5.3540 N   0  3  0  0  0  0  0  0  0  0  0  0
   -4.1531   -2.7861   -5.4748 C   0  0  0  0  0  0  0  0  0  0  0  0
   -5.2530   -2.1585   -6.3658 C   0  0  2  0  0  0  0  0  0  0  0  0
   -6.5023   -2.4060   -5.7223 O   0  0  0  0  0  0  0  0  0  0  0  0
   -5.2145   -2.8238   -7.7932 C   0  0  1  0  0  0  0  0  0  0  0  0
   -5.1722   -4.3887   -7.7352 C   0  0  2  0  0  0  0  0  0  0  0  0
   -4.1655   -4.9411   -6.6944 C   0  0  1  0  0  0  0  0  0  0  0  0
   -2.8109   -4.9049   -7.2153 O   0  0  0  0  0  0  0  0  0  0  0  0
   -4.2807   -4.2323   -5.4281 O   0  0  0  0  0  0  0  0  0  0  0  0
   -4.8699   -4.9496   -9.0101 O   0  0  0  0  0  0  0  0  0  0  0  0
   -6.3844   -2.3570   -8.6006 N   0  3  0  0  0  0  0  0  0  0  0  0
   -6.1688   -1.1911   -9.4816 C   0  0  0  0  0  0  0  0  0  0  0  0
   -5.0480   -0.6239   -6.3981 C   0  0  0  0  0  0  0  0  0  0  0  0
  1  8  1  0  0  0  0
  1  9  1  1  0  0  0
  1  2  1  0  0  0  0
  2  3  1  0  0  0  0
  3  5  1  0  0  0  0
  3  4  1  6  0  0  0
  5  7  1  0  0  0  0
  5  6  1  1  0  0  0
  7  8  1  0  0  0  0
  9 10  1  0  0  0  0
 11 12  1  0  0  0  0
 11 18  1  0  0  0  0
 11 19  1  1  0  0  0
 12 13  1  0  0  0  0
 13 15  1  0  0  0  0
 13 14  1  1  0  0  0
 15 16  1  0  0  0  0
 15 26  1  6  0  0  0
 16 18  1  0  0  0  0
 16 17  1  1  0  0  0
 18  4  1  6  0  0  0
 20 21  1  0  0  0  0
 20 27  1  0  0  0  0
 21 31  1  6  0  0  0
 21 23  1  0  0  0  0
 21 22  1  0  0  0  0
 23 24  1  0  0  0  0
 23 29  1  6  0  0  0
 24 25  1  0  0  0  0
 24 28  1  6  0  0  0
 25 27  1  0  0  0  0
 25 26  1  6  0  0  0
 29 30  1  0  0  0  0
M  CHG  5   6   1  10   1  14   1  19   1  29   1
M  END
>  <CHROM.1>
75.31203100,94.19159578,-33.91737571,162.69852471,-171.08064230,20.79027465
-174.88320431,105.45233228,-163.76403895,58.90457954,-145.02104416,63.67649989
123.64990797,-1.10495659,-2.96870441,-7.39702579,0.17093579,0.09988573,-0.57236756

>  <Name>
1byj cryst

>  <RI>
0

>  <Rbt.Current_Directory>
/home/itssahil/PROJECTS/Mol_Feturizer/New_Systems/rnas/1byj

>  <Rbt.Executable>
rbdock ($Id: //depot/dev/client3/rdock/2013.1/src/exe/rbdock.cxx#4 $)

>  <Rbt.Library>
libRbt.so (2013.1, Build901 2013/11/27)

>  <Rbt.Parameter_File>
/export/apps/rDock/src/rDock_2013.1_src/data/scripts/dock_solv.prm

>  <Rbt.Receptor>
prm/blind_docking_40.prm

>  <SCORE>
-1.13096

>  <SCORE.INTER>
-11.7233

>  <SCORE.INTER.CONST>
1

>  <SCORE.INTER.POLAR>
-3.35235

>  <SCORE.INTER.ROT>
6

>  <SCORE.INTER.SOLV>
30.8879

>  <SCORE.INTER.VDW>
-14.537

>  <SCORE.INTER.norm>
-0.378172

>  <SCORE.INTRA>
7.37733

>  <SCORE.INTRA.DIHEDRAL>
10.1219

>  <SCORE.INTRA.DIHEDRAL.0>
18.4149

>  <SCORE.INTRA.POLAR>
-0.848575

>  <SCORE.INTRA.POLAR.0>
0

>  <SCORE.INTRA.REPUL>
-0.092687

>  <SCORE.INTRA.REPUL.0>
0.092687

>  <SCORE.INTRA.SOLV>
0.407741

>  <SCORE.INTRA.SOLV.lig_0>
-120.37

>  <SCORE.INTRA.VDW>
5.46111

>  <SCORE.INTRA.VDW.0>
-1.75542

>  <SCORE.INTRA.norm>
0.237979

>  <SCORE.RESTR>
3.21503

>  <SCORE.RESTR.CAVITY>
3.21503

>  <SCORE.RESTR.norm>
0.103711

>  <SCORE.SYSTEM>
0

>  <SCORE.SYSTEM.CONST>
0

>  <SCORE.SYSTEM.DIHEDRAL>
0

>  <SCORE.SYSTEM.SOLV>
0

>  <SCORE.SYSTEM.norm>
0

>  <SCORE.heavy>
31

>  <SCORE.norm>
-0.0364825

>  <RMSD>
12.446

$$$$
1byj cryst
 OpenBabel11021811383D
libRbt.so/2013.1/901 2013/11/27
 31 33  0  0  0  0  0  0  0  0999 V2000
    0.5821   -1.9686   -8.3107 C   0  0  1  0  0  0  0  0  0  0  0  0
    1.4607   -2.3986   -7.2220 O   0  0  0  0  0  0  0  0  0  0  0  0
    1.6321   -1.5177   -6.0717 C   0  0  2  0  0  0  0  0  0  0  0  0
    0.4004   -1.4171   -5.2910 O   0  0  0  0  0  0  0  0  0  0  0  0
    2.0994   -0.1139   -6.5628 C   0  0  2  0  0  0  0  0  0  0  0  0
    2.3002    0.8505   -5.4635 N   0  3  0  0  0  0  0  0  0  0  0  0
    1.0927    0.4496   -7.5987 C   0  0  0  0  0  0  0  0  0  0  0  0
    0.9086   -0.5220   -8.7741 C   0  0  0  0  0  0  0  0  0  0  0  0
    0.7367   -2.9302   -9.5022 C   0  0  0  0  0  0  0  0  0  0  0  0
    2.0790   -2.9259  -10.0983 N   0  3  0  0  0  0  0  0  0  0  0  0
    0.4062   -3.8784   -5.4023 C   0  0  1  0  0  0  0  0  0  0  0  0
   -0.4651   -5.1580   -5.3966 C   0  0  0  0  0  0  0  0  0  0  0  0
   -1.5403   -5.0885   -6.5141 C   0  0  1  0  0  0  0  0  0  0  0  0
   -2.3119   -6.3457   -6.5477 N   0  3  0  0  0  0  0  0  0  0  0  0
   -2.4578   -3.8494   -6.3027 C   0  0  1  0  0  0  0  0  0  0  0  0
   -1.6350   -2.5411   -6.1953 C   0  0  1  0  0  0  0  0  0  0  0  0
   -2.5489   -1.5154   -5.8364 O   0  0  0  0  0  0  0  0  0  0  0  0
   -0.4567   -2.5953   -5.1677 C   0  0  2  0  0  0  0  0  0  0  0  0
    1.4871   -3.9982   -4.4080 N   0  3  0  0  0  0  0  0  0  0  0  0
   -5.2520   -1.7456   -6.0115 C   0  0  0  0  0  0  0  0  0  0  0  0
   -6.2422   -1.2658   -7.1009 C   0  0  2  0  0  0  0  0  0  0  0  0
   -7.5471   -1.6633   -6.6823 O   0  0  0  0  0  0  0  0  0  0  0  0
   -5.8676   -1.9298   -8.4793 C   0  0  1  0  0  0  0  0  0  0  0  0
   -5.6461   -3.4768   -8.3703 C   0  0  2  0  0  0  0  0  0  0  0  0
   -4.7830   -3.8927   -7.1521 C   0  0  1  0  0  0  0  0  0  0  0  0
   -3.3715   -3.6909   -7.4255 O   0  0  0  0  0  0  0  0  0  0  0  0
   -5.2089   -3.1961   -5.9471 O   0  0  0  0  0  0  0  0  0  0  0  0
   -5.0540   -4.0034   -9.5549 O   0  0  0  0  0  0  0  0  0  0  0  0
   -6.9215   -1.6177   -9.4942 N   0  3  0  0  0  0  0  0  0  0  0  0
   -8.0972   -2.5109   -9.5368 C   0  0  0  0  0  0  0  0  0  0  0  0
   -6.2231    0.2822   -7.1399 C   0  0  0  0  0  0  0  0  0  0  0  0
  1  8  1  0  0  0  0
  1  9  1  6  0  0  0
  1  2  1  0  0  0  0
  2  3  1  0  0  0  0
  3  5  1  0  0  0  0
  3  4  1  6  0  0  0
  5  7  1  0  0  0  0
  5  6  1  1  0  0  0
  7  8  1  0  0  0  0
  9 10  1  0  0  0  0
 11 12  1  0  0  0  0
 11 18  1  0  0  0  0
 11 19  1  1  0  0  0
 12 13  1  0  0  0  0
 13 15  1  0  0  0  0
 13 14  1  1  0  0  0
 15 16  1  0  0  0  0
 15 26  1  6  0  0  0
 16 18  1  0  0  0  0
 16 17  1  1  0  0  0
 18  4  1  6  0  0  0
 20 21  1  0  0  0  0
 20 27  1  0  0  0  0
 21 31  1  6  0  0  0
 21 23  1  0  0  0  0
 21 22  1  0  0  0  0
 23 24  1  0  0  0  0
 23 29  1  6  0  0  0
 24 25  1  0  0  0  0
 24 28  1  6  0  0  0
 25 27  1  0  0  0  0
 25 26  1  6  0  0  0
 29 30  1  0  0  0  0
M  CHG  5   6   1  10   1  14   1  19   1  29   1
M  END
>  <CHROM.1>
-63.86503065,35.39634835,23.58847246,-179.69040069,167.06680610,142.21988924
-61.81937227,113.23470937,65.29166926,173.89430949,35.36291690,175.28552867
171.07878812,-2.14929710,-2.46437263,-7.08747445,0.01664517,-0.16898951,-0.27358750

>  <Name>
1byj cryst

>  <RI>
0

>  <Rbt.Current_Directory>
/home/itssahil/PROJECTS/Mol_Feturizer/New_Systems/rnas/1byj

>  <Rbt.Executable>
rbdock ($Id: //depot/dev/client3/rdock/2013.1/src/exe/rbdock.cxx#4 $)

>  <Rbt.Library>
libRbt.so (2013.1, Build901 2013/11/27)

>  <Rbt.Parameter_File>
/export/apps/rDock/src/rDock_2013.1_src/data/scripts/dock_solv.prm

>  <Rbt.Receptor>
prm/blind_docking_20.prm

>  <SCORE>
-13.6186

>  <SCORE.INTER>
-23.1263

>  <SCORE.INTER.CONST>
1

>  <SCORE.INTER.POLAR>
-3.21154

>  <SCORE.INTER.ROT>
6

>  <SCORE.INTER.SOLV>
22.3268

>  <SCORE.INTER.VDW>
-19.7547

>  <SCORE.INTER.norm>
-0.746009

>  <SCORE.INTRA>
3.92791

>  <SCORE.INTRA.DIHEDRAL>
1.3872

>  <SCORE.INTRA.DIHEDRAL.0>
18.4149

>  <SCORE.INTRA.POLAR>
0

>  <SCORE.INTRA.POLAR.0>
0

>  <SCORE.INTRA.REPUL>
-0.092687

>  <SCORE.INTRA.REPUL.0>
0.092687

>  <SCORE.INTRA.SOLV>
-1.86054

>  <SCORE.INTRA.SOLV.lig_0>
-120.37

>  <SCORE.INTRA.VDW>
4.62802

>  <SCORE.INTRA.VDW.0>
-1.75542

>  <SCORE.INTRA.norm>
0.126707

>  <SCORE.RESTR>
5.5798

>  <SCORE.RESTR.CAVITY>
5.5798

>  <SCORE.RESTR.norm>
0.179993

>  <SCORE.SYSTEM>
0

>  <SCORE.SYSTEM.CONST>
0

>  <SCORE.SYSTEM.DIHEDRAL>
0

>  <SCORE.SYSTEM.SOLV>
0

>  <SCORE.SYSTEM.norm>
0

>  <SCORE.heavy>
31

>  <SCORE.norm>
-0.439309

>  <RMSD>
12.489

$$$$
1byj cryst
 OpenBabel11021811383D
libRbt.so/2013.1/901 2013/11/27
 31 33  0  0  0  0  0  0  0  0999 V2000
    0.3756   -1.1031   -8.3685 C   0  0  1  0  0  0  0  0  0  0  0  0
    1.2991   -2.1017   -7.8281 O   0  0  0  0  0  0  0  0  0  0  0  0
    1.9561   -1.8302   -6.5540 C   0  0  2  0  0  0  0  0  0  0  0  0
    0.9990   -1.8417   -5.4493 O   0  0  0  0  0  0  0  0  0  0  0  0
    2.6972   -0.4612   -6.6379 C   0  0  2  0  0  0  0  0  0  0  0  0
    3.3953   -0.0995   -5.3885 N   0  3  0  0  0  0  0  0  0  0  0  0
    1.7039    0.6575   -7.0452 C   0  0  0  0  0  0  0  0  0  0  0  0
    1.0035    0.3181   -8.3694 C   0  0  0  0  0  0  0  0  0  0  0  0
   -0.0091   -1.4888   -9.8077 C   0  0  0  0  0  0  0  0  0  0  0  0
   -1.0040   -2.5664   -9.8878 N   0  3  0  0  0  0  0  0  0  0  0  0
    0.8004   -4.2460   -5.9499 C   0  0  1  0  0  0  0  0  0  0  0  0
   -0.1252   -5.4861   -5.9065 C   0  0  0  0  0  0  0  0  0  0  0  0
   -1.4548   -5.1986   -6.6543 C   0  0  1  0  0  0  0  0  0  0  0  0
   -2.2936   -6.4122   -6.6724 N   0  3  0  0  0  0  0  0  0  0  0  0
   -2.1909   -3.9934   -6.0006 C   0  0  1  0  0  0  0  0  0  0  0  0
   -1.2793   -2.7434   -5.9188 C   0  0  1  0  0  0  0  0  0  0  0  0
   -1.9873   -1.7739   -5.1605 O   0  0  0  0  0  0  0  0  0  0  0  0
    0.1260   -3.0027   -5.2823 C   0  0  2  0  0  0  0  0  0  0  0  0
    2.0985   -4.5618   -5.3283 N   0  3  0  0  0  0  0  0  0  0  0  0
   -4.7867   -0.9385   -6.4857 C   0  0  0  0  0  0  0  0  0  0  0  0
   -6.1104   -1.0864   -7.2753 C   0  0  2  0  0  0  0  0  0  0  0  0
   -7.1748   -0.9091   -6.3416 O   0  0  0  0  0  0  0  0  0  0  0  0
   -6.1718   -2.5167   -7.9326 C   0  0  1  0  0  0  0  0  0  0  0  0
   -5.8284   -3.6658   -6.9248 C   0  0  2  0  0  0  0  0  0  0  0  0
   -4.5858   -3.3673   -6.0481 C   0  0  1  0  0  0  0  0  0  0  0  0
   -3.3605   -3.6211   -6.7842 O   0  0  0  0  0  0  0  0  0  0  0  0
   -4.6321   -2.0119   -5.5193 O   0  0  0  0  0  0  0  0  0  0  0  0
   -5.6297   -4.9067   -7.5971 O   0  0  0  0  0  0  0  0  0  0  0  0
   -7.5202   -2.7353   -8.5430 N   0  3  0  0  0  0  0  0  0  0  0  0
   -7.5697   -3.5098   -9.7999 C   0  0  0  0  0  0  0  0  0  0  0  0
   -6.2043    0.0667   -8.3046 C   0  0  0  0  0  0  0  0  0  0  0  0
  1  8  1  0  0  0  0
  1  9  1  6  0  0  0
  1  2  1  0  0  0  0
  2  3  1  0  0  0  0
  3  5  1  0  0  0  0
  3  4  1  1  0  0  0
  5  7  1  0  0  0  0
  5  6  1  1  0  0  0
  7  8  1  0  0  0  0
  9 10  1  0  0  0  0
 11 12  1  0  0  0  0
 11 18  1  0  0  0  0
 11 19  1  1  0  0  0
 12 13  1  0  0  0  0
 13 15  1  0  0  0  0
 13 14  1  1  0  0  0
 15 16  1  0  0  0  0
 15 26  1  6  0  0  0
 16 18  1  0  0  0  0
 16 17  1  1  0  0  0
 18  4  1  6  0  0  0
 20 21  1  0  0  0  0
 20 27  1  0  0  0  0
 21 31  1  6  0  0  0
 21 23  1  0  0  0  0
 21 22  1  0  0  0  0
 23 24  1  0  0  0  0
 23 29  1  1  0  0  0
 24 25  1  0  0  0  0
 24 28  1  6  0  0  0
 25 27  1  0  0  0  0
 25 26  1  6  0  0  0
 29 30  1  0  0  0  0
M  CHG  5   6   1  10   1  14   1  19   1  29   1
M  END
>  <CHROM.1>
77.46735873,52.83026027,24.07024897,-17.95726122,72.91739768,-40.10650764
75.89085007,134.82706861,-139.18668036,-68.40488919,-94.86822731,-67.10054446
-152.30680950,-2.07092157,-2.50805289,-6.95592915,0.05743472,-0.15774534
-0.28725630

>  <Name>
1byj cryst

>  <RI>
0

>  <Rbt.Current_Directory>
/home/itssahil/PROJECTS/Mol_Feturizer/New_Systems/rnas/1byj

>  <Rbt.Executable>
rbdock ($Id: //depot/dev/client3/rdock/2013.1/src/exe/rbdock.cxx#4 $)

>  <Rbt.Library>
libRbt.so (2013.1, Build901 2013/11/27)

>  <Rbt.Parameter_File>
/export/apps/rDock/src/rDock_2013.1_src/data/scripts/dock_solv.prm

>  <Rbt.Receptor>
prm/blind_docking_20.prm

>  <SCORE>
-19.4986

>  <SCORE.INTER>
-29.7297

>  <SCORE.INTER.CONST>
1

>  <SCORE.INTER.POLAR>
-4.22028

>  <SCORE.INTER.ROT>
6

>  <SCORE.INTER.SOLV>
28.5282

>  <SCORE.INTER.VDW>
-22.8616

>  <SCORE.INTER.norm>
-0.959022

>  <SCORE.INTRA>
3.89545

>  <SCORE.INTRA.DIHEDRAL>
10.1191

>  <SCORE.INTRA.DIHEDRAL.0>
18.4149

>  <SCORE.INTRA.POLAR>
-0.0036316

>  <SCORE.INTRA.POLAR.0>
0

>  <SCORE.INTRA.REPUL>
-0.092687

>  <SCORE.INTRA.REPUL.0>
0.092687

>  <SCORE.INTRA.SOLV>
-0.27067

>  <SCORE.INTRA.SOLV.lig_0>
-120.37

>  <SCORE.INTRA.VDW>
-0.553001

>  <SCORE.INTRA.VDW.0>
-1.75542

>  <SCORE.INTRA.norm>
0.12566

>  <SCORE.RESTR>
6.33564

>  <SCORE.RESTR.CAVITY>
6.33564

>  <SCORE.RESTR.norm>
0.204376

>  <SCORE.SYSTEM>
0

>  <SCORE.SYSTEM.CONST>
0

>  <SCORE.SYSTEM.DIHEDRAL>
0

>  <SCORE.SYSTEM.SOLV>
0

>  <SCORE.SYSTEM.norm>
0

>  <SCORE.heavy>
31

>  <SCORE.norm>
-0.628986

>  <RMSD>
12.510

$$$$
1byj cryst
 OpenBabel11021811383D
libRbt.so/2013.1/901 2013/11/27
 31 33  0  0  0  0  0  0  0  0999 V2000
    8.0304   -7.4615  -10.3513 C   0  0  1  0  0  0  0  0  0  0  0  0
    7.6308   -6.4590  -11.3399 O   0  0  0  0  0  0  0  0  0  0  0  0
    6.2138   -6.3132  -11.6553 C   0  0  2  0  0  0  0  0  0  0  0  0
    5.4704   -5.7664  -10.5216 O   0  0  0  0  0  0  0  0  0  0  0  0
    5.6373   -7.6955  -12.0879 C   0  0  2  0  0  0  0  0  0  0  0  0
    4.2018   -7.6471  -12.4282 N   0  3  0  0  0  0  0  0  0  0  0  0
    5.8948   -8.7496  -10.9803 C   0  0  0  0  0  0  0  0  0  0  0  0
    7.3914   -8.8463  -10.6479 C   0  0  0  0  0  0  0  0  0  0  0  0
    9.5631   -7.5990  -10.3537 C   0  0  0  0  0  0  0  0  0  0  0  0
   10.1305   -7.8954  -11.6756 N   0  3  0  0  0  0  0  0  0  0  0  0
    5.4193   -3.4348  -11.3163 C   0  0  1  0  0  0  0  0  0  0  0  0
    4.5589   -2.1568  -11.4672 C   0  0  0  0  0  0  0  0  0  0  0  0
    3.9834   -1.7235  -10.0921 C   0  0  1  0  0  0  0  0  0  0  0  0
    3.2309   -0.4627  -10.2373 N   0  3  0  0  0  0  0  0  0  0  0  0
    3.1036   -2.8593   -9.4942 C   0  0  1  0  0  0  0  0  0  0  0  0
    3.8780   -4.1987   -9.4125 C   0  0  1  0  0  0  0  0  0  0  0  0
    2.9378   -5.1875   -9.0196 O   0  0  0  0  0  0  0  0  0  0  0  0
    4.5832   -4.6253  -10.7421 C   0  0  2  0  0  0  0  0  0  0  0  0
    6.0442   -3.7789  -12.6057 N   0  3  0  0  0  0  0  0  0  0  0  0
    1.5802   -3.5026   -5.4682 C   0  0  0  0  0  0  0  0  0  0  0  0
    0.7943   -2.3034   -4.8835 C   0  0  2  0  0  0  0  0  0  0  0  0
   -0.5631   -2.7215   -4.7467 O   0  0  0  0  0  0  0  0  0  0  0  0
    0.9079   -1.0746   -5.8625 C   0  0  1  0  0  0  0  0  0  0  0  0
    0.6000   -1.4512   -7.3516 C   0  0  2  0  0  0  0  0  0  0  0  0
    1.2892   -2.7606   -7.8125 C   0  0  1  0  0  0  0  0  0  0  0  0
    2.6833   -2.5233   -8.1410 O   0  0  0  0  0  0  0  0  0  0  0  0
    1.1360   -3.8109   -6.8163 O   0  0  0  0  0  0  0  0  0  0  0  0
    0.9670   -0.4004   -8.2417 O   0  0  0  0  0  0  0  0  0  0  0  0
    0.0067    0.0262   -5.3993 N   0  3  0  0  0  0  0  0  0  0  0  0
    0.5688    1.3921   -5.3857 C   0  0  0  0  0  0  0  0  0  0  0  0
    1.3300   -2.0066   -3.4612 C   0  0  0  0  0  0  0  0  0  0  0  0
  1  8  1  0  0  0  0
  1  9  1  6  0  0  0
  1  2  1  0  0  0  0
  2  3  1  0  0  0  0
  3  5  1  0  0  0  0
  3  4  1  1  0  0  0
  5  7  1  0  0  0  0
  5  6  1  1  0  0  0
  7  8  1  0  0  0  0
  9 10  1  0  0  0  0
 11 12  1  0  0  0  0
 11 18  1  0  0  0  0
 11 19  1  6  0  0  0
 12 13  1  0  0  0  0
 13 15  1  0  0  0  0
 13 14  1  6  0  0  0
 15 16  1  0  0  0  0
 15 26  1  1  0  0  0
 16 18  1  0  0  0  0
 16 17  1  6  0  0  0
 18  4  1  1  0  0  0
 20 21  1  0  0  0  0
 20 27  1  0  0  0  0
 21 31  1  1  0  0  0
 21 23  1  0  0  0  0
 21 22  1  0  0  0  0
 23 24  1  0  0  0  0
 23 29  1  1  0  0  0
 24 25  1  0  0  0  0
 24 28  1  6  0  0  0
 25 27  1  0  0  0  0
 25 26  1  1  0  0  0
 29 30  1  0  0  0  0
M  CHG  5   6   1  10   1  14   1  19   1  29   1
M  END
>  <CHROM.1>
-54.71323817,129.99716204,-58.78483258,63.21397010,-81.70301618,28.30969899
-137.87209311,134.96875759,66.90874583,60.99213170,-104.25277938,-63.74865521
-121.77178081,3.82679426,-3.98586441,-9.04399224,0.14294975,-0.87968367,2.50246354

>  <Name>
1byj cryst

>  <RI>
0

>  <Rbt.Current_Directory>
/home/itssahil/PROJECTS/Mol_Feturizer/New_Systems/rnas/1byj

>  <Rbt.Executable>
rbdock ($Id: //depot/dev/client3/rdock/2013.1/src/exe/rbdock.cxx#4 $)

>  <Rbt.Library>
libRbt.so (2013.1, Build901 2013/11/27)

>  <Rbt.Parameter_File>
/export/apps/rDock/src/rDock_2013.1_src/data/scripts/dock_solv.prm

>  <Rbt.Receptor>
prm/blind_docking_40.prm

>  <SCORE>
-2.40623

>  <SCORE.INTER>
-21.0902

>  <SCORE.INTER.CONST>
1

>  <SCORE.INTER.POLAR>
-4.98396

>  <SCORE.INTER.ROT>
6

>  <SCORE.INTER.SOLV>
28.0208

>  <SCORE.INTER.VDW>
-14.3872

>  <SCORE.INTER.norm>
-0.68033

>  <SCORE.INTRA>
6.84859

>  <SCORE.INTRA.DIHEDRAL>
11.1673

>  <SCORE.INTRA.DIHEDRAL.0>
18.4149

>  <SCORE.INTRA.POLAR>
-0.178192

>  <SCORE.INTRA.POLAR.0>
0

>  <SCORE.INTRA.REPUL>
-0.092687

>  <SCORE.INTRA.REPUL.0>
0.092687

>  <SCORE.INTRA.SOLV>
2.75522

>  <SCORE.INTRA.SOLV.lig_0>
-120.37

>  <SCORE.INTRA.VDW>
0.956624

>  <SCORE.INTRA.VDW.0>
-1.75542

>  <SCORE.INTRA.norm>
0.220922

>  <SCORE.RESTR>
11.8354

>  <SCORE.RESTR.CAVITY>
11.8354

>  <SCORE.RESTR.norm>
0.381788

>  <SCORE.SYSTEM>
0

>  <SCORE.SYSTEM.CONST>
0

>  <SCORE.SYSTEM.DIHEDRAL>
0

>  <SCORE.SYSTEM.SOLV>
0

>  <SCORE.SYSTEM.norm>
0

>  <SCORE.heavy>
31

>  <SCORE.norm>
-0.0776203

>  <RMSD>
12.517

$$$$
1byj cryst
 OpenBabel11021811383D
libRbt.so/2013.1/901 2013/11/27
 31 33  0  0  0  0  0  0  0  0999 V2000
    0.5939   -2.1848   -8.6182 C   0  0  1  0  0  0  0  0  0  0  0  0
    1.6461   -2.8591   -7.8565 O   0  0  0  0  0  0  0  0  0  0  0  0
    2.1571   -2.2177   -6.6498 C   0  0  2  0  0  0  0  0  0  0  0  0
    1.1471   -2.1915   -5.5933 O   0  0  0  0  0  0  0  0  0  0  0  0
    2.6404   -0.7768   -6.9975 C   0  0  2  0  0  0  0  0  0  0  0  0
    3.1768   -0.0457   -5.8327 N   0  3  0  0  0  0  0  0  0  0  0  0
    1.4891    0.0261   -7.6560 C   0  0  0  0  0  0  0  0  0  0  0  0
    0.9511   -0.6990   -8.8988 C   0  0  0  0  0  0  0  0  0  0  0  0
    0.3818   -2.9168   -9.9550 C   0  0  0  0  0  0  0  0  0  0  0  0
    1.6292   -3.2342  -10.6626 N   0  3  0  0  0  0  0  0  0  0  0  0
    0.8689   -4.5981   -6.0422 C   0  0  1  0  0  0  0  0  0  0  0  0
   -0.1265   -5.7833   -6.0749 C   0  0  0  0  0  0  0  0  0  0  0  0
   -1.3375   -5.4510   -6.9875 C   0  0  1  0  0  0  0  0  0  0  0  0
   -2.2380   -6.6167   -7.0713 N   0  3  0  0  0  0  0  0  0  0  0  0
   -2.0745   -4.1841   -6.4647 C   0  0  1  0  0  0  0  0  0  0  0  0
   -1.1074   -2.9837   -6.3098 C   0  0  1  0  0  0  0  0  0  0  0  0
   -1.8430   -1.9497   -5.6727 O   0  0  0  0  0  0  0  0  0  0  0  0
    0.1937   -3.2960   -5.4993 C   0  0  2  0  0  0  0  0  0  0  0  0
    2.0623   -4.9615   -5.2579 N   0  3  0  0  0  0  0  0  0  0  0  0
   -4.9966   -2.4361   -5.3980 C   0  0  0  0  0  0  0  0  0  0  0  0
   -6.1258   -1.8096   -6.2523 C   0  0  2  0  0  0  0  0  0  0  0  0
   -7.3465   -2.4279   -5.8477 O   0  0  0  0  0  0  0  0  0  0  0  0
   -5.8391   -2.0772   -7.7779 C   0  0  1  0  0  0  0  0  0  0  0  0
   -5.4852   -3.5734   -8.0783 C   0  0  2  0  0  0  0  0  0  0  0  0
   -4.4743   -4.1824   -7.0739 C   0  0  1  0  0  0  0  0  0  0  0  0
   -3.1178   -3.7774   -7.3957 O   0  0  0  0  0  0  0  0  0  0  0  0
   -4.8318   -3.8466   -5.7034 O   0  0  0  0  0  0  0  0  0  0  0  0
   -4.9744   -3.7332   -9.3992 O   0  0  0  0  0  0  0  0  0  0  0  0
   -7.0107   -1.6370   -8.5977 N   0  3  0  0  0  0  0  0  0  0  0  0
   -6.7839   -0.5341   -9.5537 C   0  0  0  0  0  0  0  0  0  0  0  0
   -6.2342   -0.3049   -5.9027 C   0  0  0  0  0  0  0  0  0  0  0  0
  1  8  1  0  0  0  0
  1  9  1  6  0  0  0
  1  2  1  0  0  0  0
  2  3  1  0  0  0  0
  3  5  1  0  0  0  0
  3  4  1  1  0  0  0
  5  7  1  0  0  0  0
  5  6  1  1  0  0  0
  7  8  1  0  0  0  0
  9 10  1  0  0  0  0
 11 12  1  0  0  0  0
 11 18  1  0  0  0  0
 11 19  1  1  0  0  0
 12 13  1  0  0  0  0
 13 15  1  0  0  0  0
 13 14  1  1  0  0  0
 15 16  1  0  0  0  0
 15 26  1  6  0  0  0
 16 18  1  0  0  0  0
 16 17  1  1  0  0  0
 18  4  1  6  0  0  0
 20 21  1  0  0  0  0
 20 27  1  0  0  0  0
 21 31  1  1  0  0  0
 21 23  1  0  0  0  0
 21 22  1  0  0  0  0
 23 24  1  0  0  0  0
 23 29  1  6  0  0  0
 24 25  1  0  0  0  0
 24 28  1  6  0  0  0
 25 27  1  0  0  0  0
 25 26  1  6  0  0  0
 29 30  1  0  0  0  0
M  CHG  5   6   1  10   1  14   1  19   1  29   1
M  END
>  <CHROM.1>
-46.52621821,33.09407168,29.39661580,88.47955562,168.70204819,-170.90302096
-42.59641099,99.05607303,-143.46454763,-52.99064466,-122.39968253,-48.00449746
174.87660414,-1.84510052,-2.82323720,-7.13952700,-0.01579848,-0.01972098
-0.38395850

>  <Name>
1byj cryst

>  <RI>
0

>  <Rbt.Current_Directory>
/home/itssahil/PROJECTS/Mol_Feturizer/New_Systems/rnas/1byj

>  <Rbt.Executable>
rbdock ($Id: //depot/dev/client3/rdock/2013.1/src/exe/rbdock.cxx#4 $)

>  <Rbt.Library>
libRbt.so (2013.1, Build901 2013/11/27)

>  <Rbt.Parameter_File>
/export/apps/rDock/src/rDock_2013.1_src/data/scripts/dock_solv.prm

>  <Rbt.Receptor>
prm/blind_docking_20.prm

>  <SCORE>
-22.9205

>  <SCORE.INTER>
-32.0091

>  <SCORE.INTER.CONST>
1

>  <SCORE.INTER.POLAR>
-5.03343

>  <SCORE.INTER.ROT>
6

>  <SCORE.INTER.SOLV>
26.6699

>  <SCORE.INTER.VDW>
-21.0513

>  <SCORE.INTER.norm>
-1.03255

>  <SCORE.INTRA>
2.27392

>  <SCORE.INTRA.DIHEDRAL>
6.69654

>  <SCORE.INTRA.DIHEDRAL.0>
18.4149

>  <SCORE.INTRA.POLAR>
-0.0565344

>  <SCORE.INTRA.POLAR.0>
0

>  <SCORE.INTRA.REPUL>
-0.092687

>  <SCORE.INTRA.REPUL.0>
0.092687

>  <SCORE.INTRA.SOLV>
-0.918875

>  <SCORE.INTRA.SOLV.lig_0>
-120.37

>  <SCORE.INTRA.VDW>
0.0407363

>  <SCORE.INTRA.VDW.0>
-1.75542

>  <SCORE.INTRA.norm>
0.0733521

>  <SCORE.RESTR>
6.81463

>  <SCORE.RESTR.CAVITY>
6.81463

>  <SCORE.RESTR.norm>
0.219827

>  <SCORE.SYSTEM>
0

>  <SCORE.SYSTEM.CONST>
0

>  <SCORE.SYSTEM.DIHEDRAL>
0

>  <SCORE.SYSTEM.SOLV>
0

>  <SCORE.SYSTEM.norm>
0

>  <SCORE.heavy>
31

>  <SCORE.norm>
-0.739372

>  <RMSD>
12.552

$$$$
1byj cryst
 OpenBabel11021811383D
libRbt.so/2013.1/901 2013/11/27
 31 33  0  0  0  0  0  0  0  0999 V2000
    3.9004   -6.9411  -10.7587 C   0  0  1  0  0  0  0  0  0  0  0  0
    4.3994   -5.7389  -10.0896 O   0  0  0  0  0  0  0  0  0  0  0  0
    5.0716   -4.7207  -10.8896 C   0  0  2  0  0  0  0  0  0  0  0  0
    4.1385   -4.0569  -11.7982 O   0  0  0  0  0  0  0  0  0  0  0  0
    6.2472   -5.3765  -11.6760 C   0  0  2  0  0  0  0  0  0  0  0  0
    6.9902   -4.4187  -12.5184 N   0  3  0  0  0  0  0  0  0  0  0  0
    5.7209   -6.5558  -12.5341 C   0  0  0  0  0  0  0  0  0  0  0  0
    4.9857   -7.5862  -11.6640 C   0  0  0  0  0  0  0  0  0  0  0  0
    3.4480   -7.9637   -9.7015 C   0  0  0  0  0  0  0  0  0  0  0  0
    2.7173   -7.3690   -8.5747 N   0  3  0  0  0  0  0  0  0  0  0  0
    4.2811   -1.7650  -10.9054 C   0  0  1  0  0  0  0  0  0  0  0  0
    3.4979   -0.5961  -10.2597 C   0  0  0  0  0  0  0  0  0  0  0  0
    2.7689   -1.0742   -8.9753 C   0  0  1  0  0  0  0  0  0  0  0  0
    2.0914    0.0656   -8.3284 N   0  3  0  0  0  0  0  0  0  0  0  0
    1.7760   -2.2233   -9.3153 C   0  0  1  0  0  0  0  0  0  0  0  0
    2.4803   -3.3853  -10.0595 C   0  0  1  0  0  0  0  0  0  0  0  0
    1.4595   -4.2849  -10.4654 O   0  0  0  0  0  0  0  0  0  0  0  0
    3.3323   -2.9455  -11.2957 C   0  0  2  0  0  0  0  0  0  0  0  0
    5.0515   -1.2787  -12.0636 N   0  3  0  0  0  0  0  0  0  0  0  0
   -1.4128   -4.1711   -7.3527 C   0  0  0  0  0  0  0  0  0  0  0  0
   -1.5324   -4.0244   -5.8158 C   0  0  2  0  0  0  0  0  0  0  0  0
   -2.7241   -3.2826   -5.5594 O   0  0  0  0  0  0  0  0  0  0  0  0
   -0.2680   -3.2658   -5.2615 C   0  0  1  0  0  0  0  0  0  0  0  0
    0.0599   -1.9607   -6.0635 C   0  0  2  0  0  0  0  0  0  0  0  0
   -0.0083   -2.1469   -7.6006 C   0  0  1  0  0  0  0  0  0  0  0  0
    1.1998   -2.7792   -8.0990 O   0  0  0  0  0  0  0  0  0  0  0  0
   -1.2051   -2.8804   -7.9860 O   0  0  0  0  0  0  0  0  0  0  0  0
    1.3434   -1.4457   -5.7191 O   0  0  0  0  0  0  0  0  0  0  0  0
   -0.4582   -2.9593   -3.8095 N   0  3  0  0  0  0  0  0  0  0  0  0
    0.5639   -3.4745   -2.8758 C   0  0  0  0  0  0  0  0  0  0  0  0
   -1.7240   -5.4313   -5.1978 C   0  0  0  0  0  0  0  0  0  0  0  0
  1  8  1  0  0  0  0
  1  9  1  1  0  0  0
  1  2  1  0  0  0  0
  2  3  1  0  0  0  0
  3  5  1  0  0  0  0
  3  4  1  6  0  0  0
  5  7  1  0  0  0  0
  5  6  1  6  0  0  0
  7  8  1  0  0  0  0
  9 10  1  0  0  0  0
 11 12  1  0  0  0  0
 11 18  1  0  0  0  0
 11 19  1  6  0  0  0
 12 13  1  0  0  0  0
 13 15  1  0  0  0  0
 13 14  1  6  0  0  0
 15 16  1  0  0  0  0
 15 26  1  1  0  0  0
 16 18  1  0  0  0  0
 16 17  1  6  0  0  0
 18  4  1  1  0  0  0
 20 21  1  0  0  0  0
 20 27  1  0  0  0  0
 21 31  1  1  0  0  0
 21 23  1  0  0  0  0
 21 22  1  0  0  0  0
 23 24  1  0  0  0  0
 23 29  1  1  0  0  0
 24 25  1  0  0  0  0
 24 28  1  6  0  0  0
 25 27  1  0  0  0  0
 25 26  1  1  0  0  0
 29 30  1  0  0  0  0
M  CHG  5   6   1  10   1  14   1  19   1  29   1
M  END
>  <CHROM.1>
41.32875771,83.81218141,64.47468569,57.30867061,75.36923137,-56.14983364
-169.08788078,88.36065707,66.94009155,60.31635155,-115.95513564,51.74661317
-136.45220851,2.18621210,-3.72353034,-8.79464317,0.18691775,-0.81143952,3.11050960

>  <Name>
1byj cryst

>  <RI>
0

>  <Rbt.Current_Directory>
/home/itssahil/PROJECTS/Mol_Feturizer/New_Systems/rnas/1byj

>  <Rbt.Executable>
rbdock ($Id: //depot/dev/client3/rdock/2013.1/src/exe/rbdock.cxx#4 $)

>  <Rbt.Library>
libRbt.so (2013.1, Build901 2013/11/27)

>  <Rbt.Parameter_File>
/export/apps/rDock/src/rDock_2013.1_src/data/scripts/dock_solv.prm

>  <Rbt.Receptor>
prm/blind_docking_80.prm

>  <SCORE>
-13.3757

>  <SCORE.INTER>
-11.7205

>  <SCORE.INTER.CONST>
1

>  <SCORE.INTER.POLAR>
-4.19603

>  <SCORE.INTER.ROT>
6

>  <SCORE.INTER.SOLV>
31.7533

>  <SCORE.INTER.VDW>
-12.0113

>  <SCORE.INTER.norm>
-0.378079

>  <SCORE.INTRA>
-4.52203

>  <SCORE.INTRA.DIHEDRAL>
-0.21327

>  <SCORE.INTRA.DIHEDRAL.0>
18.4149

>  <SCORE.INTRA.POLAR>
-0.970049

>  <SCORE.INTRA.POLAR.0>
0

>  <SCORE.INTRA.REPUL>
-0.092687

>  <SCORE.INTRA.REPUL.0>
0.092687

>  <SCORE.INTRA.SOLV>
2.40905

>  <SCORE.INTRA.SOLV.lig_0>
-120.37

>  <SCORE.INTRA.VDW>
-1.85832

>  <SCORE.INTRA.VDW.0>
-1.75542

>  <SCORE.INTRA.norm>
-0.145872

>  <SCORE.RESTR>
2.86683

>  <SCORE.RESTR.CAVITY>
2.86683

>  <SCORE.RESTR.norm>
0.0924782

>  <SCORE.SYSTEM>
0

>  <SCORE.SYSTEM.CONST>
0

>  <SCORE.SYSTEM.DIHEDRAL>
0

>  <SCORE.SYSTEM.SOLV>
0

>  <SCORE.SYSTEM.norm>
0

>  <SCORE.heavy>
31

>  <SCORE.norm>
-0.431473

>  <RMSD>
12.554

$$$$
1byj cryst
 OpenBabel11021811383D
libRbt.so/2013.1/901 2013/11/27
 31 33  0  0  0  0  0  0  0  0999 V2000
   -5.3310   -1.3913   -6.8558 C   0  0  1  0  0  0  0  0  0  0  0  0
   -4.7316   -2.5475   -6.1879 O   0  0  0  0  0  0  0  0  0  0  0  0
   -4.0517   -3.5503   -7.0007 C   0  0  2  0  0  0  0  0  0  0  0  0
   -2.8248   -3.0154   -7.5884 O   0  0  0  0  0  0  0  0  0  0  0  0
   -5.0241   -4.0633   -8.1060 C   0  0  2  0  0  0  0  0  0  0  0  0
   -4.4212   -5.0863   -8.9829 N   0  3  0  0  0  0  0  0  0  0  0  0
   -5.5490   -2.8716   -8.9477 C   0  0  0  0  0  0  0  0  0  0  0  0
   -6.2225   -1.8193   -8.0541 C   0  0  0  0  0  0  0  0  0  0  0  0
   -6.1830   -0.6027   -5.8456 C   0  0  0  0  0  0  0  0  0  0  0  0
   -5.6157   -0.5659   -4.4914 N   0  3  0  0  0  0  0  0  0  0  0  0
   -0.8154   -4.0898   -6.6511 C   0  0  1  0  0  0  0  0  0  0  0  0
    0.3643   -3.9443   -5.6594 C   0  0  0  0  0  0  0  0  0  0  0  0
   -0.1607   -3.6318   -4.2323 C   0  0  1  0  0  0  0  0  0  0  0  0
    0.9678   -3.5730   -3.2836 N   0  3  0  0  0  0  0  0  0  0  0  0
   -0.9839   -2.3113   -4.2382 C   0  0  1  0  0  0  0  0  0  0  0  0
   -2.1223   -2.3525   -5.2882 C   0  0  1  0  0  0  0  0  0  0  0  0
   -2.6885   -1.0509   -5.3240 O   0  0  0  0  0  0  0  0  0  0  0  0
   -1.6698   -2.7818   -6.7229 C   0  0  2  0  0  0  0  0  0  0  0  0
   -0.3141   -4.4874   -7.9785 N   0  3  0  0  0  0  0  0  0  0  0  0
   -4.1912   -0.8114   -1.9400 C   0  0  0  0  0  0  0  0  0  0  0  0
   -3.9415   -0.4932   -0.4454 C   0  0  2  0  0  0  0  0  0  0  0  0
   -4.0634    0.9205   -0.2942 O   0  0  0  0  0  0  0  0  0  0  0  0
   -2.4991   -0.9794   -0.0397 C   0  0  1  0  0  0  0  0  0  0  0  0
   -1.3932   -0.5134   -1.0466 C   0  0  2  0  0  0  0  0  0  0  0  0
   -1.7892   -0.7078   -2.5322 C   0  0  1  0  0  0  0  0  0  0  0  0
   -1.6052   -2.0889   -2.9401 O   0  0  0  0  0  0  0  0  0  0  0  0
   -3.1475   -0.2447   -2.7763 O   0  0  0  0  0  0  0  0  0  0  0  0
   -0.1569   -1.1815   -0.8089 O   0  0  0  0  0  0  0  0  0  0  0  0
   -2.1802   -0.5156    1.3465 N   0  3  0  0  0  0  0  0  0  0  0  0
   -2.9668   -1.1057    2.4488 C   0  0  0  0  0  0  0  0  0  0  0  0
   -5.0677   -1.1446    0.3944 C   0  0  0  0  0  0  0  0  0  0  0  0
  1  8  1  0  0  0  0
  1  9  1  1  0  0  0
  1  2  1  0  0  0  0
  2  3  1  0  0  0  0
  3  5  1  0  0  0  0
  3  4  1  6  0  0  0
  5  7  1  0  0  0  0
  5  6  1  6  0  0  0
  7  8  1  0  0  0  0
  9 10  1  0  0  0  0
 11 12  1  0  0  0  0
 11 18  1  0  0  0  0
 11 19  1  6  0  0  0
 12 13  1  0  0  0  0
 13 15  1  0  0  0  0
 13 14  1  1  0  0  0
 15 16  1  0  0  0  0
 15 26  1  1  0  0  0
 16 18  1  0  0  0  0
 16 17  1  6  0  0  0
 18  4  1  6  0  0  0
 20 21  1  0  0  0  0
 20 27  1  0  0  0  0
 21 31  1  1  0  0  0
 21 23  1  0  0  0  0
 21 22  1  0  0  0  0
 23 24  1  0  0  0  0
 23 29  1  1  0  0  0
 24 25  1  0  0  0  0
 24 28  1  1  0  0  0
 25 27  1  0  0  0  0
 25 26  1  1  0  0  0
 29 30  1  0  0  0  0
M  CHG  5   6   1  10   1  14   1  19   1  29   1
M  END
>  <CHROM.1>
36.52274789,72.34558152,88.39741649,-58.58337900,158.50354840,79.43295699
-56.57433197,148.78955249,79.10609283,-60.36224125,-171.77582262,-168.69340408
-136.41238738,-2.89173725,-2.00877703,-4.17556487,1.70097770,0.35808654,-1.95387542

>  <Name>
1byj cryst

>  <RI>
0

>  <Rbt.Current_Directory>
/home/itssahil/PROJECTS/Mol_Feturizer/New_Systems/rnas/1byj

>  <Rbt.Executable>
rbdock ($Id: //depot/dev/client3/rdock/2013.1/src/exe/rbdock.cxx#4 $)

>  <Rbt.Library>
libRbt.so (2013.1, Build901 2013/11/27)

>  <Rbt.Parameter_File>
/export/apps/rDock/src/rDock_2013.1_src/data/scripts/dock_solv.prm

>  <Rbt.Receptor>
prm/blind_docking_20.prm

>  <SCORE>
-14.5692

>  <SCORE.INTER>
-18.5216

>  <SCORE.INTER.CONST>
1

>  <SCORE.INTER.POLAR>
-3.57573

>  <SCORE.INTER.ROT>
6

>  <SCORE.INTER.SOLV>
20.9963

>  <SCORE.INTER.VDW>
-15.0274

>  <SCORE.INTER.norm>
-0.597471

>  <SCORE.INTRA>
-1.96391

>  <SCORE.INTRA.DIHEDRAL>
1.69092

>  <SCORE.INTRA.DIHEDRAL.0>
18.4149

>  <SCORE.INTRA.POLAR>
-1.50407

>  <SCORE.INTRA.POLAR.0>
0

>  <SCORE.INTRA.REPUL>
-0.092687

>  <SCORE.INTRA.REPUL.0>
0.092687

>  <SCORE.INTRA.SOLV>
3.23499

>  <SCORE.INTRA.SOLV.lig_0>
-120.37

>  <SCORE.INTRA.VDW>
1.15043

>  <SCORE.INTRA.VDW.0>
-1.75542

>  <SCORE.INTRA.norm>
-0.0633519

>  <SCORE.RESTR>
5.9163

>  <SCORE.RESTR.CAVITY>
5.9163

>  <SCORE.RESTR.norm>
0.190848

>  <SCORE.SYSTEM>
0

>  <SCORE.SYSTEM.CONST>
0

>  <SCORE.SYSTEM.DIHEDRAL>
0

>  <SCORE.SYSTEM.SOLV>
0

>  <SCORE.SYSTEM.norm>
0

>  <SCORE.heavy>
31

>  <SCORE.norm>
-0.469975

>  <RMSD>
12.556

$$$$
1byj cryst
 OpenBabel11021811383D
libRbt.so/2013.1/901 2013/11/27
 31 33  0  0  0  0  0  0  0  0999 V2000
    3.2662   -1.6735  -10.2250 C   0  0  1  0  0  0  0  0  0  0  0  0
    3.6663   -2.5498   -9.1231 O   0  0  0  0  0  0  0  0  0  0  0  0
    2.8164   -2.6177   -7.9391 C   0  0  2  0  0  0  0  0  0  0  0  0
    1.5389   -3.2622   -8.2380 O   0  0  0  0  0  0  0  0  0  0  0  0
    2.5996   -1.1797   -7.3774 C   0  0  2  0  0  0  0  0  0  0  0  0
    1.7474   -1.1475   -6.1725 N   0  3  0  0  0  0  0  0  0  0  0  0
    2.0120   -0.2609   -8.4795 C   0  0  0  0  0  0  0  0  0  0  0  0
    2.9128   -0.2460   -9.7236 C   0  0  0  0  0  0  0  0  0  0  0  0
    4.4126   -1.5828  -11.2476 C   0  0  0  0  0  0  0  0  0  0  0  0
    4.5804   -2.7946  -12.0603 N   0  3  0  0  0  0  0  0  0  0  0  0
    0.8279   -4.9721   -6.6129 C   0  0  1  0  0  0  0  0  0  0  0  0
   -0.2090   -5.3466   -5.5261 C   0  0  0  0  0  0  0  0  0  0  0  0
   -1.6501   -5.2584   -6.0965 C   0  0  1  0  0  0  0  0  0  0  0  0
   -2.6221   -5.6924   -5.0748 N   0  3  0  0  0  0  0  0  0  0  0  0
   -1.9427   -3.8156   -6.6007 C   0  0  1  0  0  0  0  0  0  0  0  0
   -0.8765   -3.3390   -7.6187 C   0  0  1  0  0  0  0  0  0  0  0  0
   -1.1443   -1.9684   -7.8749 O   0  0  0  0  0  0  0  0  0  0  0  0
    0.6033   -3.5184   -7.1440 C   0  0  2  0  0  0  0  0  0  0  0  0
    2.1943   -5.1581   -6.0935 N   0  3  0  0  0  0  0  0  0  0  0  0
   -4.5425   -1.2484   -6.1325 C   0  0  0  0  0  0  0  0  0  0  0  0
   -5.9089   -1.1342   -6.8519 C   0  0  2  0  0  0  0  0  0  0  0  0
   -6.9175   -1.2121   -5.8455 O   0  0  0  0  0  0  0  0  0  0  0  0
   -6.0563   -2.3120   -7.8875 C   0  0  1  0  0  0  0  0  0  0  0  0
   -5.7051   -3.7102   -7.2745 C   0  0  2  0  0  0  0  0  0  0  0  0
   -4.4097   -3.7037   -6.4238 C   0  0  1  0  0  0  0  0  0  0  0  0
   -3.2333   -3.7595   -7.2727 O   0  0  0  0  0  0  0  0  0  0  0  0
   -4.3791   -2.5582   -5.5262 O   0  0  0  0  0  0  0  0  0  0  0  0
   -5.5866   -4.7077   -8.2854 O   0  0  0  0  0  0  0  0  0  0  0  0
   -7.4408   -2.3168   -8.4544 N   0  3  0  0  0  0  0  0  0  0  0  0
   -7.6797   -1.4802   -9.6481 C   0  0  0  0  0  0  0  0  0  0  0  0
   -6.0119    0.2688   -7.4991 C   0  0  0  0  0  0  0  0  0  0  0  0
  1  8  1  0  0  0  0
  1  9  1  6  0  0  0
  1  2  1  0  0  0  0
  2  3  1  0  0  0  0
  3  5  1  0  0  0  0
  3  4  1  6  0  0  0
  5  7  1  0  0  0  0
  5  6  1  1  0  0  0
  7  8  1  0  0  0  0
  9 10  1  0  0  0  0
 11 12  1  0  0  0  0
 11 18  1  0  0  0  0
 11 19  1  1  0  0  0
 12 13  1  0  0  0  0
 13 15  1  0  0  0  0
 13 14  1  1  0  0  0
 15 16  1  0  0  0  0
 15 26  1  6  0  0  0
 16 18  1  0  0  0  0
 16 17  1  1  0  0  0
 18  4  1  6  0  0  0
 20 21  1  0  0  0  0
 20 27  1  0  0  0  0
 21 31  1  6  0  0  0
 21 23  1  0  0  0  0
 21 22  1  0  0  0  0
 23 24  1  0  0  0  0
 23 29  1  1  0  0  0
 24 25  1  0  0  0  0
 24 28  1  6  0  0  0
 25 27  1  0  0  0  0
 25 26  1  6  0  0  0
 29 30  1  0  0  0  0
M  CHG  5   6   1  10   1  14   1  19   1  29   1
M  END
>  <CHROM.1>
73.64996644,174.94826889,-93.99992151,48.88920448,169.33437394,-175.93335049
174.03859860,78.98310824,-164.09719742,-52.78894194,-151.01906438,69.57398581
-177.53973595,-1.40470152,-2.73465892,-7.62415615,0.13927125,0.14510846,-0.73306018

>  <Name>
1byj cryst

>  <RI>
0

>  <Rbt.Current_Directory>
/home/itssahil/PROJECTS/Mol_Feturizer/New_Systems/rnas/1byj

>  <Rbt.Executable>
rbdock ($Id: //depot/dev/client3/rdock/2013.1/src/exe/rbdock.cxx#4 $)

>  <Rbt.Library>
libRbt.so (2013.1, Build901 2013/11/27)

>  <Rbt.Parameter_File>
/export/apps/rDock/src/rDock_2013.1_src/data/scripts/dock_solv.prm

>  <Rbt.Receptor>
prm/blind_docking_20.prm

>  <SCORE>
8.19184

>  <SCORE.INTER>
7.05513

>  <SCORE.INTER.CONST>
1

>  <SCORE.INTER.POLAR>
-3.35167

>  <SCORE.INTER.ROT>
6

>  <SCORE.INTER.SOLV>
28.6487

>  <SCORE.INTER.VDW>
-1.27391

>  <SCORE.INTER.norm>
0.227585

>  <SCORE.INTRA>
-2.88698

>  <SCORE.INTRA.DIHEDRAL>
-7.05638

>  <SCORE.INTRA.DIHEDRAL.0>
18.4149

>  <SCORE.INTRA.POLAR>
-0.0752985

>  <SCORE.INTRA.POLAR.0>
0

>  <SCORE.INTRA.REPUL>
-0.092687

>  <SCORE.INTRA.REPUL.0>
0.092687

>  <SCORE.INTRA.SOLV>
1.63765

>  <SCORE.INTRA.SOLV.lig_0>
-120.37

>  <SCORE.INTRA.VDW>
0.541835

>  <SCORE.INTRA.VDW.0>
-1.75542

>  <SCORE.INTRA.norm>
-0.0931284

>  <SCORE.RESTR>
4.02369

>  <SCORE.RESTR.CAVITY>
4.02369

>  <SCORE.RESTR.norm>
0.129796

>  <SCORE.SYSTEM>
0

>  <SCORE.SYSTEM.CONST>
0

>  <SCORE.SYSTEM.DIHEDRAL>
0

>  <SCORE.SYSTEM.SOLV>
0

>  <SCORE.SYSTEM.norm>
0

>  <SCORE.heavy>
31

>  <SCORE.norm>
0.264253

>  <RMSD>
12.558

$$$$
1byj cryst
 OpenBabel11021811383D
libRbt.so/2013.1/901 2013/11/27
 31 33  0  0  0  0  0  0  0  0999 V2000
    4.6948   -4.7746  -10.9246 C   0  0  1  0  0  0  0  0  0  0  0  0
    4.7962   -4.3086   -9.5409 O   0  0  0  0  0  0  0  0  0  0  0  0
    3.8684   -3.2819   -9.0785 C   0  0  2  0  0  0  0  0  0  0  0  0
    2.5016   -3.7947   -9.0048 O   0  0  0  0  0  0  0  0  0  0  0  0
    3.9523   -2.0471  -10.0265 C   0  0  2  0  0  0  0  0  0  0  0  0
    3.0440   -0.9507   -9.6364 N   0  3  0  0  0  0  0  0  0  0  0  0
    3.6789   -2.4803  -11.4900 C   0  0  0  0  0  0  0  0  0  0  0  0
    4.6482   -3.5888  -11.9274 C   0  0  0  0  0  0  0  0  0  0  0  0
    5.9033   -5.6691  -11.2524 C   0  0  0  0  0  0  0  0  0  0  0  0
    6.2147   -6.6527  -10.2070 N   0  3  0  0  0  0  0  0  0  0  0  0
    1.6534   -5.4431   -7.3819 C   0  0  1  0  0  0  0  0  0  0  0  0
    0.8804   -5.6473   -6.0562 C   0  0  0  0  0  0  0  0  0  0  0  0
   -0.5147   -4.9706   -6.1307 C   0  0  1  0  0  0  0  0  0  0  0  0
   -1.2699   -5.2391   -4.8920 N   0  3  0  0  0  0  0  0  0  0  0  0
   -0.3600   -3.4453   -6.3976 C   0  0  1  0  0  0  0  0  0  0  0  0
    0.4958   -3.1700   -7.6593 C   0  0  1  0  0  0  0  0  0  0  0  0
    0.7107   -1.7673   -7.7057 O   0  0  0  0  0  0  0  0  0  0  0  0
    1.8652   -3.9255   -7.6949 C   0  0  2  0  0  0  0  0  0  0  0  0
    2.9316   -6.1750   -7.3399 N   0  3  0  0  0  0  0  0  0  0  0  0
   -3.7289   -0.8576   -5.5434 C   0  0  0  0  0  0  0  0  0  0  0  0
   -5.0916   -1.3551   -6.0846 C   0  0  2  0  0  0  0  0  0  0  0  0
   -5.9006   -1.6687   -4.9518 O   0  0  0  0  0  0  0  0  0  0  0  0
   -4.8654   -2.6287   -6.9836 C   0  0  1  0  0  0  0  0  0  0  0  0
   -3.9520   -3.7025   -6.3004 C   0  0  2  0  0  0  0  0  0  0  0  0
   -2.6892   -3.1031   -5.6309 C   0  0  1  0  0  0  0  0  0  0  0  0
   -1.6609   -2.8293   -6.6185 O   0  0  0  0  0  0  0  0  0  0  0  0
   -3.0225   -1.9207   -4.8501 O   0  0  0  0  0  0  0  0  0  0  0  0
   -3.5484   -4.7085   -7.2258 O   0  0  0  0  0  0  0  0  0  0  0  0
   -6.1858   -3.2222   -7.3614 N   0  3  0  0  0  0  0  0  0  0  0  0
   -6.1755   -4.2786   -8.3938 C   0  0  0  0  0  0  0  0  0  0  0  0
   -5.7819   -0.1892   -6.8345 C   0  0  0  0  0  0  0  0  0  0  0  0
  1  8  1  0  0  0  0
  1  9  1  6  0  0  0
  1  2  1  0  0  0  0
  2  3  1  0  0  0  0
  3  5  1  0  0  0  0
  3  4  1  6  0  0  0
  5  7  1  0  0  0  0
  5  6  1  1  0  0  0
  7  8  1  0  0  0  0
  9 10  1  0  0  0  0
 11 12  1  0  0  0  0
 11 18  1  0  0  0  0
 11 19  1  1  0  0  0
 12 13  1  0  0  0  0
 13 15  1  0  0  0  0
 13 14  1  1  0  0  0
 15 16  1  0  0  0  0
 15 26  1  6  0  0  0
 16 18  1  0  0  0  0
 16 17  1  1  0  0  0
 18  4  1  6  0  0  0
 20 21  1  0  0  0  0
 20 27  1  0  0  0  0
 21 31  1  6  0  0  0
 21 23  1  0  0  0  0
 21 22  1  0  0  0  0
 23 24  1  0  0  0  0
 23 29  1  1  0  0  0
 24 25  1  0  0  0  0
 24 28  1  6  0  0  0
 25 27  1  0  0  0  0
 25 26  1  6  0  0  0
 29 30  1  0  0  0  0
M  CHG  5   6   1  10   1  14   1  19   1  29   1
M  END
>  <CHROM.1>
45.13987326,113.25176784,-112.74482514,108.04583332,175.44117092,-140.69360820
-128.25326087,50.63768183,60.34892663,-59.52990570,-69.38821637,74.13790125
-124.24168877,-0.10260817,-3.48993317,-7.75831856,0.03141311,0.43106802,-0.53123099

>  <Name>
1byj cryst

>  <RI>
0

>  <Rbt.Current_Directory>
/home/itssahil/PROJECTS/Mol_Feturizer/New_Systems/rnas/1byj

>  <Rbt.Executable>
rbdock ($Id: //depot/dev/client3/rdock/2013.1/src/exe/rbdock.cxx#4 $)

>  <Rbt.Library>
libRbt.so (2013.1, Build901 2013/11/27)

>  <Rbt.Parameter_File>
/export/apps/rDock/src/rDock_2013.1_src/data/scripts/dock_solv.prm

>  <Rbt.Receptor>
prm/blind_docking_40.prm

>  <SCORE>
-8.79532

>  <SCORE.INTER>
-27.2374

>  <SCORE.INTER.CONST>
1

>  <SCORE.INTER.POLAR>
-6.51685

>  <SCORE.INTER.ROT>
6

>  <SCORE.INTER.SOLV>
30.1269

>  <SCORE.INTER.VDW>
-14.0778

>  <SCORE.INTER.norm>
-0.878627

>  <SCORE.INTRA>
7.84808

>  <SCORE.INTRA.DIHEDRAL>
14.5204

>  <SCORE.INTRA.DIHEDRAL.0>
18.4149

>  <SCORE.INTRA.POLAR>
-1.02918

>  <SCORE.INTRA.POLAR.0>
0

>  <SCORE.INTRA.REPUL>
-0.092687

>  <SCORE.INTRA.REPUL.0>
0.092687

>  <SCORE.INTRA.SOLV>
2.93462

>  <SCORE.INTRA.SOLV.lig_0>
-120.37

>  <SCORE.INTRA.VDW>
3.08325

>  <SCORE.INTRA.VDW.0>
-1.75542

>  <SCORE.INTRA.norm>
0.253164

>  <SCORE.RESTR>
10.594

>  <SCORE.RESTR.CAVITY>
10.594

>  <SCORE.RESTR.norm>
0.341743

>  <SCORE.SYSTEM>
0

>  <SCORE.SYSTEM.CONST>
0

>  <SCORE.SYSTEM.DIHEDRAL>
0

>  <SCORE.SYSTEM.SOLV>
0

>  <SCORE.SYSTEM.norm>
0

>  <SCORE.heavy>
31

>  <SCORE.norm>
-0.28372

>  <RMSD>
12.585

$$$$
1byj cryst
 OpenBabel11021811383D
libRbt.so/2013.1/901 2013/11/27
 31 33  0  0  0  0  0  0  0  0999 V2000
    3.3433   -1.9338  -10.2744 C   0  0  1  0  0  0  0  0  0  0  0  0
    3.5516   -2.7081   -9.0500 O   0  0  0  0  0  0  0  0  0  0  0  0
    2.6502   -2.4918   -7.9234 C   0  0  2  0  0  0  0  0  0  0  0  0
    1.3017   -2.9706   -8.2219 O   0  0  0  0  0  0  0  0  0  0  0  0
    2.6375   -0.9764   -7.5573 C   0  0  2  0  0  0  0  0  0  0  0  0
    1.7486   -0.6589   -6.4224 N   0  3  0  0  0  0  0  0  0  0  0  0
    2.2508   -0.1323   -8.7991 C   0  0  0  0  0  0  0  0  0  0  0  0
    3.1969   -0.4162   -9.9756 C   0  0  0  0  0  0  0  0  0  0  0  0
    4.5337   -2.1512  -11.2251 C   0  0  0  0  0  0  0  0  0  0  0  0
    4.7196   -3.5497  -11.6335 N   0  3  0  0  0  0  0  0  0  0  0  0
    0.8884   -4.8650   -6.7018 C   0  0  1  0  0  0  0  0  0  0  0  0
   -0.0461   -5.4474   -5.6135 C   0  0  0  0  0  0  0  0  0  0  0  0
   -1.5075   -5.5168   -6.1323 C   0  0  1  0  0  0  0  0  0  0  0  0
   -2.3723   -6.1449   -5.1152 N   0  3  0  0  0  0  0  0  0  0  0  0
   -2.0084   -4.0964   -6.5236 C   0  0  1  0  0  0  0  0  0  0  0  0
   -1.0559   -3.4137   -7.5369 C   0  0  1  0  0  0  0  0  0  0  0  0
   -1.5129   -2.0778   -7.6868 O   0  0  0  0  0  0  0  0  0  0  0  0
    0.4522   -3.4228   -7.1211 C   0  0  2  0  0  0  0  0  0  0  0  0
    2.2868   -4.8989   -6.2385 N   0  3  0  0  0  0  0  0  0  0  0  0
   -4.3838   -2.3722   -4.9245 C   0  0  0  0  0  0  0  0  0  0  0  0
   -5.7713   -1.8891   -5.4136 C   0  0  2  0  0  0  0  0  0  0  0  0
   -6.7330   -2.3610   -4.4709 O   0  0  0  0  0  0  0  0  0  0  0  0
   -6.0553   -2.4758   -6.8476 C   0  0  1  0  0  0  0  0  0  0  0  0
   -5.7792   -4.0149   -6.9421 C   0  0  2  0  0  0  0  0  0  0  0  0
   -4.4471   -4.4453   -6.2771 C   0  0  1  0  0  0  0  0  0  0  0  0
   -3.3206   -4.1704   -7.1506 O   0  0  0  0  0  0  0  0  0  0  0  0
   -4.2886   -3.8208   -4.9718 O   0  0  0  0  0  0  0  0  0  0  0  0
   -5.7838   -4.4632   -8.2950 O   0  0  0  0  0  0  0  0  0  0  0  0
   -7.4622   -2.1661   -7.2514 N   0  3  0  0  0  0  0  0  0  0  0  0
   -8.5384   -2.8783   -6.5327 C   0  0  0  0  0  0  0  0  0  0  0  0
   -5.8016   -0.3416   -5.3664 C   0  0  0  0  0  0  0  0  0  0  0  0
  1  8  1  0  0  0  0
  1  9  1  6  0  0  0
  1  2  1  0  0  0  0
  2  3  1  0  0  0  0
  3  5  1  0  0  0  0
  3  4  1  6  0  0  0
  5  7  1  0  0  0  0
  5  6  1  1  0  0  0
  7  8  1  0  0  0  0
  9 10  1  0  0  0  0
 11 12  1  0  0  0  0
 11 18  1  0  0  0  0
 11 19  1  1  0  0  0
 12 13  1  0  0  0  0
 13 15  1  0  0  0  0
 13 14  1  1  0  0  0
 15 16  1  0  0  0  0
 15 26  1  6  0  0  0
 16 18  1  0  0  0  0
 16 17  1  1  0  0  0
 18  4  1  6  0  0  0
 20 21  1  0  0  0  0
 20 27  1  0  0  0  0
 21 31  1  6  0  0  0
 21 23  1  0  0  0  0
 21 22  1  0  0  0  0
 23 24  1  0  0  0  0
 23 29  1  1  0  0  0
 24 25  1  0  0  0  0
 24 28  1  6  0  0  0
 25 27  1  0  0  0  0
 25 26  1  6  0  0  0
 29 30  1  0  0  0  0
M  CHG  5   6   1  10   1  14   1  19   1  29   1
M  END
>  <CHROM.1>
60.60861312,151.79908185,-78.35367723,64.48407212,-42.20573142,-63.85637829
-16.64359553,73.84985567,70.56970509,-52.69102946,50.98272464,79.39463454
160.14337867,-1.41113360,-3.02275908,-7.22837498,0.20735112,0.26089823,-0.48001941

>  <Name>
1byj cryst

>  <RI>
0

>  <Rbt.Current_Directory>
/home/itssahil/PROJECTS/Mol_Feturizer/New_Systems/rnas/1byj

>  <Rbt.Executable>
rbdock ($Id: //depot/dev/client3/rdock/2013.1/src/exe/rbdock.cxx#4 $)

>  <Rbt.Library>
libRbt.so (2013.1, Build901 2013/11/27)

>  <Rbt.Parameter_File>
/export/apps/rDock/src/rDock_2013.1_src/data/scripts/dock_solv.prm

>  <Rbt.Receptor>
prm/blind_docking_100.prm

>  <SCORE>
11.0951

>  <SCORE.INTER>
10.2011

>  <SCORE.INTER.CONST>
1

>  <SCORE.INTER.POLAR>
-2.32078

>  <SCORE.INTER.ROT>
6

>  <SCORE.INTER.SOLV>
26.2878

>  <SCORE.INTER.VDW>
-1.82592

>  <SCORE.INTER.norm>
0.329068

>  <SCORE.INTRA>
-4.26287

>  <SCORE.INTRA.DIHEDRAL>
-4.04801

>  <SCORE.INTRA.DIHEDRAL.0>
18.4149

>  <SCORE.INTRA.POLAR>
-1.16234

>  <SCORE.INTRA.POLAR.0>
0

>  <SCORE.INTRA.REPUL>
-0.092687

>  <SCORE.INTRA.REPUL.0>
0.092687

>  <SCORE.INTRA.SOLV>
0.0255997

>  <SCORE.INTRA.SOLV.lig_0>
-120.37

>  <SCORE.INTRA.VDW>
2.16373

>  <SCORE.INTRA.VDW.0>
-1.75542

>  <SCORE.INTRA.norm>
-0.137512

>  <SCORE.RESTR>
5.15691

>  <SCORE.RESTR.CAVITY>
5.15691

>  <SCORE.RESTR.norm>
0.166352

>  <SCORE.SYSTEM>
0

>  <SCORE.SYSTEM.CONST>
0

>  <SCORE.SYSTEM.DIHEDRAL>
0

>  <SCORE.SYSTEM.SOLV>
0

>  <SCORE.SYSTEM.norm>
0

>  <SCORE.heavy>
31

>  <SCORE.norm>
0.357908

>  <RMSD>
12.586

$$$$
1byj cryst
 OpenBabel11021811383D
libRbt.so/2013.1/901 2013/11/27
 31 33  0  0  0  0  0  0  0  0999 V2000
   -4.5261    0.4163    0.3550 C   0  0  1  0  0  0  0  0  0  0  0  0
   -3.7580    0.7393   -0.8483 O   0  0  0  0  0  0  0  0  0  0  0  0
   -2.9473   -0.3066   -1.4628 C   0  0  2  0  0  0  0  0  0  0  0  0
   -3.7839   -1.3525   -2.0485 O   0  0  0  0  0  0  0  0  0  0  0  0
   -1.9760   -0.8987   -0.3967 C   0  0  2  0  0  0  0  0  0  0  0  0
   -1.1107   -1.9699   -0.9286 N   0  3  0  0  0  0  0  0  0  0  0  0
   -2.7777   -1.4098    0.8280 C   0  0  0  0  0  0  0  0  0  0  0  0
   -3.6482   -0.2927    1.4229 C   0  0  0  0  0  0  0  0  0  0  0  0
   -5.1068    1.7098    0.9529 C   0  0  0  0  0  0  0  0  0  0  0  0
   -4.6898    2.9291    0.2482 N   0  3  0  0  0  0  0  0  0  0  0  0
   -5.1941   -2.3607   -3.7993 C   0  0  1  0  0  0  0  0  0  0  0  0
   -5.5007   -2.4167   -5.3157 C   0  0  0  0  0  0  0  0  0  0  0  0
   -4.2180   -2.7665   -6.1170 C   0  0  1  0  0  0  0  0  0  0  0  0
   -4.5407   -2.8931   -7.5512 N   0  3  0  0  0  0  0  0  0  0  0  0
   -3.1153   -1.6986   -5.8618 C   0  0  1  0  0  0  0  0  0  0  0  0
   -2.8335   -1.5187   -4.3491 C   0  0  1  0  0  0  0  0  0  0  0  0
   -1.9487   -0.4146   -4.2297 O   0  0  0  0  0  0  0  0  0  0  0  0
   -4.1078   -1.2839   -3.4726 C   0  0  2  0  0  0  0  0  0  0  0  0
   -6.4360   -2.1303   -3.0404 N   0  3  0  0  0  0  0  0  0  0  0  0
   -0.5058   -4.5783   -5.3379 C   0  0  0  0  0  0  0  0  0  0  0  0
    0.8647   -4.6664   -6.0530 C   0  0  2  0  0  0  0  0  0  0  0  0
    1.8686   -4.5660   -5.0439 O   0  0  0  0  0  0  0  0  0  0  0  0
    0.9913   -3.4882   -7.0909 C   0  0  1  0  0  0  0  0  0  0  0  0
    0.6103   -2.0961   -6.4820 C   0  0  2  0  0  0  0  0  0  0  0  0
   -0.6872   -2.1268   -5.6351 C   0  0  1  0  0  0  0  0  0  0  0  0
   -1.8620   -2.0966   -6.4876 O   0  0  0  0  0  0  0  0  0  0  0  0
   -0.6973   -3.2707   -4.7350 O   0  0  0  0  0  0  0  0  0  0  0  0
    0.4747   -1.1033   -7.4956 O   0  0  0  0  0  0  0  0  0  0  0  0
    2.3772   -3.4567   -7.6538 N   0  3  0  0  0  0  0  0  0  0  0  0
    2.5784   -2.6864   -8.8980 C   0  0  0  0  0  0  0  0  0  0  0  0
    0.9979   -6.0685   -6.6968 C   0  0  0  0  0  0  0  0  0  0  0  0
  1  8  1  0  0  0  0
  1  9  1  1  0  0  0
  1  2  1  0  0  0  0
  2  3  1  0  0  0  0
  3  5  1  0  0  0  0
  3  4  1  1  0  0  0
  5  7  1  0  0  0  0
  5  6  1  6  0  0  0
  7  8  1  0  0  0  0
  9 10  1  0  0  0  0
 11 12  1  0  0  0  0
 11 18  1  0  0  0  0
 11 19  1  1  0  0  0
 12 13  1  0  0  0  0
 13 15  1  0  0  0  0
 13 14  1  6  0  0  0
 15 16  1  0  0  0  0
 15 26  1  6  0  0  0
 16 18  1  0  0  0  0
 16 17  1  6  0  0  0
 18  4  1  1  0  0  0
 20 21  1  0  0  0  0
 20 27  1  0  0  0  0
 21 31  1  6  0  0  0
 21 23  1  0  0  0  0
 21 22  1  0  0  0  0
 23 24  1  0  0  0  0
 23 29  1  1  0  0  0
 24 25  1  0  0  0  0
 24 28  1  6  0  0  0
 25 27  1  0  0  0  0
 25 26  1  6  0  0  0
 29 30  1  0  0  0  0
M  CHG  5   6   1  10   1  14   1  19   1  29   1
M  END
>  <CHROM.1>
-3.80305210,95.46443856,-170.56570648,168.28233037,101.53834431,56.59744584
-144.86086491,-126.49294033,66.86546975,-55.96568208,-75.78769068,171.20306484
-161.13873507,-2.08817813,-1.85528907,-3.99139817,-2.16343006,0.18409489
-1.96211549

>  <Name>
1byj cryst

>  <RI>
0

>  <Rbt.Current_Directory>
/home/itssahil/PROJECTS/Mol_Feturizer/New_Systems/rnas/1byj

>  <Rbt.Executable>
rbdock ($Id: //depot/dev/client3/rdock/2013.1/src/exe/rbdock.cxx#4 $)

>  <Rbt.Library>
libRbt.so (2013.1, Build901 2013/11/27)

>  <Rbt.Parameter_File>
/export/apps/rDock/src/rDock_2013.1_src/data/scripts/dock_solv.prm

>  <Rbt.Receptor>
prm/blind_docking_20.prm

>  <SCORE>
-15.6175

>  <SCORE.INTER>
-25.6457

>  <SCORE.INTER.CONST>
1

>  <SCORE.INTER.POLAR>
-3.39586

>  <SCORE.INTER.ROT>
6

>  <SCORE.INTER.SOLV>
28.2824

>  <SCORE.INTER.VDW>
-22.805

>  <SCORE.INTER.norm>
-0.82728

>  <SCORE.INTRA>
6.54068

>  <SCORE.INTRA.DIHEDRAL>
7.59661

>  <SCORE.INTRA.DIHEDRAL.0>
18.4149

>  <SCORE.INTRA.POLAR>
-0.279921

>  <SCORE.INTRA.POLAR.0>
0

>  <SCORE.INTRA.REPUL>
-0.092687

>  <SCORE.INTRA.REPUL.0>
0.092687

>  <SCORE.INTRA.SOLV>
-2.33898

>  <SCORE.INTRA.SOLV.lig_0>
-120.37

>  <SCORE.INTRA.VDW>
5.32703

>  <SCORE.INTRA.VDW.0>
-1.75542

>  <SCORE.INTRA.norm>
0.21099

>  <SCORE.RESTR>
3.48749

>  <SCORE.RESTR.CAVITY>
3.48749

>  <SCORE.RESTR.norm>
0.1125

>  <SCORE.SYSTEM>
0

>  <SCORE.SYSTEM.CONST>
0

>  <SCORE.SYSTEM.DIHEDRAL>
0

>  <SCORE.SYSTEM.SOLV>
0

>  <SCORE.SYSTEM.norm>
0

>  <SCORE.heavy>
31

>  <SCORE.norm>
-0.503791

>  <RMSD>
12.587

$$$$
1byj cryst
 OpenBabel11021811383D
libRbt.so/2013.1/901 2013/11/27
 31 33  0  0  0  0  0  0  0  0999 V2000
    3.3787   -2.0684  -10.2275 C   0  0  1  0  0  0  0  0  0  0  0  0
    3.5498   -2.7857   -8.9632 O   0  0  0  0  0  0  0  0  0  0  0  0
    2.6277   -2.5036   -7.8683 C   0  0  2  0  0  0  0  0  0  0  0  0
    1.2793   -2.9785   -8.1732 O   0  0  0  0  0  0  0  0  0  0  0  0
    2.6287   -0.9724   -7.5755 C   0  0  2  0  0  0  0  0  0  0  0  0
    1.7203   -0.5890   -6.4769 N   0  3  0  0  0  0  0  0  0  0  0  0
    2.2806   -0.1839   -8.8644 C   0  0  0  0  0  0  0  0  0  0  0  0
    3.2474   -0.5364  -10.0048 C   0  0  0  0  0  0  0  0  0  0  0  0
    4.5858   -2.3469  -11.1403 C   0  0  0  0  0  0  0  0  0  0  0  0
    4.3627   -1.9859  -12.5465 N   0  3  0  0  0  0  0  0  0  0  0  0
    0.8800   -4.8549   -6.6273 C   0  0  1  0  0  0  0  0  0  0  0  0
   -0.0584   -5.4365   -5.5420 C   0  0  0  0  0  0  0  0  0  0  0  0
   -1.5111   -5.5415   -6.0791 C   0  0  1  0  0  0  0  0  0  0  0  0
   -2.3780   -6.1687   -5.0632 N   0  3  0  0  0  0  0  0  0  0  0  0
   -2.0326   -4.1373   -6.5006 C   0  0  1  0  0  0  0  0  0  0  0  0
   -1.0790   -3.4539   -7.5125 C   0  0  1  0  0  0  0  0  0  0  0  0
   -1.5583   -2.1293   -7.6908 O   0  0  0  0  0  0  0  0  0  0  0  0
    0.4232   -3.4281   -7.0765 C   0  0  2  0  0  0  0  0  0  0  0  0
    2.2723   -4.8553   -6.1449 N   0  3  0  0  0  0  0  0  0  0  0  0
   -4.3504   -1.7864   -5.6477 C   0  0  0  0  0  0  0  0  0  0  0  0
   -5.6937   -1.4192   -6.3246 C   0  0  2  0  0  0  0  0  0  0  0  0
   -6.7062   -1.5219   -5.3243 O   0  0  0  0  0  0  0  0  0  0  0  0
   -5.9729   -2.4167   -7.5113 C   0  0  1  0  0  0  0  0  0  0  0  0
   -5.7846   -3.9174   -7.1031 C   0  0  2  0  0  0  0  0  0  0  0  0
   -4.4982   -4.1763   -6.2785 C   0  0  1  0  0  0  0  0  0  0  0  0
   -3.3345   -4.2460   -7.1438 O   0  0  0  0  0  0  0  0  0  0  0  0
   -4.3385   -3.1779   -5.2313 O   0  0  0  0  0  0  0  0  0  0  0  0
   -5.7791   -4.7712   -8.2442 O   0  0  0  0  0  0  0  0  0  0  0  0
   -7.3481   -2.1857   -8.0534 N   0  3  0  0  0  0  0  0  0  0  0  0
   -7.4758   -1.2316   -9.1738 C   0  0  0  0  0  0  0  0  0  0  0  0
   -5.6350    0.0630   -6.7694 C   0  0  0  0  0  0  0  0  0  0  0  0
  1  8  1  0  0  0  0
  1  9  1  6  0  0  0
  1  2  1  0  0  0  0
  2  3  1  0  0  0  0
  3  5  1  0  0  0  0
  3  4  1  6  0  0  0
  5  7  1  0  0  0  0
  5  6  1  1  0  0  0
  7  8  1  0  0  0  0
  9 10  1  0  0  0  0
 11 12  1  0  0  0  0
 11 18  1  0  0  0  0
 11 19  1  1  0  0  0
 12 13  1  0  0  0  0
 13 15  1  0  0  0  0
 13 14  1  1  0  0  0
 15 16  1  0  0  0  0
 15 26  1  6  0  0  0
 16 18  1  0  0  0  0
 16 17  1  1  0  0  0
 18  4  1  6  0  0  0
 20 21  1  0  0  0  0
 20 27  1  0  0  0  0
 21 31  1  6  0  0  0
 21 23  1  0  0  0  0
 21 22  1  0  0  0  0
 23 24  1  0  0  0  0
 23 29  1  1  0  0  0
 24 25  1  0  0  0  0
 24 28  1  6  0  0  0
 25 27  1  0  0  0  0
 25 26  1  6  0  0  0
 29 30  1  0  0  0  0
M  CHG  5   6   1  10   1  14   1  19   1  29   1
M  END
>  <CHROM.1>
164.39222644,148.82259653,-76.72439204,62.58425190,64.84377578,57.62128884
97.67424312,89.46461123,-62.24411824,58.73796665,-147.27405471,-126.15068252
164.56150343,-1.38783875,-2.83385140,-7.51376080,0.20915778,0.17322774,-0.69269753

>  <Name>
1byj cryst

>  <RI>
0

>  <Rbt.Current_Directory>
/home/itssahil/PROJECTS/Mol_Feturizer/New_Systems/rnas/1byj

>  <Rbt.Executable>
rbdock ($Id: //depot/dev/client3/rdock/2013.1/src/exe/rbdock.cxx#4 $)

>  <Rbt.Library>
libRbt.so (2013.1, Build901 2013/11/27)

>  <Rbt.Parameter_File>
/export/apps/rDock/src/rDock_2013.1_src/data/scripts/dock_solv.prm

>  <Rbt.Receptor>
prm/blind_docking_20.prm

>  <SCORE>
4.15809

>  <SCORE.INTER>
-1.15642

>  <SCORE.INTER.CONST>
1

>  <SCORE.INTER.POLAR>
-4.78083

>  <SCORE.INTER.ROT>
6

>  <SCORE.INTER.SOLV>
35.8516

>  <SCORE.INTER.VDW>
-4.38541

>  <SCORE.INTER.norm>
-0.037304

>  <SCORE.INTRA>
1.39155

>  <SCORE.INTRA.DIHEDRAL>
3.8467

>  <SCORE.INTRA.DIHEDRAL.0>
18.4149

>  <SCORE.INTRA.POLAR>
-0.114685

>  <SCORE.INTRA.POLAR.0>
0

>  <SCORE.INTRA.REPUL>
-0.092687

>  <SCORE.INTRA.REPUL.0>
0.092687

>  <SCORE.INTRA.SOLV>
-0.287924

>  <SCORE.INTRA.SOLV.lig_0>
-120.37

>  <SCORE.INTRA.VDW>
0.465524

>  <SCORE.INTRA.VDW.0>
-1.75542

>  <SCORE.INTRA.norm>
0.0448887

>  <SCORE.RESTR>
3.92296

>  <SCORE.RESTR.CAVITY>
3.92296

>  <SCORE.RESTR.norm>
0.126547

>  <SCORE.SYSTEM>
0

>  <SCORE.SYSTEM.CONST>
0

>  <SCORE.SYSTEM.DIHEDRAL>
0

>  <SCORE.SYSTEM.SOLV>
0

>  <SCORE.SYSTEM.norm>
0

>  <SCORE.heavy>
31

>  <SCORE.norm>
0.134132

>  <RMSD>
12.594

$$$$
1byj cryst
 OpenBabel11021811383D
libRbt.so/2013.1/901 2013/11/27
 31 33  0  0  0  0  0  0  0  0999 V2000
    1.9177   -3.6264   -8.0660 C   0  0  1  0  0  0  0  0  0  0  0  0
    1.3126   -2.8739   -6.9660 O   0  0  0  0  0  0  0  0  0  0  0  0
    0.6983   -1.5828   -7.2561 C   0  0  2  0  0  0  0  0  0  0  0  0
   -0.5096   -1.7385   -8.0646 O   0  0  0  0  0  0  0  0  0  0  0  0
    1.7370   -0.6674   -7.9727 C   0  0  2  0  0  0  0  0  0  0  0  0
    1.2032    0.6675   -8.3079 N   0  3  0  0  0  0  0  0  0  0  0  0
    2.2757   -1.3692   -9.2460 C   0  0  0  0  0  0  0  0  0  0  0  0
    2.8783   -2.7409   -8.9068 C   0  0  0  0  0  0  0  0  0  0  0  0
    2.6989   -4.8238   -7.4969 C   0  0  0  0  0  0  0  0  0  0  0  0
    1.9580   -5.5899   -6.4862 N   0  3  0  0  0  0  0  0  0  0  0  0
   -2.3448   -3.0530   -9.0515 C   0  0  1  0  0  0  0  0  0  0  0  0
   -3.3535   -4.2056   -8.8261 C   0  0  0  0  0  0  0  0  0  0  0  0
   -4.1962   -3.9482   -7.5481 C   0  0  1  0  0  0  0  0  0  0  0  0
   -5.2048   -5.0132   -7.3886 N   0  3  0  0  0  0  0  0  0  0  0  0
   -3.2680   -3.8362   -6.3041 C   0  0  1  0  0  0  0  0  0  0  0  0
   -2.1662   -2.7663   -6.5080 C   0  0  1  0  0  0  0  0  0  0  0  0
   -1.2883   -2.8713   -5.3970 O   0  0  0  0  0  0  0  0  0  0  0  0
   -1.3629   -2.9049   -7.8432 C   0  0  2  0  0  0  0  0  0  0  0  0
   -1.6224   -3.2541  -10.3200 N   0  3  0  0  0  0  0  0  0  0  0  0
   -7.0815   -3.5701   -5.2213 C   0  0  0  0  0  0  0  0  0  0  0  0
   -7.5610   -2.8849   -3.9182 C   0  0  2  0  0  0  0  0  0  0  0  0
   -8.3405   -1.7538   -4.3046 O   0  0  0  0  0  0  0  0  0  0  0  0
   -6.3111   -2.4420   -3.0680 C   0  0  1  0  0  0  0  0  0  0  0  0
   -5.2436   -1.6662   -3.9122 C   0  0  2  0  0  0  0  0  0  0  0  0
   -4.9420   -2.3251   -5.2822 C   0  0  1  0  0  0  0  0  0  0  0  0
   -4.0326   -3.4462   -5.1277 O   0  0  0  0  0  0  0  0  0  0  0  0
   -6.1716   -2.7111   -5.9589 O   0  0  0  0  0  0  0  0  0  0  0  0
   -4.0212   -1.5154   -3.1952 O   0  0  0  0  0  0  0  0  0  0  0  0
   -6.7588   -1.6211   -1.9001 N   0  3  0  0  0  0  0  0  0  0  0  0
   -7.2721   -2.3522   -0.7237 C   0  0  0  0  0  0  0  0  0  0  0  0
   -8.5024   -3.8570   -3.1653 C   0  0  0  0  0  0  0  0  0  0  0  0
  1  8  1  0  0  0  0
  1  9  1  1  0  0  0
  1  2  1  0  0  0  0
  2  3  1  0  0  0  0
  3  5  1  0  0  0  0
  3  4  1  6  0  0  0
  5  7  1  0  0  0  0
  5  6  1  6  0  0  0
  7  8  1  0  0  0  0
  9 10  1  0  0  0  0
 11 12  1  0  0  0  0
 11 18  1  0  0  0  0
 11 19  1  6  0  0  0
 12 13  1  0  0  0  0
 13 15  1  0  0  0  0
 13 14  1  1  0  0  0
 15 16  1  0  0  0  0
 15 26  1  1  0  0  0
 16 18  1  0  0  0  0
 16 17  1  1  0  0  0
 18  4  1  6  0  0  0
 20 21  1  0  0  0  0
 20 27  1  0  0  0  0
 21 31  1  1  0  0  0
 21 23  1  0  0  0  0
 21 22  1  0  0  0  0
 23 24  1  0  0  0  0
 23 29  1  1  0  0  0
 24 25  1  0  0  0  0
 24 28  1  1  0  0  0
 25 27  1  0  0  0  0
 25 26  1  1  0  0  0
 29 30  1  0  0  0  0
M  CHG  5   6   1  10   1  14   1  19   1  29   1
M  END
>  <CHROM.1>
46.69487960,35.21726340,-164.83579073,68.08827585,75.30613651,69.20485284
51.58691975,-47.82242845,-46.00617627,172.47847086,-158.43459443,-5.47903825
-157.30195049,-2.75263432,-2.78109488,-6.22383481,-0.44278685,0.26519323
1.06748275

>  <Name>
1byj cryst

>  <RI>
0

>  <Rbt.Current_Directory>
/home/itssahil/PROJECTS/Mol_Feturizer/New_Systems/rnas/1byj

>  <Rbt.Executable>
rbdock ($Id: //depot/dev/client3/rdock/2013.1/src/exe/rbdock.cxx#4 $)

>  <Rbt.Library>
libRbt.so (2013.1, Build901 2013/11/27)

>  <Rbt.Parameter_File>
/export/apps/rDock/src/rDock_2013.1_src/data/scripts/dock_solv.prm

>  <Rbt.Receptor>
prm/blind_docking_100.prm

>  <SCORE>
-10.0808

>  <SCORE.INTER>
-18.3762

>  <SCORE.INTER.CONST>
1

>  <SCORE.INTER.POLAR>
-3.60723

>  <SCORE.INTER.ROT>
6

>  <SCORE.INTER.SOLV>
25.5764

>  <SCORE.INTER.VDW>
-16.3522

>  <SCORE.INTER.norm>
-0.592781

>  <SCORE.INTRA>
0.667942

>  <SCORE.INTRA.DIHEDRAL>
-0.801324

>  <SCORE.INTRA.DIHEDRAL.0>
18.4149

>  <SCORE.INTRA.POLAR>
-0.106175

>  <SCORE.INTRA.POLAR.0>
0

>  <SCORE.INTRA.REPUL>
-0.092687

>  <SCORE.INTRA.REPUL.0>
0.092687

>  <SCORE.INTRA.SOLV>
-0.784267

>  <SCORE.INTRA.SOLV.lig_0>
-120.37

>  <SCORE.INTRA.VDW>
2.28517

>  <SCORE.INTRA.VDW.0>
-1.75542

>  <SCORE.INTRA.norm>
0.0215465

>  <SCORE.RESTR>
7.62742

>  <SCORE.RESTR.CAVITY>
7.62742

>  <SCORE.RESTR.norm>
0.246046

>  <SCORE.SYSTEM>
0

>  <SCORE.SYSTEM.CONST>
0

>  <SCORE.SYSTEM.DIHEDRAL>
0

>  <SCORE.SYSTEM.SOLV>
0

>  <SCORE.SYSTEM.norm>
0

>  <SCORE.heavy>
31

>  <SCORE.norm>
-0.325189

>  <RMSD>
12.596

$$$$
1byj cryst
 OpenBabel11021811383D
libRbt.so/2013.1/901 2013/11/27
 31 33  0  0  0  0  0  0  0  0999 V2000
   -4.4425    0.4415    0.1706 C   0  0  1  0  0  0  0  0  0  0  0  0
   -3.5074    0.7118   -0.9224 O   0  0  0  0  0  0  0  0  0  0  0  0
   -2.6923   -0.3851   -1.4332 C   0  0  2  0  0  0  0  0  0  0  0  0
   -3.5112   -1.3775   -2.1271 O   0  0  0  0  0  0  0  0  0  0  0  0
   -1.9054   -1.0346   -0.2545 C   0  0  2  0  0  0  0  0  0  0  0  0
   -1.0484   -2.1600   -0.6766 N   0  3  0  0  0  0  0  0  0  0  0  0
   -2.8885   -1.4904    0.8544 C   0  0  0  0  0  0  0  0  0  0  0  0
   -3.7558   -0.3187    1.3386 C   0  0  0  0  0  0  0  0  0  0  0  0
   -5.0123    1.7710    0.6960 C   0  0  0  0  0  0  0  0  0  0  0  0
   -4.0138    2.8423    0.8070 N   0  3  0  0  0  0  0  0  0  0  0  0
   -5.0894   -1.9747   -3.9223 C   0  0  1  0  0  0  0  0  0  0  0  0
   -5.3732   -1.9174   -5.4431 C   0  0  0  0  0  0  0  0  0  0  0  0
   -4.1968   -2.5433   -6.2395 C   0  0  1  0  0  0  0  0  0  0  0  0
   -4.5145   -2.5528   -7.6803 N   0  3  0  0  0  0  0  0  0  0  0  0
   -2.8758   -1.7768   -5.9410 C   0  0  1  0  0  0  0  0  0  0  0  0
   -2.5866   -1.7078   -4.4205 C   0  0  1  0  0  0  0  0  0  0  0  0
   -1.4662   -0.8507   -4.2592 O   0  0  0  0  0  0  0  0  0  0  0  0
   -3.7837   -1.1975   -3.5523 C   0  0  2  0  0  0  0  0  0  0  0  0
   -6.2540   -1.4734   -3.1714 N   0  3  0  0  0  0  0  0  0  0  0  0
   -0.3729   -4.9343   -5.4429 C   0  0  0  0  0  0  0  0  0  0  0  0
    0.9371   -5.0834   -6.2549 C   0  0  2  0  0  0  0  0  0  0  0  0
    2.0164   -4.9844   -5.3268 O   0  0  0  0  0  0  0  0  0  0  0  0
    1.0177   -3.9394   -7.3347 C   0  0  1  0  0  0  0  0  0  0  0  0
    0.7221   -2.5198   -6.7419 C   0  0  2  0  0  0  0  0  0  0  0  0
   -0.5085   -2.4879   -5.8003 C   0  0  1  0  0  0  0  0  0  0  0  0
   -1.7427   -2.4469   -6.5636 O   0  0  0  0  0  0  0  0  0  0  0  0
   -0.4824   -3.6051   -4.8675 O   0  0  0  0  0  0  0  0  0  0  0  0
    0.5380   -1.5526   -7.7723 O   0  0  0  0  0  0  0  0  0  0  0  0
    2.3576   -3.9651   -7.9998 N   0  3  0  0  0  0  0  0  0  0  0  0
    2.5517   -3.0620   -9.1525 C   0  0  0  0  0  0  0  0  0  0  0  0
    0.9828   -6.5066   -6.8638 C   0  0  0  0  0  0  0  0  0  0  0  0
  1  8  1  0  0  0  0
  1  9  1  1  0  0  0
  1  2  1  0  0  0  0
  2  3  1  0  0  0  0
  3  5  1  0  0  0  0
  3  4  1  1  0  0  0
  5  7  1  0  0  0  0
  5  6  1  6  0  0  0
  7  8  1  0  0  0  0
  9 10  1  0  0  0  0
 11 12  1  0  0  0  0
 11 18  1  0  0  0  0
 11 19  1  1  0  0  0
 12 13  1  0  0  0  0
 13 15  1  0  0  0  0
 13 14  1  6  0  0  0
 15 16  1  0  0  0  0
 15 26  1  6  0  0  0
 16 18  1  0  0  0  0
 16 17  1  6  0  0  0
 18  4  1  1  0  0  0
 20 21  1  0  0  0  0
 20 27  1  0  0  0  0
 21 31  1  6  0  0  0
 21 23  1  0  0  0  0
 21 22  1  0  0  0  0
 23 24  1  0  0  0  0
 23 29  1  1  0  0  0
 24 25  1  0  0  0  0
 24 28  1  6  0  0  0
 25 27  1  0  0  0  0
 25 26  1  6  0  0  0
 29 30  1  0  0  0  0
M  CHG  5   6   1  10   1  14   1  19   1  29   1
M  END
>  <CHROM.1>
-41.43293161,87.80724820,-156.68616438,51.77556265,69.64783179,44.14168366
-31.89185614,-141.07329758,-175.85975301,178.69293123,-65.97083569,164.00231187
-150.56891130,-1.94035646,-1.98827270,-4.08548277,-2.15260024,0.33565797
-1.90132665

>  <Name>
1byj cryst

>  <RI>
0

>  <Rbt.Current_Directory>
/home/itssahil/PROJECTS/Mol_Feturizer/New_Systems/rnas/1byj

>  <Rbt.Executable>
rbdock ($Id: //depot/dev/client3/rdock/2013.1/src/exe/rbdock.cxx#4 $)

>  <Rbt.Library>
libRbt.so (2013.1, Build901 2013/11/27)

>  <Rbt.Parameter_File>
/export/apps/rDock/src/rDock_2013.1_src/data/scripts/dock_solv.prm

>  <Rbt.Receptor>
prm/blind_docking_20.prm

>  <SCORE>
-23.2947

>  <SCORE.INTER>
-33.7044

>  <SCORE.INTER.CONST>
1

>  <SCORE.INTER.POLAR>
-4.84265

>  <SCORE.INTER.ROT>
6

>  <SCORE.INTER.SOLV>
26.5153

>  <SCORE.INTER.VDW>
-22.7659

>  <SCORE.INTER.norm>
-1.08724

>  <SCORE.INTRA>
5.99311

>  <SCORE.INTRA.DIHEDRAL>
1.25643

>  <SCORE.INTRA.DIHEDRAL.0>
18.4149

>  <SCORE.INTRA.POLAR>
0

>  <SCORE.INTRA.POLAR.0>
0

>  <SCORE.INTRA.REPUL>
0.00460442

>  <SCORE.INTRA.REPUL.0>
0.092687

>  <SCORE.INTRA.SOLV>
-1.70872

>  <SCORE.INTRA.SOLV.lig_0>
-120.37

>  <SCORE.INTRA.VDW>
6.19624

>  <SCORE.INTRA.VDW.0>
-1.75542

>  <SCORE.INTRA.norm>
0.193326

>  <SCORE.RESTR>
4.41656

>  <SCORE.RESTR.CAVITY>
4.41656

>  <SCORE.RESTR.norm>
0.14247

>  <SCORE.SYSTEM>
0

>  <SCORE.SYSTEM.CONST>
0

>  <SCORE.SYSTEM.DIHEDRAL>
0

>  <SCORE.SYSTEM.SOLV>
0

>  <SCORE.SYSTEM.norm>
0

>  <SCORE.heavy>
31

>  <SCORE.norm>
-0.751443

>  <RMSD>
12.632

$$$$
1byj cryst
 OpenBabel11021811383D
libRbt.so/2013.1/901 2013/11/27
 31 33  0  0  0  0  0  0  0  0999 V2000
   -4.2413    0.6212    0.0040 C   0  0  1  0  0  0  0  0  0  0  0  0
   -3.3051    0.7991   -1.1068 O   0  0  0  0  0  0  0  0  0  0  0  0
   -2.5484   -0.3566   -1.5762 C   0  0  2  0  0  0  0  0  0  0  0  0
   -3.4205   -1.3371   -2.2203 O   0  0  0  0  0  0  0  0  0  0  0  0
   -1.7819   -0.9923   -0.3767 C   0  0  2  0  0  0  0  0  0  0  0  0
   -0.9839   -2.1747   -0.7565 N   0  3  0  0  0  0  0  0  0  0  0  0
   -2.7748   -1.3525    0.7584 C   0  0  0  0  0  0  0  0  0  0  0  0
   -3.5803   -0.1207    1.1983 C   0  0  0  0  0  0  0  0  0  0  0  0
   -4.7417    1.9977    0.4760 C   0  0  0  0  0  0  0  0  0  0  0  0
   -6.0842    1.9694    1.0710 N   0  3  0  0  0  0  0  0  0  0  0  0
   -4.9776   -2.0265   -4.0009 C   0  0  1  0  0  0  0  0  0  0  0  0
   -5.2546   -2.0272   -5.5240 C   0  0  0  0  0  0  0  0  0  0  0  0
   -4.0623   -2.6570   -6.2930 C   0  0  1  0  0  0  0  0  0  0  0  0
   -4.3722   -2.7223   -7.7340 N   0  3  0  0  0  0  0  0  0  0  0  0
   -2.7579   -1.8550   -6.0152 C   0  0  1  0  0  0  0  0  0  0  0  0
   -2.4779   -1.7281   -4.4967 C   0  0  1  0  0  0  0  0  0  0  0  0
   -1.3752   -0.8441   -4.3601 O   0  0  0  0  0  0  0  0  0  0  0  0
   -3.6891   -1.2116   -3.6520 C   0  0  2  0  0  0  0  0  0  0  0  0
   -6.1555   -1.5225   -3.2729 N   0  3  0  0  0  0  0  0  0  0  0  0
   -0.0164   -4.9060   -5.5560 C   0  0  0  0  0  0  0  0  0  0  0  0
    1.2906   -4.9262   -6.3860 C   0  0  2  0  0  0  0  0  0  0  0  0
    2.3697   -4.7532   -5.4686 O   0  0  0  0  0  0  0  0  0  0  0  0
    1.2587   -3.7586   -7.4429 C   0  0  1  0  0  0  0  0  0  0  0  0
    0.8506   -2.3815   -6.8175 C   0  0  2  0  0  0  0  0  0  0  0  0
   -0.3656   -2.4737   -5.8612 C   0  0  1  0  0  0  0  0  0  0  0  0
   -1.6088   -2.5239   -6.6092 O   0  0  0  0  0  0  0  0  0  0  0  0
   -0.2316   -3.6026   -4.9521 O   0  0  0  0  0  0  0  0  0  0  0  0
    0.5708   -1.4136   -7.8255 O   0  0  0  0  0  0  0  0  0  0  0  0
    2.5869   -3.6562   -8.1238 N   0  3  0  0  0  0  0  0  0  0  0  0
    2.6891   -2.7136   -9.2564 C   0  0  0  0  0  0  0  0  0  0  0  0
    1.4498   -6.3280   -7.0246 C   0  0  0  0  0  0  0  0  0  0  0  0
  1  8  1  0  0  0  0
  1  9  1  1  0  0  0
  1  2  1  0  0  0  0
  2  3  1  0  0  0  0
  3  5  1  0  0  0  0
  3  4  1  1  0  0  0
  5  7  1  0  0  0  0
  5  6  1  6  0  0  0
  7  8  1  0  0  0  0
  9 10  1  0  0  0  0
 11 12  1  0  0  0  0
 11 18  1  0  0  0  0
 11 19  1  1  0  0  0
 12 13  1  0  0  0  0
 13 15  1  0  0  0  0
 13 14  1  6  0  0  0
 15 16  1  0  0  0  0
 15 26  1  6  0  0  0
 16 18  1  0  0  0  0
 16 17  1  6  0  0  0
 18  4  1  1  0  0  0
 20 21  1  0  0  0  0
 20 27  1  0  0  0  0
 21 31  1  6  0  0  0
 21 23  1  0  0  0  0
 21 22  1  0  0  0  0
 23 24  1  0  0  0  0
 23 29  1  1  0  0  0
 24 25  1  0  0  0  0
 24 28  1  6  0  0  0
 25 27  1  0  0  0  0
 25 26  1  6  0  0  0
 29 30  1  0  0  0  0
M  CHG  5   6   1  10   1  14   1  19   1  29   1
M  END
>  <CHROM.1>
151.79429329,88.31166906,-160.88046918,48.99448705,-57.30969975,-78.51580675
-44.18694735,-143.18465500,66.04587291,54.59726337,-65.74544201,166.97662787
-144.96551662,-1.85780000,-1.95876642,-4.17616099,-2.20314760,0.31178240
-1.87346579

>  <Name>
1byj cryst

>  <RI>
0

>  <Rbt.Current_Directory>
/home/itssahil/PROJECTS/Mol_Feturizer/New_Systems/rnas/1byj

>  <Rbt.Executable>
rbdock ($Id: //depot/dev/client3/rdock/2013.1/src/exe/rbdock.cxx#4 $)

>  <Rbt.Library>
libRbt.so (2013.1, Build901 2013/11/27)

>  <Rbt.Parameter_File>
/export/apps/rDock/src/rDock_2013.1_src/data/scripts/dock_solv.prm

>  <Rbt.Receptor>
prm/blind_docking_20.prm

>  <SCORE>
-24.5652

>  <SCORE.INTER>
-33.1828

>  <SCORE.INTER.CONST>
1

>  <SCORE.INTER.POLAR>
-4.7009

>  <SCORE.INTER.ROT>
6

>  <SCORE.INTER.SOLV>
21.9091

>  <SCORE.INTER.VDW>
-21.3552

>  <SCORE.INTER.norm>
-1.07041

>  <SCORE.INTRA>
4.36346

>  <SCORE.INTRA.DIHEDRAL>
1.45438

>  <SCORE.INTRA.DIHEDRAL.0>
18.4149

>  <SCORE.INTRA.POLAR>
0

>  <SCORE.INTRA.POLAR.0>
0

>  <SCORE.INTRA.REPUL>
-0.092687

>  <SCORE.INTRA.REPUL.0>
0.092687

>  <SCORE.INTRA.SOLV>
-4.49893

>  <SCORE.INTRA.SOLV.lig_0>
-120.37

>  <SCORE.INTRA.VDW>
6.34917

>  <SCORE.INTRA.VDW.0>
-1.75542

>  <SCORE.INTRA.norm>
0.140757

>  <SCORE.RESTR>
4.25408

>  <SCORE.RESTR.CAVITY>
4.25408

>  <SCORE.RESTR.norm>
0.137228

>  <SCORE.SYSTEM>
0

>  <SCORE.SYSTEM.CONST>
0

>  <SCORE.SYSTEM.DIHEDRAL>
0

>  <SCORE.SYSTEM.SOLV>
0

>  <SCORE.SYSTEM.norm>
0

>  <SCORE.heavy>
31

>  <SCORE.norm>
-0.792426

>  <RMSD>
12.632

$$$$
1byj cryst
 OpenBabel11021811383D
libRbt.so/2013.1/901 2013/11/27
 31 33  0  0  0  0  0  0  0  0999 V2000
   -4.4761    0.4094    0.4948 C   0  0  1  0  0  0  0  0  0  0  0  0
   -3.7769    0.8573   -0.7104 O   0  0  0  0  0  0  0  0  0  0  0  0
   -2.9297   -0.0937   -1.4221 C   0  0  2  0  0  0  0  0  0  0  0  0
   -3.7244   -1.1495   -2.0470 O   0  0  0  0  0  0  0  0  0  0  0  0
   -1.8833   -0.6920   -0.4333 C   0  0  2  0  0  0  0  0  0  0  0  0
   -0.9769   -1.6701   -1.0663 N   0  3  0  0  0  0  0  0  0  0  0  0
   -2.6041   -1.3308    0.7818 C   0  0  0  0  0  0  0  0  0  0  0  0
   -3.5159   -0.3114    1.4809 C   0  0  0  0  0  0  0  0  0  0  0  0
   -5.1095    1.6224    1.1987 C   0  0  0  0  0  0  0  0  0  0  0  0
   -4.7598    2.9120    0.5888 N   0  3  0  0  0  0  0  0  0  0  0  0
   -5.3023   -1.8954   -3.7860 C   0  0  1  0  0  0  0  0  0  0  0  0
   -5.6012   -1.9377   -5.3044 C   0  0  0  0  0  0  0  0  0  0  0  0
   -4.4158   -2.5797   -6.0741 C   0  0  1  0  0  0  0  0  0  0  0  0
   -4.7461   -2.6847   -7.5082 N   0  3  0  0  0  0  0  0  0  0  0  0
   -3.1132   -1.7623   -5.8364 C   0  0  1  0  0  0  0  0  0  0  0  0
   -2.8121   -1.5938   -4.3260 C   0  0  1  0  0  0  0  0  0  0  0  0
   -1.7136   -0.6994   -4.2286 O   0  0  0  0  0  0  0  0  0  0  0  0
   -4.0145   -1.0633   -3.4774 C   0  0  2  0  0  0  0  0  0  0  0  0
   -6.4730   -1.3802   -3.0543 N   0  3  0  0  0  0  0  0  0  0  0  0
   -0.7755   -5.2468   -6.5424 C   0  0  0  0  0  0  0  0  0  0  0  0
    0.7169   -5.0454   -6.9029 C   0  0  2  0  0  0  0  0  0  0  0  0
    1.4821   -5.5733   -5.8203 O   0  0  0  0  0  0  0  0  0  0  0  0
    1.0063   -3.5095   -7.0993 C   0  0  1  0  0  0  0  0  0  0  0  0
    0.4458   -2.6295   -5.9308 C   0  0  2  0  0  0  0  0  0  0  0  0
   -0.9976   -3.0067   -5.5112 C   0  0  1  0  0  0  0  0  0  0  0  0
   -1.9682   -2.4389   -6.4295 O   0  0  0  0  0  0  0  0  0  0  0  0
   -1.1458   -4.4494   -5.3862 O   0  0  0  0  0  0  0  0  0  0  0  0
    0.4820   -1.2430   -6.2588 O   0  0  0  0  0  0  0  0  0  0  0  0
    2.4765   -3.2892   -7.2678 N   0  3  0  0  0  0  0  0  0  0  0  0
    3.2055   -2.7195   -6.1164 C   0  0  0  0  0  0  0  0  0  0  0  0
    1.0429   -5.8965   -8.1549 C   0  0  0  0  0  0  0  0  0  0  0  0
  1  8  1  0  0  0  0
  1  9  1  1  0  0  0
  1  2  1  0  0  0  0
  2  3  1  0  0  0  0
  3  5  1  0  0  0  0
  3  4  1  1  0  0  0
  5  7  1  0  0  0  0
  5  6  1  6  0  0  0
  7  8  1  0  0  0  0
  9 10  1  0  0  0  0
 11 12  1  0  0  0  0
 11 18  1  0  0  0  0
 11 19  1  1  0  0  0
 12 13  1  0  0  0  0
 13 15  1  0  0  0  0
 13 14  1  6  0  0  0
 15 16  1  0  0  0  0
 15 26  1  6  0  0  0
 16 18  1  0  0  0  0
 16 17  1  6  0  0  0
 18  4  1  1  0  0  0
 20 21  1  0  0  0  0
 20 27  1  0  0  0  0
 21 31  1  6  0  0  0
 21 23  1  0  0  0  0
 21 22  1  0  0  0  0
 23 24  1  0  0  0  0
 23 29  1  1  0  0  0
 24 25  1  0  0  0  0
 24 28  1  6  0  0  0
 25 27  1  0  0  0  0
 25 26  1  6  0  0  0
 29 30  1  0  0  0  0
M  CHG  5   6   1  10   1  14   1  19   1  29   1
M  END
>  <CHROM.1>
-5.64514964,100.44235330,-156.49697818,64.60873424,116.56773563,39.52916745
-32.25280663,-110.48385888,-30.71419862,-39.92287567,16.14086611,-52.54610268
-133.00977188,-2.10887204,-1.92225314,-3.95454423,-2.13546885,0.18029803
-2.05016757

>  <Name>
1byj cryst

>  <RI>
0

>  <Rbt.Current_Directory>
/home/itssahil/PROJECTS/Mol_Feturizer/New_Systems/rnas/1byj

>  <Rbt.Executable>
rbdock ($Id: //depot/dev/client3/rdock/2013.1/src/exe/rbdock.cxx#4 $)

>  <Rbt.Library>
libRbt.so (2013.1, Build901 2013/11/27)

>  <Rbt.Parameter_File>
/export/apps/rDock/src/rDock_2013.1_src/data/scripts/dock_solv.prm

>  <Rbt.Receptor>
prm/blind_docking_20.prm

>  <SCORE>
-6.88731

>  <SCORE.INTER>
-25.6289

>  <SCORE.INTER.CONST>
1

>  <SCORE.INTER.POLAR>
-3.62956

>  <SCORE.INTER.ROT>
6

>  <SCORE.INTER.SOLV>
23.8398

>  <SCORE.INTER.VDW>
-20.534

>  <SCORE.INTER.norm>
-0.826739

>  <SCORE.INTRA>
13.9433

>  <SCORE.INTRA.DIHEDRAL>
22.742

>  <SCORE.INTRA.DIHEDRAL.0>
18.4149

>  <SCORE.INTRA.POLAR>
-1.40367

>  <SCORE.INTRA.POLAR.0>
0

>  <SCORE.INTRA.REPUL>
-0.092687

>  <SCORE.INTRA.REPUL.0>
0.092687

>  <SCORE.INTRA.SOLV>
-2.03656

>  <SCORE.INTRA.SOLV.lig_0>
-120.37

>  <SCORE.INTRA.VDW>
8.82654

>  <SCORE.INTRA.VDW.0>
-1.75542

>  <SCORE.INTRA.norm>
0.449785

>  <SCORE.RESTR>
4.79825

>  <SCORE.RESTR.CAVITY>
4.79825

>  <SCORE.RESTR.norm>
0.154782

>  <SCORE.SYSTEM>
0

>  <SCORE.SYSTEM.CONST>
0

>  <SCORE.SYSTEM.DIHEDRAL>
0

>  <SCORE.SYSTEM.SOLV>
0

>  <SCORE.SYSTEM.norm>
0

>  <SCORE.heavy>
31

>  <SCORE.norm>
-0.222171

>  <RMSD>
12.646

$$$$
1byj cryst
 OpenBabel11021811383D
libRbt.so/2013.1/901 2013/11/27
 31 33  0  0  0  0  0  0  0  0999 V2000
    1.0494   -2.6656   -5.3886 C   0  0  1  0  0  0  0  0  0  0  0  0
   -0.1794   -2.0629   -5.9072 O   0  0  0  0  0  0  0  0  0  0  0  0
   -0.2799   -1.8004   -7.3389 C   0  0  2  0  0  0  0  0  0  0  0  0
   -0.3428   -3.0442   -8.1042 O   0  0  0  0  0  0  0  0  0  0  0  0
    0.9307   -0.9273   -7.7889 C   0  0  2  0  0  0  0  0  0  0  0  0
    0.9151   -0.6088   -9.2302 N   0  3  0  0  0  0  0  0  0  0  0  0
    2.2613   -1.6238   -7.4038 C   0  0  0  0  0  0  0  0  0  0  0  0
    2.3136   -1.9194   -5.8973 C   0  0  0  0  0  0  0  0  0  0  0  0
    1.0251   -2.6323   -3.8503 C   0  0  0  0  0  0  0  0  0  0  0  0
    0.2011   -3.6876   -3.2465 N   0  3  0  0  0  0  0  0  0  0  0  0
   -2.4220   -3.4831   -9.3511 C   0  0  1  0  0  0  0  0  0  0  0  0
   -3.7959   -4.1961   -9.3303 C   0  0  0  0  0  0  0  0  0  0  0  0
   -4.6105   -3.7703   -8.0794 C   0  0  1  0  0  0  0  0  0  0  0  0
   -5.9462   -4.3961   -8.1128 N   0  3  0  0  0  0  0  0  0  0  0  0
   -3.8322   -4.1314   -6.7811 C   0  0  1  0  0  0  0  0  0  0  0  0
   -2.4039   -3.5313   -6.7857 C   0  0  1  0  0  0  0  0  0  0  0  0
   -1.7375   -4.0613   -5.6494 O   0  0  0  0  0  0  0  0  0  0  0  0
   -1.5774   -3.8272   -8.0806 C   0  0  2  0  0  0  0  0  0  0  0  0
   -1.6996   -3.8133  -10.5922 N   0  3  0  0  0  0  0  0  0  0  0  0
   -7.5078   -3.5579   -5.0018 C   0  0  0  0  0  0  0  0  0  0  0  0
   -7.6752   -2.5551   -3.8339 C   0  0  2  0  0  0  0  0  0  0  0  0
   -8.5152   -1.5024   -4.3055 O   0  0  0  0  0  0  0  0  0  0  0  0
   -6.2624   -2.0006   -3.4121 C   0  0  1  0  0  0  0  0  0  0  0  0
   -5.4095   -1.5140   -4.6327 C   0  0  2  0  0  0  0  0  0  0  0  0
   -5.4304   -2.4961   -5.8313 C   0  0  1  0  0  0  0  0  0  0  0  0
   -4.5164   -3.6021   -5.6096 O   0  0  0  0  0  0  0  0  0  0  0  0
   -6.7837   -2.9556   -6.1076 O   0  0  0  0  0  0  0  0  0  0  0  0
   -4.0555   -1.2725   -4.2593 O   0  0  0  0  0  0  0  0  0  0  0  0
   -6.4288   -0.9003   -2.4121 N   0  3  0  0  0  0  0  0  0  0  0  0
   -6.4110   -1.2823   -0.9854 C   0  0  0  0  0  0  0  0  0  0  0  0
   -8.4272   -3.2614   -2.6790 C   0  0  0  0  0  0  0  0  0  0  0  0
  1  8  1  0  0  0  0
  1  9  1  1  0  0  0
  1  2  1  0  0  0  0
  2  3  1  0  0  0  0
  3  5  1  0  0  0  0
  3  4  1  6  0  0  0
  5  7  1  0  0  0  0
  5  6  1  6  0  0  0
  7  8  1  0  0  0  0
  9 10  1  0  0  0  0
 11 12  1  0  0  0  0
 11 18  1  0  0  0  0
 11 19  1  6  0  0  0
 12 13  1  0  0  0  0
 13 15  1  0  0  0  0
 13 14  1  1  0  0  0
 15 16  1  0  0  0  0
 15 26  1  1  0  0  0
 16 18  1  0  0  0  0
 16 17  1  1  0  0  0
 18  4  1  1  0  0  0
 20 21  1  0  0  0  0
 20 27  1  0  0  0  0
 21 31  1  1  0  0  0
 21 23  1  0  0  0  0
 21 22  1  0  0  0  0
 23 24  1  0  0  0  0
 23 29  1  1  0  0  0
 24 25  1  0  0  0  0
 24 28  1  1  0  0  0
 25 27  1  0  0  0  0
 25 26  1  1  0  0  0
 29 30  1  0  0  0  0
M  CHG  5   6   1  10   1  14   1  19   1  29   1
M  END
>  <CHROM.1>
79.06623052,73.62832773,97.22779887,56.19973504,171.06215010,64.87685602
-173.86491691,-21.60371255,-50.23528116,52.71902908,-147.23009477,58.87850157
-145.28679978,-3.16311298,-2.68004820,-5.99080984,-0.41688070,0.12605214
1.28730483

>  <Name>
1byj cryst

>  <RI>
0

>  <Rbt.Current_Directory>
/home/itssahil/PROJECTS/Mol_Feturizer/New_Systems/rnas/1byj

>  <Rbt.Executable>
rbdock ($Id: //depot/dev/client3/rdock/2013.1/src/exe/rbdock.cxx#4 $)

>  <Rbt.Library>
libRbt.so (2013.1, Build901 2013/11/27)

>  <Rbt.Parameter_File>
/export/apps/rDock/src/rDock_2013.1_src/data/scripts/dock_solv.prm

>  <Rbt.Receptor>
prm/blind_docking_40.prm

>  <SCORE>
-29.0692

>  <SCORE.INTER>
-34.6877

>  <SCORE.INTER.CONST>
1

>  <SCORE.INTER.POLAR>
-5.74741

>  <SCORE.INTER.ROT>
6

>  <SCORE.INTER.SOLV>
20.8985

>  <SCORE.INTER.VDW>
-18.5332

>  <SCORE.INTER.norm>
-1.11896

>  <SCORE.INTRA>
-0.894633

>  <SCORE.INTRA.DIHEDRAL>
1.46063

>  <SCORE.INTRA.DIHEDRAL.0>
18.4149

>  <SCORE.INTRA.POLAR>
-1.37547

>  <SCORE.INTRA.POLAR.0>
0

>  <SCORE.INTRA.REPUL>
-0.0345502

>  <SCORE.INTRA.REPUL.0>
0.092687

>  <SCORE.INTRA.SOLV>
1.27888

>  <SCORE.INTRA.SOLV.lig_0>
-120.37

>  <SCORE.INTRA.VDW>
2.58496

>  <SCORE.INTRA.VDW.0>
-1.75542

>  <SCORE.INTRA.norm>
-0.0288591

>  <SCORE.RESTR>
6.5131

>  <SCORE.RESTR.CAVITY>
6.5131

>  <SCORE.RESTR.norm>
0.2101

>  <SCORE.SYSTEM>
0

>  <SCORE.SYSTEM.CONST>
0

>  <SCORE.SYSTEM.DIHEDRAL>
0

>  <SCORE.SYSTEM.SOLV>
0

>  <SCORE.SYSTEM.norm>
0

>  <SCORE.heavy>
31

>  <SCORE.norm>
-0.937716

>  <RMSD>
12.648

$$$$
1byj cryst
 OpenBabel11021811383D
libRbt.so/2013.1/901 2013/11/27
 31 33  0  0  0  0  0  0  0  0999 V2000
    5.1464   -5.6123  -11.4903 C   0  0  1  0  0  0  0  0  0  0  0  0
    5.3213   -4.8533  -10.2511 O   0  0  0  0  0  0  0  0  0  0  0  0
    4.5326   -3.6415  -10.0555 C   0  0  2  0  0  0  0  0  0  0  0  0
    3.1141   -3.9519   -9.8876 O   0  0  0  0  0  0  0  0  0  0  0  0
    4.7561   -2.6809  -11.2629 C   0  0  2  0  0  0  0  0  0  0  0  0
    3.9944   -1.4212  -11.1534 N   0  3  0  0  0  0  0  0  0  0  0  0
    4.4136   -3.4058  -12.5900 C   0  0  0  0  0  0  0  0  0  0  0  0
    5.2337   -4.6957  -12.7417 C   0  0  0  0  0  0  0  0  0  0  0  0
    6.2317   -6.6995  -11.5809 C   0  0  0  0  0  0  0  0  0  0  0  0
    7.5700   -6.2365  -11.1916 N   0  3  0  0  0  0  0  0  0  0  0  0
    2.3358   -5.9368   -8.6529 C   0  0  1  0  0  0  0  0  0  0  0  0
    1.7215   -6.4573   -7.3306 C   0  0  0  0  0  0  0  0  0  0  0  0
    0.3932   -5.7164   -7.0198 C   0  0  1  0  0  0  0  0  0  0  0  0
   -0.2202   -6.2756   -5.8000 N   0  3  0  0  0  0  0  0  0  0  0  0
    0.6466   -4.1862   -6.8934 C   0  0  1  0  0  0  0  0  0  0  0  0
    1.3571   -3.6193   -8.1480 C   0  0  1  0  0  0  0  0  0  0  0  0
    1.6871   -2.2703   -7.8525 O   0  0  0  0  0  0  0  0  0  0  0  0
    2.6392   -4.4043   -8.5808 C   0  0  2  0  0  0  0  0  0  0  0  0
    3.5397   -6.7159   -8.9922 N   0  3  0  0  0  0  0  0  0  0  0  0
   -1.5625   -1.3872   -4.7306 C   0  0  0  0  0  0  0  0  0  0  0  0
   -3.1046   -1.3560   -4.8665 C   0  0  2  0  0  0  0  0  0  0  0  0
   -3.6424   -1.7384   -3.6014 O   0  0  0  0  0  0  0  0  0  0  0  0
   -3.5520   -2.3607   -5.9943 C   0  0  1  0  0  0  0  0  0  0  0  0
   -2.8930   -3.7742   -5.8477 C   0  0  2  0  0  0  0  0  0  0  0  0
   -1.3747   -3.7190   -5.5421 C   0  0  1  0  0  0  0  0  0  0  0  0
   -0.6124   -3.4683   -6.7520 O   0  0  0  0  0  0  0  0  0  0  0  0
   -1.0853   -2.7403   -4.5041 O   0  0  0  0  0  0  0  0  0  0  0  0
   -3.0991   -4.5689   -7.0127 O   0  0  0  0  0  0  0  0  0  0  0  0
   -5.0439   -2.4727   -6.0091 N   0  3  0  0  0  0  0  0  0  0  0  0
   -5.7954   -1.3443   -6.5955 C   0  0  0  0  0  0  0  0  0  0  0  0
   -3.5486    0.1035   -5.1331 C   0  0  0  0  0  0  0  0  0  0  0  0
  1  8  1  0  0  0  0
  1  9  1  6  0  0  0
  1  2  1  0  0  0  0
  2  3  1  0  0  0  0
  3  5  1  0  0  0  0
  3  4  1  6  0  0  0
  5  7  1  0  0  0  0
  5  6  1  1  0  0  0
  7  8  1  0  0  0  0
  9 10  1  0  0  0  0
 11 12  1  0  0  0  0
 11 18  1  0  0  0  0
 11 19  1  1  0  0  0
 12 13  1  0  0  0  0
 13 15  1  0  0  0  0
 13 14  1  1  0  0  0
 15 16  1  0  0  0  0
 15 26  1  6  0  0  0
 16 18  1  0  0  0  0
 16 17  1  1  0  0  0
 18  4  1  6  0  0  0
 20 21  1  0  0  0  0
 20 27  1  0  0  0  0
 21 31  1  6  0  0  0
 21 23  1  0  0  0  0
 21 22  1  0  0  0  0
 23 24  1  0  0  0  0
 23 29  1  1  0  0  0
 24 25  1  0  0  0  0
 24 28  1  6  0  0  0
 25 27  1  0  0  0  0
 25 26  1  6  0  0  0
 29 30  1  0  0  0  0
M  CHG  5   6   1  10   1  14   1  19   1  29   1
M  END
>  <CHROM.1>
-42.99652671,80.29642841,-106.40810406,-179.16276777,38.11680278,-76.98821339
71.42932022,65.56379261,63.24725959,174.52664497,-163.57579142,-51.94144154
-141.17041916,0.93000050,-3.79435646,-7.98525774,0.02220056,-0.63039219,2.74550980

>  <Name>
1byj cryst

>  <RI>
0

>  <Rbt.Current_Directory>
/home/itssahil/PROJECTS/Mol_Feturizer/New_Systems/rnas/1byj

>  <Rbt.Executable>
rbdock ($Id: //depot/dev/client3/rdock/2013.1/src/exe/rbdock.cxx#4 $)

>  <Rbt.Library>
libRbt.so (2013.1, Build901 2013/11/27)

>  <Rbt.Parameter_File>
/export/apps/rDock/src/rDock_2013.1_src/data/scripts/dock_solv.prm

>  <Rbt.Receptor>
prm/blind_docking_80.prm

>  <SCORE>
-22.8566

>  <SCORE.INTER>
-27.3402

>  <SCORE.INTER.CONST>
1

>  <SCORE.INTER.POLAR>
-5.01561

>  <SCORE.INTER.ROT>
6

>  <SCORE.INTER.SOLV>
29.3881

>  <SCORE.INTER.VDW>
-18.9041

>  <SCORE.INTER.norm>
-0.881941

>  <SCORE.INTRA>
3.34185

>  <SCORE.INTRA.DIHEDRAL>
-0.579598

>  <SCORE.INTRA.DIHEDRAL.0>
18.4149

>  <SCORE.INTRA.POLAR>
-0.133485

>  <SCORE.INTRA.POLAR.0>
0

>  <SCORE.INTRA.REPUL>
-0.0735735

>  <SCORE.INTRA.REPUL.0>
0.092687

>  <SCORE.INTRA.SOLV>
3.08494

>  <SCORE.INTRA.SOLV.lig_0>
-120.37

>  <SCORE.INTRA.VDW>
2.9109

>  <SCORE.INTRA.VDW.0>
-1.75542

>  <SCORE.INTRA.norm>
0.107802

>  <SCORE.RESTR>
1.14174

>  <SCORE.RESTR.CAVITY>
1.14174

>  <SCORE.RESTR.norm>
0.0368303

>  <SCORE.SYSTEM>
0

>  <SCORE.SYSTEM.CONST>
0

>  <SCORE.SYSTEM.DIHEDRAL>
0

>  <SCORE.SYSTEM.SOLV>
0

>  <SCORE.SYSTEM.norm>
0

>  <SCORE.heavy>
31

>  <SCORE.norm>
-0.737309

>  <RMSD>
12.669

$$$$
1byj cryst
 OpenBabel11021811383D
libRbt.so/2013.1/901 2013/11/27
 31 33  0  0  0  0  0  0  0  0999 V2000
    4.2975   -5.3428  -10.2599 C   0  0  1  0  0  0  0  0  0  0  0  0
    4.4357   -4.5901   -9.0123 O   0  0  0  0  0  0  0  0  0  0  0  0
    3.6544   -3.3699   -8.8411 C   0  0  2  0  0  0  0  0  0  0  0  0
    2.2272   -3.6642   -8.7263 O   0  0  0  0  0  0  0  0  0  0  0  0
    3.9329   -2.4079  -10.0359 C   0  0  2  0  0  0  0  0  0  0  0  0
    3.1823   -1.1397   -9.9496 N   0  3  0  0  0  0  0  0  0  0  0  0
    3.6308   -3.1243  -11.3774 C   0  0  0  0  0  0  0  0  0  0  0  0
    4.4410   -4.4232  -11.5038 C   0  0  0  0  0  0  0  0  0  0  0  0
    5.3727   -6.4424  -10.3149 C   0  0  0  0  0  0  0  0  0  0  0  0
    5.9996   -6.5942  -11.6345 N   0  3  0  0  0  0  0  0  0  0  0  0
    1.5952   -3.0576   -6.4234 C   0  0  1  0  0  0  0  0  0  0  0  0
    0.6425   -2.2139   -5.5420 C   0  0  0  0  0  0  0  0  0  0  0  0
   -0.8380   -2.5256   -5.8892 C   0  0  1  0  0  0  0  0  0  0  0  0
   -1.7339   -1.7738   -4.9897 N   0  3  0  0  0  0  0  0  0  0  0  0
   -1.1186   -2.2083   -7.3866 C   0  0  1  0  0  0  0  0  0  0  0  0
   -0.1270   -2.9445   -8.3220 C   0  0  1  0  0  0  0  0  0  0  0  0
   -0.3643   -2.4525   -9.6326 O   0  0  0  0  0  0  0  0  0  0  0  0
    1.3804   -2.7644   -7.9446 C   0  0  2  0  0  0  0  0  0  0  0  0
    2.9934   -2.8319   -6.0165 N   0  3  0  0  0  0  0  0  0  0  0  0
   -4.5932   -2.2462   -5.6111 C   0  0  0  0  0  0  0  0  0  0  0  0
   -5.8713   -2.9144   -6.1746 C   0  0  2  0  0  0  0  0  0  0  0  0
   -6.2236   -3.9647   -5.2753 O   0  0  0  0  0  0  0  0  0  0  0  0
   -5.5750   -3.4826   -7.6137 C   0  0  1  0  0  0  0  0  0  0  0  0
   -4.2592   -4.3305   -7.6751 C   0  0  2  0  0  0  0  0  0  0  0  0
   -3.0650   -3.6716   -6.9393 C   0  0  1  0  0  0  0  0  0  0  0  0
   -2.4593   -2.6377   -7.7589 O   0  0  0  0  0  0  0  0  0  0  0  0
   -3.4688   -3.1655   -5.6355 O   0  0  0  0  0  0  0  0  0  0  0  0
   -3.8768   -4.6026   -9.0208 O   0  0  0  0  0  0  0  0  0  0  0  0
   -6.7435   -4.2859   -8.0908 N   0  3  0  0  0  0  0  0  0  0  0  0
   -7.0157   -4.2767   -9.5426 C   0  0  0  0  0  0  0  0  0  0  0  0
   -7.0234   -1.8801   -6.1482 C   0  0  0  0  0  0  0  0  0  0  0  0
  1  8  1  0  0  0  0
  1  9  1  6  0  0  0
  1  2  1  0  0  0  0
  2  3  1  0  0  0  0
  3  5  1  0  0  0  0
  3  4  1  6  0  0  0
  5  7  1  0  0  0  0
  5  6  1  1  0  0  0
  7  8  1  0  0  0  0
  9 10  1  0  0  0  0
 11 12  1  0  0  0  0
 11 18  1  0  0  0  0
 11 19  1  1  0  0  0
 12 13  1  0  0  0  0
 13 15  1  0  0  0  0
 13 14  1  1  0  0  0
 15 16  1  0  0  0  0
 15 26  1  6  0  0  0
 16 18  1  0  0  0  0
 16 17  1  6  0  0  0
 18  4  1  6  0  0  0
 20 21  1  0  0  0  0
 20 27  1  0  0  0  0
 21 31  1  6  0  0  0
 21 23  1  0  0  0  0
 21 22  1  0  0  0  0
 23 24  1  0  0  0  0
 23 29  1  1  0  0  0
 24 25  1  0  0  0  0
 24 28  1  6  0  0  0
 25 27  1  0  0  0  0
 25 26  1  6  0  0  0
 29 30  1  0  0  0  0
M  CHG  5   6   1  10   1  14   1  19   1  29   1
M  END
>  <CHROM.1>
-138.32610451,150.79520236,-77.64520088,-76.38517726,67.77984007,179.49291489
-129.64184731,-22.65442789,61.91055491,-47.68551303,-91.39547017,-66.70751634
-162.51735787,-0.54237233,-3.40285449,-8.04750123,0.31770190,-0.08730559
-2.12022099

>  <Name>
1byj cryst

>  <RI>
0

>  <Rbt.Current_Directory>
/home/itssahil/PROJECTS/Mol_Feturizer/New_Systems/rnas/1byj

>  <Rbt.Executable>
rbdock ($Id: //depot/dev/client3/rdock/2013.1/src/exe/rbdock.cxx#4 $)

>  <Rbt.Library>
libRbt.so (2013.1, Build901 2013/11/27)

>  <Rbt.Parameter_File>
/export/apps/rDock/src/rDock_2013.1_src/data/scripts/dock_solv.prm

>  <Rbt.Receptor>
prm/blind_docking_40.prm

>  <SCORE>
0.159178

>  <SCORE.INTER>
-18.9726

>  <SCORE.INTER.CONST>
1

>  <SCORE.INTER.POLAR>
-4.26805

>  <SCORE.INTER.ROT>
6

>  <SCORE.INTER.SOLV>
22.7542

>  <SCORE.INTER.VDW>
-13.6063

>  <SCORE.INTER.norm>
-0.612021

>  <SCORE.INTRA>
10.2541

>  <SCORE.INTRA.DIHEDRAL>
4.47841

>  <SCORE.INTRA.DIHEDRAL.0>
18.4149

>  <SCORE.INTRA.POLAR>
-0.413638

>  <SCORE.INTRA.POLAR.0>
0

>  <SCORE.INTRA.REPUL>
-0.092687

>  <SCORE.INTRA.REPUL.0>
0.092687

>  <SCORE.INTRA.SOLV>
4.47502

>  <SCORE.INTRA.SOLV.lig_0>
-120.37

>  <SCORE.INTRA.VDW>
7.64719

>  <SCORE.INTRA.VDW.0>
-1.75542

>  <SCORE.INTRA.norm>
0.330778

>  <SCORE.RESTR>
8.87771

>  <SCORE.RESTR.CAVITY>
8.87771

>  <SCORE.RESTR.norm>
0.286378

>  <SCORE.SYSTEM>
0

>  <SCORE.SYSTEM.CONST>
0

>  <SCORE.SYSTEM.DIHEDRAL>
0

>  <SCORE.SYSTEM.SOLV>
0

>  <SCORE.SYSTEM.norm>
0

>  <SCORE.heavy>
31

>  <SCORE.norm>
0.00513476

>  <RMSD>
12.671

$$$$
1byj cryst
 OpenBabel11021811383D
libRbt.so/2013.1/901 2013/11/27
 31 33  0  0  0  0  0  0  0  0999 V2000
   -3.8348    0.8976    0.7928 C   0  0  1  0  0  0  0  0  0  0  0  0
   -3.0575    1.0912   -0.4322 O   0  0  0  0  0  0  0  0  0  0  0  0
   -2.5158   -0.0818   -1.1098 C   0  0  2  0  0  0  0  0  0  0  0  0
   -3.5798   -0.8997   -1.6892 O   0  0  0  0  0  0  0  0  0  0  0  0
   -1.6597   -0.9088   -0.1031 C   0  0  2  0  0  0  0  0  0  0  0  0
   -1.0672   -2.1213   -0.7012 N   0  3  0  0  0  0  0  0  0  0  0  0
   -2.5099   -1.2795    1.1394 C   0  0  0  0  0  0  0  0  0  0  0  0
   -3.0953   -0.0234    1.8021 C   0  0  0  0  0  0  0  0  0  0  0  0
   -4.0991    2.2631    1.4513 C   0  0  0  0  0  0  0  0  0  0  0  0
   -5.5188    2.6370    1.4938 N   0  3  0  0  0  0  0  0  0  0  0  0
   -5.1641   -1.5832   -3.4480 C   0  0  1  0  0  0  0  0  0  0  0  0
   -5.4542   -1.5974   -4.9686 C   0  0  0  0  0  0  0  0  0  0  0  0
   -4.2798   -2.2574   -5.7399 C   0  0  1  0  0  0  0  0  0  0  0  0
   -4.6034   -2.3347   -7.1773 N   0  3  0  0  0  0  0  0  0  0  0  0
   -2.9593   -1.4752   -5.4830 C   0  0  1  0  0  0  0  0  0  0  0  0
   -2.6639   -1.3348   -3.9686 C   0  0  1  0  0  0  0  0  0  0  0  0
   -1.5448   -0.4687   -3.8522 O   0  0  0  0  0  0  0  0  0  0  0  0
   -3.8585   -0.7869   -3.1201 C   0  0  2  0  0  0  0  0  0  0  0  0
   -6.3266   -1.0498   -2.7163 N   0  3  0  0  0  0  0  0  0  0  0  0
   -2.1143   -5.1878   -6.4494 C   0  0  0  0  0  0  0  0  0  0  0  0
   -0.7224   -5.6788   -6.9174 C   0  0  2  0  0  0  0  0  0  0  0  0
   -0.2518   -6.5980   -5.9326 O   0  0  0  0  0  0  0  0  0  0  0  0
    0.2515   -4.4476   -7.0477 C   0  0  1  0  0  0  0  0  0  0  0  0
    0.2273   -3.5155   -5.7889 C   0  0  2  0  0  0  0  0  0  0  0  0
   -1.2023   -3.2073   -5.2761 C   0  0  1  0  0  0  0  0  0  0  0  0
   -1.8273   -2.1712   -6.0784 O   0  0  0  0  0  0  0  0  0  0  0  0
   -2.0109   -4.4164   -5.2229 O   0  0  0  0  0  0  0  0  0  0  0  0
    0.9019   -2.2850   -6.0383 O   0  0  0  0  0  0  0  0  0  0  0  0
    1.6414   -4.9287   -7.3218 N   0  3  0  0  0  0  0  0  0  0  0  0
    2.6638   -3.9004   -7.6033 C   0  0  0  0  0  0  0  0  0  0  0  0
   -0.8943   -6.4680   -8.2386 C   0  0  0  0  0  0  0  0  0  0  0  0
  1  8  1  0  0  0  0
  1  9  1  1  0  0  0
  1  2  1  0  0  0  0
  2  3  1  0  0  0  0
  3  5  1  0  0  0  0
  3  4  1  1  0  0  0
  5  7  1  0  0  0  0
  5  6  1  6  0  0  0
  7  8  1  0  0  0  0
  9 10  1  0  0  0  0
 11 12  1  0  0  0  0
 11 18  1  0  0  0  0
 11 19  1  1  0  0  0
 12 13  1  0  0  0  0
 13 15  1  0  0  0  0
 13 14  1  6  0  0  0
 15 16  1  0  0  0  0
 15 26  1  6  0  0  0
 16 18  1  0  0  0  0
 16 17  1  6  0  0  0
 18  4  1  1  0  0  0
 20 21  1  0  0  0  0
 20 27  1  0  0  0  0
 21 31  1  6  0  0  0
 21 23  1  0  0  0  0
 21 22  1  0  0  0  0
 23 24  1  0  0  0  0
 23 29  1  1  0  0  0
 24 25  1  0  0  0  0
 24 28  1  6  0  0  0
 25 27  1  0  0  0  0
 25 26  1  6  0  0  0
 29 30  1  0  0  0  0
M  CHG  5   6   1  10   1  14   1  19   1  29   1
M  END
>  <CHROM.1>
115.37118044,100.30554891,-171.36536553,40.73104146,67.16523612,167.45257664
88.67674384,-85.85461672,60.43603921,-67.30204654,-64.68105458,-174.99317032
-160.62016658,-2.28914981,-2.06342550,-3.73995477,-1.98597437,0.29789320
-2.08038445

>  <Name>
1byj cryst

>  <RI>
0

>  <Rbt.Current_Directory>
/home/itssahil/PROJECTS/Mol_Feturizer/New_Systems/rnas/1byj

>  <Rbt.Executable>
rbdock ($Id: //depot/dev/client3/rdock/2013.1/src/exe/rbdock.cxx#4 $)

>  <Rbt.Library>
libRbt.so (2013.1, Build901 2013/11/27)

>  <Rbt.Parameter_File>
/export/apps/rDock/src/rDock_2013.1_src/data/scripts/dock_solv.prm

>  <Rbt.Receptor>
prm/blind_docking_20.prm

>  <SCORE>
-19.1087

>  <SCORE.INTER>
-24.6738

>  <SCORE.INTER.CONST>
1

>  <SCORE.INTER.POLAR>
-3.35684

>  <SCORE.INTER.ROT>
6

>  <SCORE.INTER.SOLV>
21.8322

>  <SCORE.INTER.VDW>
-20.1371

>  <SCORE.INTER.norm>
-0.795928

>  <SCORE.INTRA>
-0.69578

>  <SCORE.INTRA.DIHEDRAL>
0.85367

>  <SCORE.INTRA.DIHEDRAL.0>
18.4149

>  <SCORE.INTRA.POLAR>
0

>  <SCORE.INTRA.POLAR.0>
0

>  <SCORE.INTRA.REPUL>
-0.092687

>  <SCORE.INTRA.REPUL.0>
0.092687

>  <SCORE.INTRA.SOLV>
-3.26983

>  <SCORE.INTRA.SOLV.lig_0>
-120.37

>  <SCORE.INTRA.VDW>
0.975733

>  <SCORE.INTRA.VDW.0>
-1.75542

>  <SCORE.INTRA.norm>
-0.0224445

>  <SCORE.RESTR>
6.26087

>  <SCORE.RESTR.CAVITY>
6.26087

>  <SCORE.RESTR.norm>
0.201964

>  <SCORE.SYSTEM>
0

>  <SCORE.SYSTEM.CONST>
0

>  <SCORE.SYSTEM.DIHEDRAL>
0

>  <SCORE.SYSTEM.SOLV>
0

>  <SCORE.SYSTEM.norm>
0

>  <SCORE.heavy>
31

>  <SCORE.norm>
-0.616409

>  <RMSD>
12.707

$$$$
1byj cryst
 OpenBabel11021811383D
libRbt.so/2013.1/901 2013/11/27
 31 33  0  0  0  0  0  0  0  0999 V2000
   -2.2403   -0.6611   -1.4203 C   0  0  1  0  0  0  0  0  0  0  0  0
   -3.2099   -1.5698   -2.0336 O   0  0  0  0  0  0  0  0  0  0  0  0
   -4.5639   -1.0857   -2.2803 C   0  0  2  0  0  0  0  0  0  0  0  0
   -4.5804   -0.0612   -3.3229 O   0  0  0  0  0  0  0  0  0  0  0  0
   -5.1662   -0.5398   -0.9500 C   0  0  2  0  0  0  0  0  0  0  0  0
   -6.5414   -0.0251   -1.1014 N   0  3  0  0  0  0  0  0  0  0  0  0
   -4.2418    0.5548   -0.3571 C   0  0  0  0  0  0  0  0  0  0  0  0
   -2.8170    0.0202   -0.1487 C   0  0  0  0  0  0  0  0  0  0  0  0
   -0.9712   -1.4461   -1.0443 C   0  0  0  0  0  0  0  0  0  0  0  0
    0.1197   -0.6034   -0.5372 N   0  3  0  0  0  0  0  0  0  0  0  0
   -5.7178   -1.0040   -5.2947 C   0  0  1  0  0  0  0  0  0  0  0  0
   -5.5371   -1.5523   -6.7311 C   0  0  0  0  0  0  0  0  0  0  0  0
   -4.5058   -2.7125   -6.7443 C   0  0  1  0  0  0  0  0  0  0  0  0
   -4.4015   -3.2764   -8.1037 N   0  3  0  0  0  0  0  0  0  0  0  0
   -3.1295   -2.2161   -6.2142 C   0  0  1  0  0  0  0  0  0  0  0  0
   -3.2586   -1.5592   -4.8171 C   0  0  1  0  0  0  0  0  0  0  0  0
   -1.9901   -0.9979   -4.5139 O   0  0  0  0  0  0  0  0  0  0  0  0
   -4.3704   -0.4636   -4.7128 C   0  0  2  0  0  0  0  0  0  0  0  0
   -6.7722    0.0252   -5.2751 N   0  3  0  0  0  0  0  0  0  0  0  0
    0.3285   -1.7312   -6.6922 C   0  0  0  0  0  0  0  0  0  0  0  0
    1.5036   -2.7046   -6.4294 C   0  0  2  0  0  0  0  0  0  0  0  0
    2.2013   -2.8588   -7.6645 O   0  0  0  0  0  0  0  0  0  0  0  0
    0.9378   -4.0862   -5.9272 C   0  0  1  0  0  0  0  0  0  0  0  0
   -0.2300   -4.6274   -6.8202 C   0  0  2  0  0  0  0  0  0  0  0  0
   -1.2809   -3.5477   -7.1834 C   0  0  1  0  0  0  0  0  0  0  0  0
   -2.2000   -3.3291   -6.0811 O   0  0  0  0  0  0  0  0  0  0  0  0
   -0.6371   -2.3132   -7.6081 O   0  0  0  0  0  0  0  0  0  0  0  0
   -0.8942   -5.7256   -6.2006 O   0  0  0  0  0  0  0  0  0  0  0  0
    2.0467   -5.0872   -5.8448 N   0  3  0  0  0  0  0  0  0  0  0  0
    2.4716   -5.7229   -7.1086 C   0  0  0  0  0  0  0  0  0  0  0  0
    2.4813   -2.0413   -5.4283 C   0  0  0  0  0  0  0  0  0  0  0  0
  1  8  1  0  0  0  0
  1  9  1  1  0  0  0
  1  2  1  0  0  0  0
  2  3  1  0  0  0  0
  3  5  1  0  0  0  0
  3  4  1  6  0  0  0
  5  7  1  0  0  0  0
  5  6  1  6  0  0  0
  7  8  1  0  0  0  0
  9 10  1  0  0  0  0
 11 12  1  0  0  0  0
 11 18  1  0  0  0  0
 11 19  1  6  0  0  0
 12 13  1  0  0  0  0
 13 15  1  0  0  0  0
 13 14  1  6  0  0  0
 15 16  1  0  0  0  0
 15 26  1  1  0  0  0
 16 18  1  0  0  0  0
 16 17  1  6  0  0  0
 18  4  1  1  0  0  0
 20 21  1  0  0  0  0
 20 27  1  0  0  0  0
 21 31  1  1  0  0  0
 21 23  1  0  0  0  0
 21 22  1  0  0  0  0
 23 24  1  0  0  0  0
 23 29  1  6  0  0  0
 24 25  1  0  0  0  0
 24 28  1  1  0  0  0
 25 27  1  0  0  0  0
 25 26  1  1  0  0  0
 29 30  1  0  0  0  0
M  CHG  5   6   1  10   1  14   1  19   1  29   1
M  END
>  <CHROM.1>
174.45241720,72.90214300,81.36925377,-61.31730486,-110.26174645,-155.60058301
-173.64870001,96.52176842,56.74602195,171.78249237,41.52534020,61.26027636
172.02753326,-2.15096934,-2.03696194,-4.67136808,-2.37902666,0.26782335,-1.96870522

>  <Name>
1byj cryst

>  <RI>
0

>  <Rbt.Current_Directory>
/home/itssahil/PROJECTS/Mol_Feturizer/New_Systems/rnas/1byj

>  <Rbt.Executable>
rbdock ($Id: //depot/dev/client3/rdock/2013.1/src/exe/rbdock.cxx#4 $)

>  <Rbt.Library>
libRbt.so (2013.1, Build901 2013/11/27)

>  <Rbt.Parameter_File>
/export/apps/rDock/src/rDock_2013.1_src/data/scripts/dock_solv.prm

>  <Rbt.Receptor>
prm/blind_docking_20.prm

>  <SCORE>
-5.94544

>  <SCORE.INTER>
-7.92278

>  <SCORE.INTER.CONST>
1

>  <SCORE.INTER.POLAR>
-4.58246

>  <SCORE.INTER.ROT>
6

>  <SCORE.INTER.SOLV>
22.3792

>  <SCORE.INTER.VDW>
-5.0667

>  <SCORE.INTER.norm>
-0.255574

>  <SCORE.INTRA>
-2.10384

>  <SCORE.INTRA.DIHEDRAL>
-4.06429

>  <SCORE.INTRA.DIHEDRAL.0>
18.4149

>  <SCORE.INTRA.POLAR>
-0.016179

>  <SCORE.INTRA.POLAR.0>
0

>  <SCORE.INTRA.REPUL>
-0.092687

>  <SCORE.INTRA.REPUL.0>
0.092687

>  <SCORE.INTRA.SOLV>
-2.82054

>  <SCORE.INTRA.SOLV.lig_0>
-120.37

>  <SCORE.INTRA.VDW>
1.85702

>  <SCORE.INTRA.VDW.0>
-1.75542

>  <SCORE.INTRA.norm>
-0.0678657

>  <SCORE.RESTR>
4.08118

>  <SCORE.RESTR.CAVITY>
4.08118

>  <SCORE.RESTR.norm>
0.131651

>  <SCORE.SYSTEM>
0

>  <SCORE.SYSTEM.CONST>
0

>  <SCORE.SYSTEM.DIHEDRAL>
0

>  <SCORE.SYSTEM.SOLV>
0

>  <SCORE.SYSTEM.norm>
0

>  <SCORE.heavy>
31

>  <SCORE.norm>
-0.191788

>  <RMSD>
12.709

$$$$
1byj cryst
 OpenBabel11021811383D
libRbt.so/2013.1/901 2013/11/27
 31 33  0  0  0  0  0  0  0  0999 V2000
    0.1646   -1.8559   -9.1618 C   0  0  1  0  0  0  0  0  0  0  0  0
    1.3245   -2.4906   -8.5343 O   0  0  0  0  0  0  0  0  0  0  0  0
    2.0155   -1.7819   -7.4625 C   0  0  2  0  0  0  0  0  0  0  0  0
    1.1825   -1.6862   -6.2651 O   0  0  0  0  0  0  0  0  0  0  0  0
    2.4348   -0.3676   -7.9668 C   0  0  2  0  0  0  0  0  0  0  0  0
    3.1442    0.4281   -6.9457 N   0  3  0  0  0  0  0  0  0  0  0  0
    1.1927    0.4024   -8.4849 C   0  0  0  0  0  0  0  0  0  0  0  0
    0.4696   -0.3918   -9.5830 C   0  0  0  0  0  0  0  0  0  0  0  0
   -0.2513   -2.6648  -10.4031 C   0  0  0  0  0  0  0  0  0  0  0  0
   -1.2929   -2.0178  -11.2117 N   0  3  0  0  0  0  0  0  0  0  0  0
    1.0196   -4.1361   -6.4695 C   0  0  1  0  0  0  0  0  0  0  0  0
    0.1533   -5.3859   -6.1797 C   0  0  0  0  0  0  0  0  0  0  0  0
   -1.2636   -5.2190   -6.7916 C   0  0  1  0  0  0  0  0  0  0  0  0
   -2.0519   -6.4473   -6.5756 N   0  3  0  0  0  0  0  0  0  0  0  0
   -1.9650   -3.9657   -6.1925 C   0  0  1  0  0  0  0  0  0  0  0  0
   -1.0985   -2.6922   -6.3582 C   0  0  1  0  0  0  0  0  0  0  0  0
   -1.7510   -1.6604   -5.6331 O   0  0  0  0  0  0  0  0  0  0  0  0
    0.3797   -2.8419   -5.8683 C   0  0  2  0  0  0  0  0  0  0  0  0
    2.3918   -4.3464   -5.9754 N   0  3  0  0  0  0  0  0  0  0  0  0
   -4.9327   -2.6476   -4.5695 C   0  0  0  0  0  0  0  0  0  0  0  0
   -6.2921   -2.2680   -5.2063 C   0  0  2  0  0  0  0  0  0  0  0  0
   -7.2865   -3.0764   -4.5788 O   0  0  0  0  0  0  0  0  0  0  0  0
   -6.2400   -2.5433   -6.7564 C   0  0  1  0  0  0  0  0  0  0  0  0
   -5.6788   -3.9638   -7.1046 C   0  0  2  0  0  0  0  0  0  0  0  0
   -4.4100   -4.3411   -6.2986 C   0  0  1  0  0  0  0  0  0  0  0  0
   -3.2304   -3.7148   -6.8680 O   0  0  0  0  0  0  0  0  0  0  0  0
   -4.5708   -4.0177   -4.8885 O   0  0  0  0  0  0  0  0  0  0  0  0
   -5.3930   -4.0848   -8.4956 O   0  0  0  0  0  0  0  0  0  0  0  0
   -7.6001   -2.3531   -7.3500 N   0  3  0  0  0  0  0  0  0  0  0  0
   -8.6368   -3.3384   -6.9808 C   0  0  0  0  0  0  0  0  0  0  0  0
   -6.6087   -0.7934   -4.8550 C   0  0  0  0  0  0  0  0  0  0  0  0
  1  8  1  0  0  0  0
  1  9  1  6  0  0  0
  1  2  1  0  0  0  0
  2  3  1  0  0  0  0
  3  5  1  0  0  0  0
  3  4  1  1  0  0  0
  5  7  1  0  0  0  0
  5  6  1  1  0  0  0
  7  8  1  0  0  0  0
  9 10  1  0  0  0  0
 11 12  1  0  0  0  0
 11 18  1  0  0  0  0
 11 19  1  1  0  0  0
 12 13  1  0  0  0  0
 13 15  1  0  0  0  0
 13 14  1  1  0  0  0
 15 16  1  0  0  0  0
 15 26  1  6  0  0  0
 16 18  1  0  0  0  0
 16 17  1  1  0  0  0
 18  4  1  6  0  0  0
 20 21  1  0  0  0  0
 20 27  1  0  0  0  0
 21 31  1  1  0  0  0
 21 23  1  0  0  0  0
 21 22  1  0  0  0  0
 23 24  1  0  0  0  0
 23 29  1  1  0  0  0
 24 25  1  0  0  0  0
 24 28  1  6  0  0  0
 25 27  1  0  0  0  0
 25 26  1  6  0  0  0
 29 30  1  0  0  0  0
M  CHG  5   6   1  10   1  14   1  19   1  29   1
M  END
>  <CHROM.1>
-172.23606926,40.44733328,23.45380844,-75.72162110,69.02404218,35.79476982
-47.25427222,90.79073739,-159.53209736,58.57290716,52.48258162,71.99147770
178.94005872,-2.10343480,-2.78242053,-6.97142032,0.25143408,0.05761166,-0.68156660

>  <Name>
1byj cryst

>  <RI>
0

>  <Rbt.Current_Directory>
/home/itssahil/PROJECTS/Mol_Feturizer/New_Systems/rnas/1byj

>  <Rbt.Executable>
rbdock ($Id: //depot/dev/client3/rdock/2013.1/src/exe/rbdock.cxx#4 $)

>  <Rbt.Library>
libRbt.so (2013.1, Build901 2013/11/27)

>  <Rbt.Parameter_File>
/export/apps/rDock/src/rDock_2013.1_src/data/scripts/dock_solv.prm

>  <Rbt.Receptor>
prm/blind_docking_100.prm

>  <SCORE>
-14.2617

>  <SCORE.INTER>
-22.0731

>  <SCORE.INTER.CONST>
1

>  <SCORE.INTER.POLAR>
-3.97954

>  <SCORE.INTER.ROT>
6

>  <SCORE.INTER.SOLV>
31.9051

>  <SCORE.INTER.VDW>
-19.6853

>  <SCORE.INTER.norm>
-0.712037

>  <SCORE.INTRA>
-0.55324

>  <SCORE.INTRA.DIHEDRAL>
-2.43316

>  <SCORE.INTRA.DIHEDRAL.0>
18.4149

>  <SCORE.INTRA.POLAR>
-0.0649482

>  <SCORE.INTRA.POLAR.0>
0

>  <SCORE.INTRA.REPUL>
-0.092687

>  <SCORE.INTRA.REPUL.0>
0.092687

>  <SCORE.INTRA.SOLV>
-3.21036

>  <SCORE.INTRA.SOLV.lig_0>
-120.37

>  <SCORE.INTRA.VDW>
2.95278

>  <SCORE.INTRA.VDW.0>
-1.75542

>  <SCORE.INTRA.norm>
-0.0178465

>  <SCORE.RESTR>
8.36473

>  <SCORE.RESTR.CAVITY>
8.36473

>  <SCORE.RESTR.norm>
0.26983

>  <SCORE.SYSTEM>
0

>  <SCORE.SYSTEM.CONST>
0

>  <SCORE.SYSTEM.DIHEDRAL>
0

>  <SCORE.SYSTEM.SOLV>
0

>  <SCORE.SYSTEM.norm>
0

>  <SCORE.heavy>
31

>  <SCORE.norm>
-0.460053

>  <RMSD>
12.719

$$$$
1byj cryst
 OpenBabel11021811383D
libRbt.so/2013.1/901 2013/11/27
 31 33  0  0  0  0  0  0  0  0999 V2000
    0.1315   -2.1440   -8.8167 C   0  0  1  0  0  0  0  0  0  0  0  0
    1.2999   -2.7884   -8.2153 O   0  0  0  0  0  0  0  0  0  0  0  0
    2.0024   -2.0989   -7.1384 C   0  0  2  0  0  0  0  0  0  0  0  0
    1.1836   -2.0277   -5.9296 O   0  0  0  0  0  0  0  0  0  0  0  0
    2.4132   -0.6743   -7.6204 C   0  0  2  0  0  0  0  0  0  0  0  0
    3.1333    0.1030   -6.5928 N   0  3  0  0  0  0  0  0  0  0  0  0
    1.1637    0.1030   -8.1089 C   0  0  0  0  0  0  0  0  0  0  0  0
    0.4290   -0.6716   -9.2134 C   0  0  0  0  0  0  0  0  0  0  0  0
   -0.2977   -2.9299  -10.0682 C   0  0  0  0  0  0  0  0  0  0  0  0
   -0.9689   -2.1083  -11.0840 N   0  3  0  0  0  0  0  0  0  0  0  0
    0.8533   -4.4624   -6.1124 C   0  0  1  0  0  0  0  0  0  0  0  0
   -0.1520   -5.6291   -5.9548 C   0  0  0  0  0  0  0  0  0  0  0  0
   -1.4225   -5.3709   -6.8085 C   0  0  1  0  0  0  0  0  0  0  0  0
   -2.3367   -6.5248   -6.7104 N   0  3  0  0  0  0  0  0  0  0  0  0
   -2.1093   -4.0466   -6.3657 C   0  0  1  0  0  0  0  0  0  0  0  0
   -1.1233   -2.8521   -6.4014 C   0  0  1  0  0  0  0  0  0  0  0  0
   -1.8024   -1.7481   -5.8217 O   0  0  0  0  0  0  0  0  0  0  0  0
    0.2300   -3.1021   -5.6574 C   0  0  2  0  0  0  0  0  0  0  0  0
    2.0968   -4.7642   -5.3816 N   0  3  0  0  0  0  0  0  0  0  0  0
   -5.0712   -2.9051   -4.9755 C   0  0  0  0  0  0  0  0  0  0  0  0
   -6.3051   -2.2657   -5.6583 C   0  0  2  0  0  0  0  0  0  0  0  0
   -7.4366   -3.0583   -5.3010 O   0  0  0  0  0  0  0  0  0  0  0  0
   -6.0951   -2.2575   -7.2195 C   0  0  1  0  0  0  0  0  0  0  0  0
   -5.6286   -3.6444   -7.7789 C   0  0  2  0  0  0  0  0  0  0  0  0
   -4.5041   -4.3022   -6.9396 C   0  0  1  0  0  0  0  0  0  0  0  0
   -3.2132   -3.7188   -7.2570 O   0  0  0  0  0  0  0  0  0  0  0  0
   -4.8007   -4.2257   -5.5165 O   0  0  0  0  0  0  0  0  0  0  0  0
   -5.1922   -3.5408   -9.1317 O   0  0  0  0  0  0  0  0  0  0  0  0
   -7.3522   -1.8109   -7.8967 N   0  3  0  0  0  0  0  0  0  0  0  0
   -7.2172   -1.2393   -9.2521 C   0  0  0  0  0  0  0  0  0  0  0  0
   -6.5252   -0.8539   -5.0611 C   0  0  0  0  0  0  0  0  0  0  0  0
  1  8  1  0  0  0  0
  1  9  1  6  0  0  0
  1  2  1  0  0  0  0
  2  3  1  0  0  0  0
  3  5  1  0  0  0  0
  3  4  1  1  0  0  0
  5  7  1  0  0  0  0
  5  6  1  1  0  0  0
  7  8  1  0  0  0  0
  9 10  1  0  0  0  0
 11 12  1  0  0  0  0
 11 18  1  0  0  0  0
 11 19  1  1  0  0  0
 12 13  1  0  0  0  0
 13 15  1  0  0  0  0
 13 14  1  1  0  0  0
 15 16  1  0  0  0  0
 15 26  1  6  0  0  0
 16 18  1  0  0  0  0
 16 17  1  1  0  0  0
 18  4  1  6  0  0  0
 20 21  1  0  0  0  0
 20 27  1  0  0  0  0
 21 31  1  1  0  0  0
 21 23  1  0  0  0  0
 21 22  1  0  0  0  0
 23 24  1  0  0  0  0
 23 29  1  6  0  0  0
 24 25  1  0  0  0  0
 24 28  1  6  0  0  0
 25 27  1  0  0  0  0
 25 26  1  1  0  0  0
 29 30  1  0  0  0  0
M  CHG  5   6   1  10   1  14   1  19   1  29   1
M  END
>  <CHROM.1>
-151.89508806,30.88796978,36.74486587,-72.73557552,-166.76351623,79.79762668
-52.92331987,86.87208174,-163.02161745,-176.57525336,-82.24023584,-71.54173186
168.18998794,-2.10485043,-2.82186551,-7.10563258,0.09097218,-0.00295701,-0.71043360

>  <Name>
1byj cryst

>  <RI>
0

>  <Rbt.Current_Directory>
/home/itssahil/PROJECTS/Mol_Feturizer/New_Systems/rnas/1byj

>  <Rbt.Executable>
rbdock ($Id: //depot/dev/client3/rdock/2013.1/src/exe/rbdock.cxx#4 $)

>  <Rbt.Library>
libRbt.so (2013.1, Build901 2013/11/27)

>  <Rbt.Parameter_File>
/export/apps/rDock/src/rDock_2013.1_src/data/scripts/dock_solv.prm

>  <Rbt.Receptor>
prm/blind_docking_40.prm

>  <SCORE>
-20.6681

>  <SCORE.INTER>
-29.9934

>  <SCORE.INTER.CONST>
1

>  <SCORE.INTER.POLAR>
-5.46684

>  <SCORE.INTER.ROT>
6

>  <SCORE.INTER.SOLV>
31.381

>  <SCORE.INTER.VDW>
-19.8331

>  <SCORE.INTER.norm>
-0.967529

>  <SCORE.INTRA>
0.146224

>  <SCORE.INTRA.DIHEDRAL>
-1.2442

>  <SCORE.INTRA.DIHEDRAL.0>
18.4149

>  <SCORE.INTRA.POLAR>
0

>  <SCORE.INTRA.POLAR.0>
0

>  <SCORE.INTRA.REPUL>
-0.092687

>  <SCORE.INTRA.REPUL.0>
0.092687

>  <SCORE.INTRA.SOLV>
-0.816164

>  <SCORE.INTRA.SOLV.lig_0>
-120.37

>  <SCORE.INTRA.VDW>
1.63984

>  <SCORE.INTRA.VDW.0>
-1.75542

>  <SCORE.INTRA.norm>
0.00471692

>  <SCORE.RESTR>
9.17902

>  <SCORE.RESTR.CAVITY>
9.17902

>  <SCORE.RESTR.norm>
0.296097

>  <SCORE.SYSTEM>
0

>  <SCORE.SYSTEM.CONST>
0

>  <SCORE.SYSTEM.DIHEDRAL>
0

>  <SCORE.SYSTEM.SOLV>
0

>  <SCORE.SYSTEM.norm>
0

>  <SCORE.heavy>
31

>  <SCORE.norm>
-0.666714

>  <RMSD>
12.730

$$$$
1byj cryst
 OpenBabel11021811383D
libRbt.so/2013.1/901 2013/11/27
 31 33  0  0  0  0  0  0  0  0999 V2000
    1.4063   -1.4427   -5.9928 C   0  0  1  0  0  0  0  0  0  0  0  0
    1.0137   -2.4057   -7.0226 O   0  0  0  0  0  0  0  0  0  0  0  0
   -0.1125   -3.2943   -6.7567 C   0  0  2  0  0  0  0  0  0  0  0  0
   -1.3719   -2.5543   -6.7010 O   0  0  0  0  0  0  0  0  0  0  0  0
    0.1426   -4.0654   -5.4260 C   0  0  2  0  0  0  0  0  0  0  0  0
   -0.9493   -4.9937   -5.0724 N   0  3  0  0  0  0  0  0  0  0  0  0
    0.3952   -3.0631   -4.2703 C   0  0  0  0  0  0  0  0  0  0  0  0
    1.5610   -2.1198   -4.6031 C   0  0  0  0  0  0  0  0  0  0  0  0
    2.7408   -0.7867   -6.3890 C   0  0  0  0  0  0  0  0  0  0  0  0
    2.6997   -0.0911   -7.6819 N   0  3  0  0  0  0  0  0  0  0  0  0
   -3.0639   -3.9117   -7.8694 C   0  0  1  0  0  0  0  0  0  0  0  0
   -4.4383   -4.6146   -7.7531 C   0  0  0  0  0  0  0  0  0  0  0  0
   -5.5283   -3.6058   -7.3012 C   0  0  1  0  0  0  0  0  0  0  0  0
   -6.8454   -4.2700   -7.2700 N   0  3  0  0  0  0  0  0  0  0  0  0
   -5.1547   -2.9913   -5.9212 C   0  0  1  0  0  0  0  0  0  0  0  0
   -3.7402   -2.3598   -5.9412 C   0  0  1  0  0  0  0  0  0  0  0  0
   -3.4421   -1.9899   -4.6031 O   0  0  0  0  0  0  0  0  0  0  0  0
   -2.6180   -3.2934   -6.5038 C   0  0  2  0  0  0  0  0  0  0  0  0
   -2.0586   -4.8510   -8.3971 N   0  3  0  0  0  0  0  0  0  0  0  0
   -7.0075   -3.9572   -3.4637 C   0  0  0  0  0  0  0  0  0  0  0  0
   -7.7735   -3.1300   -2.4023 C   0  0  2  0  0  0  0  0  0  0  0  0
   -9.1129   -3.6215   -2.3778 O   0  0  0  0  0  0  0  0  0  0  0  0
   -7.7412   -1.6065   -2.8013 C   0  0  1  0  0  0  0  0  0  0  0  0
   -8.1366   -1.3597   -4.2968 C   0  0  2  0  0  0  0  0  0  0  0  0
   -7.4576   -2.3415   -5.2852 C   0  0  1  0  0  0  0  0  0  0  0  0
   -6.0909   -1.9360   -5.5600 O   0  0  0  0  0  0  0  0  0  0  0  0
   -7.5311   -3.7104   -4.7959 O   0  0  0  0  0  0  0  0  0  0  0  0
   -7.8430   -0.0246   -4.7001 O   0  0  0  0  0  0  0  0  0  0  0  0
   -8.6283   -0.8246   -1.8847 N   0  3  0  0  0  0  0  0  0  0  0  0
   -8.4167    0.6363   -1.8314 C   0  0  0  0  0  0  0  0  0  0  0  0
   -7.1537   -3.4138   -1.0118 C   0  0  0  0  0  0  0  0  0  0  0  0
  1  8  1  0  0  0  0
  1  9  1  6  0  0  0
  1  2  1  0  0  0  0
  2  3  1  0  0  0  0
  3  5  1  0  0  0  0
  3  4  1  1  0  0  0
  5  7  1  0  0  0  0
  5  6  1  1  0  0  0
  7  8  1  0  0  0  0
  9 10  1  0  0  0  0
 11 12  1  0  0  0  0
 11 18  1  0  0  0  0
 11 19  1  1  0  0  0
 12 13  1  0  0  0  0
 13 15  1  0  0  0  0
 13 14  1  1  0  0  0
 15 16  1  0  0  0  0
 15 26  1  6  0  0  0
 16 18  1  0  0  0  0
 16 17  1  1  0  0  0
 18  4  1  6  0  0  0
 20 21  1  0  0  0  0
 20 27  1  0  0  0  0
 21 31  1  1  0  0  0
 21 23  1  0  0  0  0
 21 22  1  0  0  0  0
 23 24  1  0  0  0  0
 23 29  1  1  0  0  0
 24 25  1  0  0  0  0
 24 28  1  6  0  0  0
 25 27  1  0  0  0  0
 25 26  1  1  0  0  0
 29 30  1  0  0  0  0
M  CHG  5   6   1  10   1  14   1  19   1  29   1
M  END
>  <CHROM.1>
58.60169831,177.22859188,-79.91415761,-83.85794665,173.88292870,-59.56729652
102.12307884,66.99864520,57.02065564,179.06560469,-77.06490095,179.21305726
152.27577900,-3.96466181,-2.63996172,-5.22598231,-0.28434690,0.20678141,0.88175971

>  <Name>
1byj cryst

>  <RI>
0

>  <Rbt.Current_Directory>
/home/itssahil/PROJECTS/Mol_Feturizer/New_Systems/rnas/1byj

>  <Rbt.Executable>
rbdock ($Id: //depot/dev/client3/rdock/2013.1/src/exe/rbdock.cxx#4 $)

>  <Rbt.Library>
libRbt.so (2013.1, Build901 2013/11/27)

>  <Rbt.Parameter_File>
/export/apps/rDock/src/rDock_2013.1_src/data/scripts/dock_solv.prm

>  <Rbt.Receptor>
prm/blind_docking_40.prm

>  <SCORE>
-25.2213

>  <SCORE.INTER>
-30.346

>  <SCORE.INTER.CONST>
1

>  <SCORE.INTER.POLAR>
-4.72023

>  <SCORE.INTER.ROT>
6

>  <SCORE.INTER.SOLV>
15.5306

>  <SCORE.INTER.VDW>
-17.2735

>  <SCORE.INTER.norm>
-0.978904

>  <SCORE.INTRA>
-2.12839

>  <SCORE.INTRA.DIHEDRAL>
-7.85999

>  <SCORE.INTRA.DIHEDRAL.0>
18.4149

>  <SCORE.INTRA.POLAR>
-0.953844

>  <SCORE.INTRA.POLAR.0>
0

>  <SCORE.INTRA.REPUL>
-0.0720982

>  <SCORE.INTRA.REPUL.0>
0.092687

>  <SCORE.INTRA.SOLV>
6.03692

>  <SCORE.INTRA.SOLV.lig_0>
-120.37

>  <SCORE.INTRA.VDW>
2.38671

>  <SCORE.INTRA.VDW.0>
-1.75542

>  <SCORE.INTRA.norm>
-0.0686577

>  <SCORE.RESTR>
7.25308

>  <SCORE.RESTR.CAVITY>
7.25308

>  <SCORE.RESTR.norm>
0.23397

>  <SCORE.SYSTEM>
0

>  <SCORE.SYSTEM.CONST>
0

>  <SCORE.SYSTEM.DIHEDRAL>
0

>  <SCORE.SYSTEM.SOLV>
0

>  <SCORE.SYSTEM.norm>
0

>  <SCORE.heavy>
31

>  <SCORE.norm>
-0.813592

>  <RMSD>
12.761

$$$$
1byj cryst
 OpenBabel11021811383D
libRbt.so/2013.1/901 2013/11/27
 31 33  0  0  0  0  0  0  0  0999 V2000
   -4.5574   -3.4492   -6.7257 C   0  0  1  0  0  0  0  0  0  0  0  0
   -4.1641   -2.0482   -6.5691 O   0  0  0  0  0  0  0  0  0  0  0  0
   -4.5732   -1.3371   -5.3626 C   0  0  2  0  0  0  0  0  0  0  0  0
   -3.8887   -1.8580   -4.1807 O   0  0  0  0  0  0  0  0  0  0  0  0
   -6.1206   -1.4400   -5.2037 C   0  0  2  0  0  0  0  0  0  0  0  0
   -6.6302   -0.7468   -4.0041 N   0  3  0  0  0  0  0  0  0  0  0  0
   -6.5567   -2.9279   -5.1940 C   0  0  0  0  0  0  0  0  0  0  0  0
   -6.0746   -3.6524   -6.4597 C   0  0  0  0  0  0  0  0  0  0  0  0
   -4.2255   -3.9166   -8.1538 C   0  0  0  0  0  0  0  0  0  0  0  0
   -3.4358   -5.1539   -8.2051 N   0  3  0  0  0  0  0  0  0  0  0  0
   -2.4275   -0.0403   -3.3862 C   0  0  1  0  0  0  0  0  0  0  0  0
   -0.9663    0.4471   -3.2317 C   0  0  0  0  0  0  0  0  0  0  0  0
   -0.2413    0.4351   -4.6043 C   0  0  1  0  0  0  0  0  0  0  0  0
    1.1239    0.9747   -4.4560 N   0  3  0  0  0  0  0  0  0  0  0  0
   -0.2359   -1.0033   -5.1982 C   0  0  1  0  0  0  0  0  0  0  0  0
   -1.6666   -1.5917   -5.2830 C   0  0  1  0  0  0  0  0  0  0  0  0
   -1.5243   -2.9499   -5.6717 O   0  0  0  0  0  0  0  0  0  0  0  0
   -2.4902   -1.4952   -3.9565 C   0  0  2  0  0  0  0  0  0  0  0  0
   -3.1369    0.0723   -2.0995 N   0  3  0  0  0  0  0  0  0  0  0  0
    1.4174   -3.8413   -6.5499 C   0  0  0  0  0  0  0  0  0  0  0  0
    1.9177   -4.0871   -7.9945 C   0  0  2  0  0  0  0  0  0  0  0  0
    3.3199   -4.3386   -7.9128 O   0  0  0  0  0  0  0  0  0  0  0  0
    1.6255   -2.8137   -8.8744 C   0  0  1  0  0  0  0  0  0  0  0  0
    2.0896   -1.4820   -8.1924 C   0  0  2  0  0  0  0  0  0  0  0  0
    1.6981   -1.3855   -6.6960 C   0  0  1  0  0  0  0  0  0  0  0  0
    0.3068   -0.9977   -6.5495 O   0  0  0  0  0  0  0  0  0  0  0  0
    1.9932   -2.6278   -5.9970 O   0  0  0  0  0  0  0  0  0  0  0  0
    1.5788   -0.3406   -8.8761 O   0  0  0  0  0  0  0  0  0  0  0  0
    2.2651   -2.9695  -10.2179 N   0  3  0  0  0  0  0  0  0  0  0  0
    3.7247   -2.7559  -10.2947 C   0  0  0  0  0  0  0  0  0  0  0  0
    1.2501   -5.3747   -8.5372 C   0  0  0  0  0  0  0  0  0  0  0  0
  1  8  1  0  0  0  0
  1  9  1  6  0  0  0
  1  2  1  0  0  0  0
  2  3  1  0  0  0  0
  3  5  1  0  0  0  0
  3  4  1  1  0  0  0
  5  7  1  0  0  0  0
  5  6  1  1  0  0  0
  7  8  1  0  0  0  0
  9 10  1  0  0  0  0
 11 12  1  0  0  0  0
 11 18  1  0  0  0  0
 11 19  1  1  0  0  0
 12 13  1  0  0  0  0
 13 15  1  0  0  0  0
 13 14  1  1  0  0  0
 15 16  1  0  0  0  0
 15 26  1  6  0  0  0
 16 18  1  0  0  0  0
 16 17  1  1  0  0  0
 18  4  1  6  0  0  0
 20 21  1  0  0  0  0
 20 27  1  0  0  0  0
 21 31  1  6  0  0  0
 21 23  1  0  0  0  0
 21 22  1  0  0  0  0
 23 24  1  0  0  0  0
 23 29  1  6  0  0  0
 24 25  1  0  0  0  0
 24 28  1  6  0  0  0
 25 27  1  0  0  0  0
 25 26  1  6  0  0  0
 29 30  1  0  0  0  0
M  CHG  5   6   1  10   1  14   1  19   1  29   1
M  END
>  <CHROM.1>
128.02606812,76.07105725,77.78745898,164.83963690,75.64118090,167.15494018
71.23222219,98.98008994,66.24327958,68.00261655,44.23359793,-178.16691644
173.80975618,-1.22182978,-2.09102376,-6.28319793,2.69693640,0.22734830,0.81515916

>  <Name>
1byj cryst

>  <RI>
0

>  <Rbt.Current_Directory>
/home/itssahil/PROJECTS/Mol_Feturizer/New_Systems/rnas/1byj

>  <Rbt.Executable>
rbdock ($Id: //depot/dev/client3/rdock/2013.1/src/exe/rbdock.cxx#4 $)

>  <Rbt.Library>
libRbt.so (2013.1, Build901 2013/11/27)

>  <Rbt.Parameter_File>
/export/apps/rDock/src/rDock_2013.1_src/data/scripts/dock_solv.prm

>  <Rbt.Receptor>
prm/blind_docking_100.prm

>  <SCORE>
-12.8162

>  <SCORE.INTER>
-21.4166

>  <SCORE.INTER.CONST>
1

>  <SCORE.INTER.POLAR>
-3.25129

>  <SCORE.INTER.ROT>
6

>  <SCORE.INTER.SOLV>
16.7704

>  <SCORE.INTER.VDW>
-16.6302

>  <SCORE.INTER.norm>
-0.690857

>  <SCORE.INTRA>
-2.37656

>  <SCORE.INTRA.DIHEDRAL>
-1.88518

>  <SCORE.INTRA.DIHEDRAL.0>
18.4149

>  <SCORE.INTRA.POLAR>
0

>  <SCORE.INTRA.POLAR.0>
0

>  <SCORE.INTRA.REPUL>
-0.092687

>  <SCORE.INTRA.REPUL.0>
0.092687

>  <SCORE.INTRA.SOLV>
-2.57587

>  <SCORE.INTRA.SOLV.lig_0>
-120.37

>  <SCORE.INTRA.VDW>
0.317398

>  <SCORE.INTRA.VDW.0>
-1.75542

>  <SCORE.INTRA.norm>
-0.0766633

>  <SCORE.RESTR>
10.9769

>  <SCORE.RESTR.CAVITY>
10.9769

>  <SCORE.RESTR.norm>
0.354093

>  <SCORE.SYSTEM>
0

>  <SCORE.SYSTEM.CONST>
0

>  <SCORE.SYSTEM.DIHEDRAL>
0

>  <SCORE.SYSTEM.SOLV>
0

>  <SCORE.SYSTEM.norm>
0

>  <SCORE.heavy>
31

>  <SCORE.norm>
-0.413427

>  <RMSD>
12.786

$$$$
1byj cryst
 OpenBabel11021811383D
libRbt.so/2013.1/901 2013/11/27
 31 33  0  0  0  0  0  0  0  0999 V2000
    0.8844   -1.4158   -6.9242 C   0  0  1  0  0  0  0  0  0  0  0  0
    0.1773   -2.4380   -7.6970 O   0  0  0  0  0  0  0  0  0  0  0  0
    0.0041   -3.7629   -7.1113 C   0  0  2  0  0  0  0  0  0  0  0  0
   -0.9088   -3.7245   -5.9703 O   0  0  0  0  0  0  0  0  0  0  0  0
    1.3961   -4.3283   -6.6952 C   0  0  2  0  0  0  0  0  0  0  0  0
    1.3213   -5.6723   -6.0894 N   0  3  0  0  0  0  0  0  0  0  0  0
    2.1055   -3.3407   -5.7332 C   0  0  0  0  0  0  0  0  0  0  0  0
    2.2340   -1.9480   -6.3684 C   0  0  0  0  0  0  0  0  0  0  0  0
    1.1511   -0.1924   -7.8188 C   0  0  0  0  0  0  0  0  0  0  0  0
    2.1866   -0.4154   -8.8364 N   0  3  0  0  0  0  0  0  0  0  0  0
   -2.4498   -5.0016   -7.4072 C   0  0  1  0  0  0  0  0  0  0  0  0
   -3.9316   -5.2810   -7.7576 C   0  0  0  0  0  0  0  0  0  0  0  0
   -4.6659   -3.9590   -8.1082 C   0  0  1  0  0  0  0  0  0  0  0  0
   -6.0543   -4.2483   -8.5150 N   0  3  0  0  0  0  0  0  0  0  0  0
   -4.6064   -2.9742   -6.9047 C   0  0  1  0  0  0  0  0  0  0  0  0
   -3.1497   -2.7320   -6.4362 C   0  0  1  0  0  0  0  0  0  0  0  0
   -3.2293   -1.9660   -5.2434 O   0  0  0  0  0  0  0  0  0  0  0  0
   -2.3214   -4.0350   -6.1844 C   0  0  2  0  0  0  0  0  0  0  0  0
   -1.7367   -6.2704   -7.1769 N   0  3  0  0  0  0  0  0  0  0  0  0
   -7.1132   -3.5400   -5.8473 C   0  0  0  0  0  0  0  0  0  0  0  0
   -7.0549   -3.1310   -4.3550 C   0  0  2  0  0  0  0  0  0  0  0  0
   -8.3644   -2.6973   -3.9902 O   0  0  0  0  0  0  0  0  0  0  0  0
   -6.0064   -1.9700   -4.1701 C   0  0  1  0  0  0  0  0  0  0  0  0
   -6.1940   -0.8089   -5.2049 C   0  0  2  0  0  0  0  0  0  0  0  0
   -6.4182   -1.3052   -6.6559 C   0  0  1  0  0  0  0  0  0  0  0  0
   -5.1593   -1.6788   -7.2749 O   0  0  0  0  0  0  0  0  0  0  0  0
   -7.3865   -2.3913   -6.6934 O   0  0  0  0  0  0  0  0  0  0  0  0
   -5.0849    0.0860   -5.1910 O   0  0  0  0  0  0  0  0  0  0  0  0
   -6.0739   -1.4457   -2.7705 N   0  3  0  0  0  0  0  0  0  0  0  0
   -7.3796   -0.9321   -2.3088 C   0  0  0  0  0  0  0  0  0  0  0  0
   -6.7342   -4.3881   -3.5095 C   0  0  0  0  0  0  0  0  0  0  0  0
  1  8  1  0  0  0  0
  1  9  1  6  0  0  0
  1  2  1  0  0  0  0
  2  3  1  0  0  0  0
  3  5  1  0  0  0  0
  3  4  1  1  0  0  0
  5  7  1  0  0  0  0
  5  6  1  1  0  0  0
  7  8  1  0  0  0  0
  9 10  1  0  0  0  0
 11 12  1  0  0  0  0
 11 18  1  0  0  0  0
 11 19  1  1  0  0  0
 12 13  1  0  0  0  0
 13 15  1  0  0  0  0
 13 14  1  1  0  0  0
 15 16  1  0  0  0  0
 15 26  1  6  0  0  0
 16 18  1  0  0  0  0
 16 17  1  1  0  0  0
 18  4  1  6  0  0  0
 20 21  1  0  0  0  0
 20 27  1  0  0  0  0
 21 31  1  1  0  0  0
 21 23  1  0  0  0  0
 21 22  1  0  0  0  0
 23 24  1  0  0  0  0
 23 29  1  1  0  0  0
 24 25  1  0  0  0  0
 24 28  1  6  0  0  0
 25 27  1  0  0  0  0
 25 26  1  1  0  0  0
 29 30  1  0  0  0  0
M  CHG  5   6   1  10   1  14   1  19   1  29   1
M  END
>  <CHROM.1>
-72.07815814,95.13257856,27.77200794,169.09320933,112.39547894,124.36916121
-92.38294795,111.11936738,-60.17081956,-55.48369550,63.44515381,-55.23691053
78.36836755,-3.24941957,-2.82988209,-6.15442726,-0.16958986,0.23533954,0.36435995

>  <Name>
1byj cryst

>  <RI>
0

>  <Rbt.Current_Directory>
/home/itssahil/PROJECTS/Mol_Feturizer/New_Systems/rnas/1byj

>  <Rbt.Executable>
rbdock ($Id: //depot/dev/client3/rdock/2013.1/src/exe/rbdock.cxx#4 $)

>  <Rbt.Library>
libRbt.so (2013.1, Build901 2013/11/27)

>  <Rbt.Parameter_File>
/export/apps/rDock/src/rDock_2013.1_src/data/scripts/dock_solv.prm

>  <Rbt.Receptor>
prm/blind_docking_40.prm

>  <SCORE>
-27.3381

>  <SCORE.INTER>
-41.3002

>  <SCORE.INTER.CONST>
1

>  <SCORE.INTER.POLAR>
-6.4034

>  <SCORE.INTER.ROT>
6

>  <SCORE.INTER.SOLV>
23.0969

>  <SCORE.INTER.VDW>
-21.4878

>  <SCORE.INTER.norm>
-1.33226

>  <SCORE.INTRA>
9.05325

>  <SCORE.INTRA.DIHEDRAL>
8.90652

>  <SCORE.INTRA.DIHEDRAL.0>
18.4149

>  <SCORE.INTRA.POLAR>
-1.20233

>  <SCORE.INTRA.POLAR.0>
0

>  <SCORE.INTRA.REPUL>
-0.0917599

>  <SCORE.INTRA.REPUL.0>
0.092687

>  <SCORE.INTRA.SOLV>
6.35158

>  <SCORE.INTRA.SOLV.lig_0>
-120.37

>  <SCORE.INTRA.VDW>
5.97093

>  <SCORE.INTRA.VDW.0>
-1.75542

>  <SCORE.INTRA.norm>
0.29204

>  <SCORE.RESTR>
4.9088

>  <SCORE.RESTR.CAVITY>
4.9088

>  <SCORE.RESTR.norm>
0.158348

>  <SCORE.SYSTEM>
0

>  <SCORE.SYSTEM.CONST>
0

>  <SCORE.SYSTEM.DIHEDRAL>
0

>  <SCORE.SYSTEM.SOLV>
0

>  <SCORE.SYSTEM.norm>
0

>  <SCORE.heavy>
31

>  <SCORE.norm>
-0.881875

>  <RMSD>
12.787

$$$$
1byj cryst
 OpenBabel11021811383D
libRbt.so/2013.1/901 2013/11/27
 31 33  0  0  0  0  0  0  0  0999 V2000
    0.3942   -1.6345   -8.2761 C   0  0  1  0  0  0  0  0  0  0  0  0
    1.3649   -2.4769   -7.5761 O   0  0  0  0  0  0  0  0  0  0  0  0
    1.9998   -1.9582   -6.3693 C   0  0  2  0  0  0  0  0  0  0  0  0
    1.0383   -1.8303   -5.2757 O   0  0  0  0  0  0  0  0  0  0  0  0
    2.6699   -0.5872   -6.6882 C   0  0  2  0  0  0  0  0  0  0  0  0
    3.3413    0.0183   -5.5214 N   0  3  0  0  0  0  0  0  0  0  0  0
    1.6225    0.3926   -7.2775 C   0  0  0  0  0  0  0  0  0  0  0  0
    0.9479   -0.2039   -8.5220 C   0  0  0  0  0  0  0  0  0  0  0  0
    0.0380   -2.2798   -9.6270 C   0  0  0  0  0  0  0  0  0  0  0  0
    1.1769   -2.9205  -10.2976 N   0  3  0  0  0  0  0  0  0  0  0  0
    0.6405   -4.2298   -5.6687 C   0  0  1  0  0  0  0  0  0  0  0  0
   -0.3811   -5.3881   -5.5622 C   0  0  0  0  0  0  0  0  0  0  0  0
   -1.6929   -5.0262   -6.3093 C   0  0  1  0  0  0  0  0  0  0  0  0
   -2.6267   -6.1677   -6.2662 N   0  3  0  0  0  0  0  0  0  0  0  0
   -2.3211   -3.7385   -5.7019 C   0  0  1  0  0  0  0  0  0  0  0  0
   -1.3110   -2.5640   -5.6835 C   0  0  1  0  0  0  0  0  0  0  0  0
   -1.9288   -1.5089   -4.9616 O   0  0  0  0  0  0  0  0  0  0  0  0
    0.0771   -2.9087   -5.0497 C   0  0  2  0  0  0  0  0  0  0  0  0
    1.9171   -4.6228   -5.0463 N   0  3  0  0  0  0  0  0  0  0  0  0
   -6.0846   -1.7365   -6.4351 C   0  0  0  0  0  0  0  0  0  0  0  0
   -6.9662   -2.3682   -7.5402 C   0  0  2  0  0  0  0  0  0  0  0  0
   -8.1313   -2.8855   -6.8990 O   0  0  0  0  0  0  0  0  0  0  0  0
   -6.1633   -3.5173   -8.2587 C   0  0  1  0  0  0  0  0  0  0  0  0
   -5.4878   -4.5100   -7.2525 C   0  0  2  0  0  0  0  0  0  0  0  0
   -4.7676   -3.8025   -6.0766 C   0  0  1  0  0  0  0  0  0  0  0  0
   -3.4671   -3.3068   -6.4898 O   0  0  0  0  0  0  0  0  0  0  0  0
   -5.5980   -2.7480   -5.5132 O   0  0  0  0  0  0  0  0  0  0  0  0
   -4.5598   -5.3684   -7.9107 O   0  0  0  0  0  0  0  0  0  0  0  0
   -7.0646   -4.2519   -9.2002 N   0  3  0  0  0  0  0  0  0  0  0  0
   -6.5599   -4.4826  -10.5691 C   0  0  0  0  0  0  0  0  0  0  0  0
   -7.4302   -1.2483   -8.5038 C   0  0  0  0  0  0  0  0  0  0  0  0
  1  8  1  0  0  0  0
  1  9  1  6  0  0  0
  1  2  1  0  0  0  0
  2  3  1  0  0  0  0
  3  5  1  0  0  0  0
  3  4  1  1  0  0  0
  5  7  1  0  0  0  0
  5  6  1  1  0  0  0
  7  8  1  0  0  0  0
  9 10  1  0  0  0  0
 11 12  1  0  0  0  0
 11 18  1  0  0  0  0
 11 19  1  1  0  0  0
 12 13  1  0  0  0  0
 13 15  1  0  0  0  0
 13 14  1  1  0  0  0
 15 16  1  0  0  0  0
 15 26  1  6  0  0  0
 16 18  1  0  0  0  0
 16 17  1  1  0  0  0
 18  4  1  6  0  0  0
 20 21  1  0  0  0  0
 20 27  1  0  0  0  0
 21 31  1  6  0  0  0
 21 23  1  0  0  0  0
 21 22  1  0  0  0  0
 23 24  1  0  0  0  0
 23 29  1  6  0  0  0
 24 25  1  0  0  0  0
 24 28  1  6  0  0  0
 25 27  1  0  0  0  0
 25 26  1  6  0  0  0
 29 30  1  0  0  0  0
M  CHG  5   6   1  10   1  14   1  19   1  29   1
M  END
>  <CHROM.1>
-37.85973927,43.00410692,22.62468476,-19.01094345,-81.73562335,-158.34358850
57.18664846,92.18997169,-85.68702953,-173.47243169,-107.27252056,-49.80230735
-125.16879148,-2.11304592,-2.92067274,-6.98491205,0.06391697,-0.23237853
-0.68581127

>  <Name>
1byj cryst

>  <RI>
0

>  <Rbt.Current_Directory>
/home/itssahil/PROJECTS/Mol_Feturizer/New_Systems/rnas/1byj

>  <Rbt.Executable>
rbdock ($Id: //depot/dev/client3/rdock/2013.1/src/exe/rbdock.cxx#4 $)

>  <Rbt.Library>
libRbt.so (2013.1, Build901 2013/11/27)

>  <Rbt.Parameter_File>
/export/apps/rDock/src/rDock_2013.1_src/data/scripts/dock_solv.prm

>  <Rbt.Receptor>
prm/blind_docking_40.prm

>  <SCORE>
-11.5209

>  <SCORE.INTER>
-23.7206

>  <SCORE.INTER.CONST>
1

>  <SCORE.INTER.POLAR>
-3.79157

>  <SCORE.INTER.ROT>
6

>  <SCORE.INTER.SOLV>
28.8295

>  <SCORE.INTER.VDW>
-20.385

>  <SCORE.INTER.norm>
-0.765179

>  <SCORE.INTRA>
3.64062

>  <SCORE.INTRA.DIHEDRAL>
12.2996

>  <SCORE.INTRA.DIHEDRAL.0>
18.4149

>  <SCORE.INTRA.POLAR>
-1.32464

>  <SCORE.INTRA.POLAR.0>
0

>  <SCORE.INTRA.REPUL>
-0.092687

>  <SCORE.INTRA.REPUL.0>
0.092687

>  <SCORE.INTRA.SOLV>
2.56086

>  <SCORE.INTRA.SOLV.lig_0>
-120.37

>  <SCORE.INTRA.VDW>
1.17758

>  <SCORE.INTRA.VDW.0>
-1.75542

>  <SCORE.INTRA.norm>
0.117439

>  <SCORE.RESTR>
8.55903

>  <SCORE.RESTR.CAVITY>
8.55903

>  <SCORE.RESTR.norm>
0.276098

>  <SCORE.SYSTEM>
0

>  <SCORE.SYSTEM.CONST>
0

>  <SCORE.SYSTEM.DIHEDRAL>
0

>  <SCORE.SYSTEM.SOLV>
0

>  <SCORE.SYSTEM.norm>
0

>  <SCORE.heavy>
31

>  <SCORE.norm>
-0.371642

>  <RMSD>
12.819

$$$$
1byj cryst
 OpenBabel11021811383D
libRbt.so/2013.1/901 2013/11/27
 31 33  0  0  0  0  0  0  0  0999 V2000
   -5.8832   -1.0940   -8.9977 C   0  0  1  0  0  0  0  0  0  0  0  0
   -5.3912   -0.7727   -7.6573 O   0  0  0  0  0  0  0  0  0  0  0  0
   -4.9889   -1.8660   -6.7788 C   0  0  2  0  0  0  0  0  0  0  0  0
   -3.7803   -2.5253   -7.2700 O   0  0  0  0  0  0  0  0  0  0  0  0
   -6.1653   -2.8804   -6.6469 C   0  0  2  0  0  0  0  0  0  0  0  0
   -5.8500   -4.0273   -5.7727 N   0  3  0  0  0  0  0  0  0  0  0  0
   -6.6015   -3.3747   -8.0503 C   0  0  0  0  0  0  0  0  0  0  0  0
   -6.9791   -2.1946   -8.9581 C   0  0  0  0  0  0  0  0  0  0  0  0
   -6.4619    0.1752   -9.6474 C   0  0  0  0  0  0  0  0  0  0  0  0
   -6.7553    1.2507   -8.6911 N   0  3  0  0  0  0  0  0  0  0  0  0
   -1.5315   -3.4392   -6.8481 C   0  0  1  0  0  0  0  0  0  0  0  0
   -0.1964   -3.2437   -6.0893 C   0  0  0  0  0  0  0  0  0  0  0  0
   -0.4525   -3.1117   -4.5639 C   0  0  1  0  0  0  0  0  0  0  0  0
    0.8322   -3.0042   -3.8463 N   0  3  0  0  0  0  0  0  0  0  0  0
   -1.3816   -1.8969   -4.2767 C   0  0  1  0  0  0  0  0  0  0  0  0
   -2.6979   -1.9797   -5.0895 C   0  0  1  0  0  0  0  0  0  0  0  0
   -3.3806   -0.7520   -4.8823 O   0  0  0  0  0  0  0  0  0  0  0  0
   -2.5029   -2.2348   -6.6206 C   0  0  2  0  0  0  0  0  0  0  0  0
   -1.2704   -3.6664   -8.2805 N   0  3  0  0  0  0  0  0  0  0  0  0
   -4.2922   -0.6474   -1.6874 C   0  0  0  0  0  0  0  0  0  0  0  0
   -4.0329   -0.5514   -0.1638 C   0  0  2  0  0  0  0  0  0  0  0  0
   -4.1086    0.8300    0.1856 O   0  0  0  0  0  0  0  0  0  0  0  0
   -2.6074   -1.1366    0.1633 C   0  0  1  0  0  0  0  0  0  0  0  0
   -1.4863   -0.5694   -0.7724 C   0  0  2  0  0  0  0  0  0  0  0  0
   -1.8878   -0.5393   -2.2690 C   0  0  1  0  0  0  0  0  0  0  0  0
   -1.7489   -1.8544   -2.8681 O   0  0  0  0  0  0  0  0  0  0  0  0
   -3.2301   -0.0026   -2.4397 O   0  0  0  0  0  0  0  0  0  0  0  0
   -0.2727   -1.3041   -0.6363 O   0  0  0  0  0  0  0  0  0  0  0  0
   -2.2742   -0.8835    1.5998 N   0  3  0  0  0  0  0  0  0  0  0  0
   -2.9053   -1.7678    2.6005 C   0  0  0  0  0  0  0  0  0  0  0  0
   -5.1803   -1.2778    0.5804 C   0  0  0  0  0  0  0  0  0  0  0  0
  1  8  1  0  0  0  0
  1  9  1  1  0  0  0
  1  2  1  0  0  0  0
  2  3  1  0  0  0  0
  3  5  1  0  0  0  0
  3  4  1  6  0  0  0
  5  7  1  0  0  0  0
  5  6  1  1  0  0  0
  7  8  1  0  0  0  0
  9 10  1  0  0  0  0
 11 12  1  0  0  0  0
 11 18  1  0  0  0  0
 11 19  1  6  0  0  0
 12 13  1  0  0  0  0
 13 15  1  0  0  0  0
 13 14  1  1  0  0  0
 15 16  1  0  0  0  0
 15 26  1  1  0  0  0
 16 18  1  0  0  0  0
 16 17  1  6  0  0  0
 18  4  1  1  0  0  0
 20 21  1  0  0  0  0
 20 27  1  0  0  0  0
 21 31  1  1  0  0  0
 21 23  1  0  0  0  0
 21 22  1  0  0  0  0
 23 24  1  0  0  0  0
 23 29  1  1  0  0  0
 24 25  1  0  0  0  0
 24 28  1  6  0  0  0
 25 27  1  0  0  0  0
 25 26  1  1  0  0  0
 29 30  1  0  0  0  0
M  CHG  5   6   1  10   1  14   1  19   1  29   1
M  END
>  <CHROM.1>
-17.22074841,103.01336835,155.39549666,-175.99063168,64.58139038,60.08591634
177.02142583,144.68678797,-60.64325226,58.75644832,-161.11374546,-175.80860527
-148.02419533,-3.38957994,-1.60485756,-4.31960239,1.92711393,0.39043085,-1.80711676

>  <Name>
1byj cryst

>  <RI>
0

>  <Rbt.Current_Directory>
/home/itssahil/PROJECTS/Mol_Feturizer/New_Systems/rnas/1byj

>  <Rbt.Executable>
rbdock ($Id: //depot/dev/client3/rdock/2013.1/src/exe/rbdock.cxx#4 $)

>  <Rbt.Library>
libRbt.so (2013.1, Build901 2013/11/27)

>  <Rbt.Parameter_File>
/export/apps/rDock/src/rDock_2013.1_src/data/scripts/dock_solv.prm

>  <Rbt.Receptor>
prm/blind_docking_20.prm

>  <SCORE>
-3.01314

>  <SCORE.INTER>
-9.85405

>  <SCORE.INTER.CONST>
1

>  <SCORE.INTER.POLAR>
-1.79156

>  <SCORE.INTER.ROT>
6

>  <SCORE.INTER.SOLV>
21.1079

>  <SCORE.INTER.VDW>
-15.2335

>  <SCORE.INTER.norm>
-0.317873

>  <SCORE.INTRA>
0.768326

>  <SCORE.INTRA.DIHEDRAL>
4.08181

>  <SCORE.INTRA.DIHEDRAL.0>
18.4149

>  <SCORE.INTRA.POLAR>
-0.731757

>  <SCORE.INTRA.POLAR.0>
0

>  <SCORE.INTRA.REPUL>
-0.092687

>  <SCORE.INTRA.REPUL.0>
0.092687

>  <SCORE.INTRA.SOLV>
-2.3069

>  <SCORE.INTRA.SOLV.lig_0>
-120.37

>  <SCORE.INTRA.VDW>
2.83228

>  <SCORE.INTRA.VDW.0>
-1.75542

>  <SCORE.INTRA.norm>
0.0247847

>  <SCORE.RESTR>
6.07258

>  <SCORE.RESTR.CAVITY>
6.07258

>  <SCORE.RESTR.norm>
0.19589

>  <SCORE.SYSTEM>
0

>  <SCORE.SYSTEM.CONST>
0

>  <SCORE.SYSTEM.DIHEDRAL>
0

>  <SCORE.SYSTEM.SOLV>
0

>  <SCORE.SYSTEM.norm>
0

>  <SCORE.heavy>
31

>  <SCORE.norm>
-0.0971981

>  <RMSD>
12.840

$$$$
1byj cryst
 OpenBabel11021811383D
libRbt.so/2013.1/901 2013/11/27
 31 33  0  0  0  0  0  0  0  0999 V2000
    4.3283   -5.0835  -10.2057 C   0  0  1  0  0  0  0  0  0  0  0  0
    4.3257   -4.4501   -8.8863 O   0  0  0  0  0  0  0  0  0  0  0  0
    3.3943   -3.3549   -8.6377 C   0  0  2  0  0  0  0  0  0  0  0  0
    2.0109   -3.8267   -8.6228 O   0  0  0  0  0  0  0  0  0  0  0  0
    3.5972   -2.2506   -9.7191 C   0  0  2  0  0  0  0  0  0  0  0  0
    2.6936   -1.0958   -9.5488 N   0  3  0  0  0  0  0  0  0  0  0  0
    3.4364   -2.8580  -11.1366 C   0  0  0  0  0  0  0  0  0  0  0  0
    4.4044   -4.0320  -11.3469 C   0  0  0  0  0  0  0  0  0  0  0  0
    5.5319   -6.0364  -10.3126 C   0  0  0  0  0  0  0  0  0  0  0  0
    5.9188   -6.3515  -11.6940 N   0  3  0  0  0  0  0  0  0  0  0  0
    1.1166   -5.6817   -7.2701 C   0  0  1  0  0  0  0  0  0  0  0  0
    0.3519   -6.0674   -5.9805 C   0  0  0  0  0  0  0  0  0  0  0  0
   -1.0157   -5.3354   -5.9200 C   0  0  1  0  0  0  0  0  0  0  0  0
   -1.7663   -5.7712   -4.7269 N   0  3  0  0  0  0  0  0  0  0  0  0
   -0.8032   -3.7940   -5.9416 C   0  0  1  0  0  0  0  0  0  0  0  0
    0.0479   -3.3516   -7.1582 C   0  0  1  0  0  0  0  0  0  0  0  0
    0.3184   -1.9688   -6.9828 O   0  0  0  0  0  0  0  0  0  0  0  0
    1.3854   -4.1425   -7.3395 C   0  0  2  0  0  0  0  0  0  0  0  0
    2.3648   -6.4585   -7.3693 N   0  3  0  0  0  0  0  0  0  0  0  0
   -4.9366   -2.7929   -5.0033 C   0  0  0  0  0  0  0  0  0  0  0  0
   -5.7607   -2.2926   -6.2150 C   0  0  2  0  0  0  0  0  0  0  0  0
   -6.7579   -3.2791   -6.4767 O   0  0  0  0  0  0  0  0  0  0  0  0
   -4.8094   -2.1117   -7.4574 C   0  0  1  0  0  0  0  0  0  0  0  0
   -3.8879   -3.3541   -7.7054 C   0  0  2  0  0  0  0  0  0  0  0  0
   -3.2312   -3.9035   -6.4136 C   0  0  1  0  0  0  0  0  0  0  0  0
   -2.0808   -3.1018   -6.0371 O   0  0  0  0  0  0  0  0  0  0  0  0
   -4.2027   -4.0019   -5.3341 O   0  0  0  0  0  0  0  0  0  0  0  0
   -2.8646   -3.0631   -8.6538 O   0  0  0  0  0  0  0  0  0  0  0  0
   -5.6215   -1.8051   -8.6759 N   0  3  0  0  0  0  0  0  0  0  0  0
   -6.4457   -2.9006   -9.2257 C   0  0  0  0  0  0  0  0  0  0  0  0
   -6.4959   -0.9912   -5.8101 C   0  0  0  0  0  0  0  0  0  0  0  0
  1  8  1  0  0  0  0
  1  9  1  1  0  0  0
  1  2  1  0  0  0  0
  2  3  1  0  0  0  0
  3  5  1  0  0  0  0
  3  4  1  6  0  0  0
  5  7  1  0  0  0  0
  5  6  1  1  0  0  0
  7  8  1  0  0  0  0
  9 10  1  0  0  0  0
 11 12  1  0  0  0  0
 11 18  1  0  0  0  0
 11 19  1  1  0  0  0
 12 13  1  0  0  0  0
 13 15  1  0  0  0  0
 13 14  1  1  0  0  0
 15 16  1  0  0  0  0
 15 26  1  6  0  0  0
 16 18  1  0  0  0  0
 16 17  1  1  0  0  0
 18  4  1  6  0  0  0
 20 21  1  0  0  0  0
 20 27  1  0  0  0  0
 21 31  1  1  0  0  0
 21 23  1  0  0  0  0
 21 22  1  0  0  0  0
 23 24  1  0  0  0  0
 23 29  1  6  0  0  0
 24 25  1  0  0  0  0
 24 28  1  6  0  0  0
 25 27  1  0  0  0  0
 25 26  1  1  0  0  0
 29 30  1  0  0  0  0
M  CHG  5   6   1  10   1  14   1  19   1  29   1
M  END
>  <CHROM.1>
-159.28557344,95.95876915,-113.01008886,-145.67523837,-165.01357513,87.04936179
-87.37788847,-14.38076371,-60.30920772,63.32014309,50.73475840,-37.85695735
-121.39651409,-0.50881199,-3.72389385,-7.81105565,0.13098738,0.35645781,-0.85892031

>  <Name>
1byj cryst

>  <RI>
0

>  <Rbt.Current_Directory>
/home/itssahil/PROJECTS/Mol_Feturizer/New_Systems/rnas/1byj

>  <Rbt.Executable>
rbdock ($Id: //depot/dev/client3/rdock/2013.1/src/exe/rbdock.cxx#4 $)

>  <Rbt.Library>
libRbt.so (2013.1, Build901 2013/11/27)

>  <Rbt.Parameter_File>
/export/apps/rDock/src/rDock_2013.1_src/data/scripts/dock_solv.prm

>  <Rbt.Receptor>
prm/blind_docking_20.prm

>  <SCORE>
-11.9551

>  <SCORE.INTER>
-28.1871

>  <SCORE.INTER.CONST>
1

>  <SCORE.INTER.POLAR>
-5.72623

>  <SCORE.INTER.ROT>
6

>  <SCORE.INTER.SOLV>
27.4105

>  <SCORE.INTER.VDW>
-16.4408

>  <SCORE.INTER.norm>
-0.909262

>  <SCORE.INTRA>
9.13107

>  <SCORE.INTRA.DIHEDRAL>
16.4727

>  <SCORE.INTRA.DIHEDRAL.0>
18.4149

>  <SCORE.INTRA.POLAR>
-1.01802

>  <SCORE.INTRA.POLAR.0>
0

>  <SCORE.INTRA.REPUL>
-0.092687

>  <SCORE.INTRA.REPUL.0>
0.092687

>  <SCORE.INTRA.SOLV>
0.580215

>  <SCORE.INTRA.SOLV.lig_0>
-120.37

>  <SCORE.INTRA.VDW>
4.5293

>  <SCORE.INTRA.VDW.0>
-1.75542

>  <SCORE.INTRA.norm>
0.294551

>  <SCORE.RESTR>
7.10092

>  <SCORE.RESTR.CAVITY>
7.10092

>  <SCORE.RESTR.norm>
0.229062

>  <SCORE.SYSTEM>
0

>  <SCORE.SYSTEM.CONST>
0

>  <SCORE.SYSTEM.DIHEDRAL>
0

>  <SCORE.SYSTEM.SOLV>
0

>  <SCORE.SYSTEM.norm>
0

>  <SCORE.heavy>
31

>  <SCORE.norm>
-0.38565

>  <RMSD>
12.848

$$$$
1byj cryst
 OpenBabel11021811383D
libRbt.so/2013.1/901 2013/11/27
 31 33  0  0  0  0  0  0  0  0999 V2000
   -5.1824   -3.2550   -6.3862 C   0  0  1  0  0  0  0  0  0  0  0  0
   -3.8555   -2.6644   -6.5662 O   0  0  0  0  0  0  0  0  0  0  0  0
   -3.0901   -2.2892   -5.3822 C   0  0  2  0  0  0  0  0  0  0  0  0
   -2.6707   -3.4671   -4.6250 O   0  0  0  0  0  0  0  0  0  0  0  0
   -3.9451   -1.3311   -4.4982 C   0  0  2  0  0  0  0  0  0  0  0  0
   -3.2500   -0.8957   -3.2709 N   0  3  0  0  0  0  0  0  0  0  0  0
   -5.2985   -1.9998   -4.1444 C   0  0  0  0  0  0  0  0  0  0  0  0
   -6.0567   -2.4162   -5.4137 C   0  0  0  0  0  0  0  0  0  0  0  0
   -5.8888   -3.3499   -7.7501 C   0  0  0  0  0  0  0  0  0  0  0  0
   -5.4434   -4.4828   -8.5719 N   0  3  0  0  0  0  0  0  0  0  0  0
   -0.2604   -3.3347   -4.1318 C   0  0  1  0  0  0  0  0  0  0  0  0
    1.1478   -3.8640   -4.4971 C   0  0  0  0  0  0  0  0  0  0  0  0
    1.4252   -3.6703   -6.0122 C   0  0  1  0  0  0  0  0  0  0  0  0
    2.7979   -4.1068   -6.3313 N   0  3  0  0  0  0  0  0  0  0  0  0
    0.3625   -4.4318   -6.8562 C   0  0  1  0  0  0  0  0  0  0  0  0
   -1.0792   -4.0215   -6.4645 C   0  0  1  0  0  0  0  0  0  0  0  0
   -1.9538   -4.8920   -7.1669 O   0  0  0  0  0  0  0  0  0  0  0  0
   -1.3792   -4.0808   -4.9303 C   0  0  2  0  0  0  0  0  0  0  0  0
   -0.4739   -3.4281   -2.6768 N   0  3  0  0  0  0  0  0  0  0  0  0
    0.3748   -1.5154   -6.7105 C   0  0  0  0  0  0  0  0  0  0  0  0
    1.3595   -0.5556   -7.4222 C   0  0  2  0  0  0  0  0  0  0  0  0
    0.5936    0.5512   -7.8961 O   0  0  0  0  0  0  0  0  0  0  0  0
    2.0557   -1.3099   -8.6171 C   0  0  1  0  0  0  0  0  0  0  0  0
    1.0379   -2.0706   -9.5333 C   0  0  2  0  0  0  0  0  0  0  0  0
   -0.0246   -2.8744   -8.7415 C   0  0  1  0  0  0  0  0  0  0  0  0
    0.5237   -4.1342   -8.2725 O   0  0  0  0  0  0  0  0  0  0  0  0
   -0.5754   -2.0815   -7.6521 O   0  0  0  0  0  0  0  0  0  0  0  0
    1.7045   -2.9517  -10.4336 O   0  0  0  0  0  0  0  0  0  0  0  0
    2.8690   -0.3442   -9.4198 N   0  3  0  0  0  0  0  0  0  0  0  0
    2.2126    0.9184   -9.8159 C   0  0  0  0  0  0  0  0  0  0  0  0
    2.3606   -0.0080   -6.3754 C   0  0  0  0  0  0  0  0  0  0  0  0
  1  8  1  0  0  0  0
  1  9  1  6  0  0  0
  1  2  1  0  0  0  0
  2  3  1  0  0  0  0
  3  5  1  0  0  0  0
  3  4  1  1  0  0  0
  5  7  1  0  0  0  0
  5  6  1  1  0  0  0
  7  8  1  0  0  0  0
  9 10  1  0  0  0  0
 11 12  1  0  0  0  0
 11 18  1  0  0  0  0
 11 19  1  1  0  0  0
 12 13  1  0  0  0  0
 13 15  1  0  0  0  0
 13 14  1  1  0  0  0
 15 16  1  0  0  0  0
 15 26  1  6  0  0  0
 16 18  1  0  0  0  0
 16 17  1  6  0  0  0
 18  4  1  6  0  0  0
 20 21  1  0  0  0  0
 20 27  1  0  0  0  0
 21 31  1  1  0  0  0
 21 23  1  0  0  0  0
 21 22  1  0  0  0  0
 23 24  1  0  0  0  0
 23 29  1  6  0  0  0
 24 25  1  0  0  0  0
 24 28  1  6  0  0  0
 25 27  1  0  0  0  0
 25 26  1  1  0  0  0
 29 30  1  0  0  0  0
M  CHG  5   6   1  10   1  14   1  19   1  29   1
M  END
>  <CHROM.1>
78.86268822,90.71670392,85.01556284,-69.83875247,-38.57866833,31.37794046
177.77331424,-79.67795728,-59.43368373,-69.61227297,72.59042254,66.21694120
128.42101507,-0.93682253,-2.53349988,-6.68307820,2.69059125,0.15886182,1.70701580

>  <Name>
1byj cryst

>  <RI>
0

>  <Rbt.Current_Directory>
/home/itssahil/PROJECTS/Mol_Feturizer/New_Systems/rnas/1byj

>  <Rbt.Executable>
rbdock ($Id: //depot/dev/client3/rdock/2013.1/src/exe/rbdock.cxx#4 $)

>  <Rbt.Library>
libRbt.so (2013.1, Build901 2013/11/27)

>  <Rbt.Parameter_File>
/export/apps/rDock/src/rDock_2013.1_src/data/scripts/dock_solv.prm

>  <Rbt.Receptor>
prm/blind_docking_20.prm

>  <SCORE>
48.0966

>  <SCORE.INTER>
19.1339

>  <SCORE.INTER.CONST>
1

>  <SCORE.INTER.POLAR>
-3.21155

>  <SCORE.INTER.ROT>
6

>  <SCORE.INTER.SOLV>
34.0206

>  <SCORE.INTER.VDW>
4.5209

>  <SCORE.INTER.norm>
0.617223

>  <SCORE.INTRA>
23.8689

>  <SCORE.INTRA.DIHEDRAL>
1.80334

>  <SCORE.INTRA.DIHEDRAL.0>
18.4149

>  <SCORE.INTRA.POLAR>
-0.0177518

>  <SCORE.INTRA.POLAR.0>
0

>  <SCORE.INTRA.REPUL>
0.284491

>  <SCORE.INTRA.REPUL.0>
0.092687

>  <SCORE.INTRA.SOLV>
0.420699

>  <SCORE.INTRA.SOLV.lig_0>
-120.37

>  <SCORE.INTRA.VDW>
21.3948

>  <SCORE.INTRA.VDW.0>
-1.75542

>  <SCORE.INTRA.norm>
0.769964

>  <SCORE.RESTR>
5.09376

>  <SCORE.RESTR.CAVITY>
5.09376

>  <SCORE.RESTR.norm>
0.164315

>  <SCORE.SYSTEM>
0

>  <SCORE.SYSTEM.CONST>
0

>  <SCORE.SYSTEM.DIHEDRAL>
0

>  <SCORE.SYSTEM.SOLV>
0

>  <SCORE.SYSTEM.norm>
0

>  <SCORE.heavy>
31

>  <SCORE.norm>
1.5515

>  <RMSD>
12.859

$$$$
1byj cryst
 OpenBabel11021811383D
libRbt.so/2013.1/901 2013/11/27
 31 33  0  0  0  0  0  0  0  0999 V2000
   -4.5276    0.5242    0.2194 C   0  0  1  0  0  0  0  0  0  0  0  0
   -3.7771    0.8502   -0.9941 O   0  0  0  0  0  0  0  0  0  0  0  0
   -3.0975   -0.2262   -1.7069 C   0  0  2  0  0  0  0  0  0  0  0  0
   -4.0547   -1.1459   -2.3189 O   0  0  0  0  0  0  0  0  0  0  0  0
   -2.1501   -0.9778   -0.7231 C   0  0  2  0  0  0  0  0  0  0  0  0
   -1.4154   -2.0900   -1.3574 N   0  3  0  0  0  0  0  0  0  0  0  0
   -2.9518   -1.4888    0.5017 C   0  0  0  0  0  0  0  0  0  0  0  0
   -3.6846   -0.3347    1.2020 C   0  0  0  0  0  0  0  0  0  0  0  0
   -4.9548    1.8255    0.9210 C   0  0  0  0  0  0  0  0  0  0  0  0
   -3.9475    2.8925    0.8576 N   0  3  0  0  0  0  0  0  0  0  0  0
   -5.5137   -1.6529   -4.2384 C   0  0  1  0  0  0  0  0  0  0  0  0
   -5.5696   -1.9310   -5.7603 C   0  0  0  0  0  0  0  0  0  0  0  0
   -4.6341   -3.1129   -6.1315 C   0  0  1  0  0  0  0  0  0  0  0  0
   -4.7560   -3.4173   -7.5701 N   0  3  0  0  0  0  0  0  0  0  0  0
   -3.1669   -2.7856   -5.7294 C   0  0  1  0  0  0  0  0  0  0  0  0
   -3.0578   -2.3959   -4.2340 C   0  0  1  0  0  0  0  0  0  0  0  0
   -1.7234   -1.9578   -4.0252 O   0  0  0  0  0  0  0  0  0  0  0  0
   -4.0649   -1.2908   -3.7738 C   0  0  2  0  0  0  0  0  0  0  0  0
   -6.4804   -0.5998   -3.8810 N   0  3  0  0  0  0  0  0  0  0  0  0
   -0.0751   -1.8945   -6.2963 C   0  0  0  0  0  0  0  0  0  0  0  0
    1.2433   -2.6900   -6.1329 C   0  0  2  0  0  0  0  0  0  0  0  0
    1.9552   -2.5743   -7.3641 O   0  0  0  0  0  0  0  0  0  0  0  0
    0.9107   -4.1967   -5.8155 C   0  0  1  0  0  0  0  0  0  0  0  0
   -0.1545   -4.8041   -6.7904 C   0  0  2  0  0  0  0  0  0  0  0  0
   -1.3676   -3.8720   -7.0380 C   0  0  1  0  0  0  0  0  0  0  0  0
   -2.3087   -3.9440   -5.9348 O   0  0  0  0  0  0  0  0  0  0  0  0
   -0.9340   -2.5064   -7.2951 O   0  0  0  0  0  0  0  0  0  0  0  0
   -0.6301   -6.0639   -6.3235 O   0  0  0  0  0  0  0  0  0  0  0  0
    2.1680   -5.0073   -5.8358 N   0  3  0  0  0  0  0  0  0  0  0  0
    2.5880   -5.5611   -7.1392 C   0  0  0  0  0  0  0  0  0  0  0  0
    2.1011   -2.0072   -5.0393 C   0  0  0  0  0  0  0  0  0  0  0  0
  1  8  1  0  0  0  0
  1  9  1  1  0  0  0
  1  2  1  0  0  0  0
  2  3  1  0  0  0  0
  3  5  1  0  0  0  0
  3  4  1  1  0  0  0
  5  7  1  0  0  0  0
  5  6  1  6  0  0  0
  7  8  1  0  0  0  0
  9 10  1  0  0  0  0
 11 12  1  0  0  0  0
 11 18  1  0  0  0  0
 11 19  1  6  0  0  0
 12 13  1  0  0  0  0
 13 15  1  0  0  0  0
 13 14  1  6  0  0  0
 15 16  1  0  0  0  0
 15 26  1  1  0  0  0
 16 18  1  0  0  0  0
 16 17  1  6  0  0  0
 18  4  1  1  0  0  0
 20 21  1  0  0  0  0
 20 27  1  0  0  0  0
 21 31  1  1  0  0  0
 21 23  1  0  0  0  0
 21 22  1  0  0  0  0
 23 24  1  0  0  0  0
 23 29  1  6  0  0  0
 24 25  1  0  0  0  0
 24 28  1  1  0  0  0
 25 27  1  0  0  0  0
 25 26  1  1  0  0  0
 29 30  1  0  0  0  0
M  CHG  5   6   1  10   1  14   1  19   1  29   1
M  END
>  <CHROM.1>
-37.60607635,117.78824959,-150.36678784,-6.10827882,-177.78918616,-77.14993198
65.99739940,108.62345009,70.89835328,66.33819667,33.31432399,-55.12535530
155.10356966,-2.17189513,-2.07683424,-4.07198896,-2.12710257,0.18164360,-2.08612771

>  <Name>
1byj cryst

>  <RI>
0

>  <Rbt.Current_Directory>
/home/itssahil/PROJECTS/Mol_Feturizer/New_Systems/rnas/1byj

>  <Rbt.Executable>
rbdock ($Id: //depot/dev/client3/rdock/2013.1/src/exe/rbdock.cxx#4 $)

>  <Rbt.Library>
libRbt.so (2013.1, Build901 2013/11/27)

>  <Rbt.Parameter_File>
/export/apps/rDock/src/rDock_2013.1_src/data/scripts/dock_solv.prm

>  <Rbt.Receptor>
prm/blind_docking_20.prm

>  <SCORE>
5.03708

>  <SCORE.INTER>
-2.51636

>  <SCORE.INTER.CONST>
1

>  <SCORE.INTER.POLAR>
-3.98539

>  <SCORE.INTER.ROT>
6

>  <SCORE.INTER.SOLV>
28.5766

>  <SCORE.INTER.VDW>
-5.51846

>  <SCORE.INTER.norm>
-0.0811728

>  <SCORE.INTRA>
3.49131

>  <SCORE.INTRA.DIHEDRAL>
10.1536

>  <SCORE.INTRA.DIHEDRAL.0>
18.4149

>  <SCORE.INTRA.POLAR>
-1.1225

>  <SCORE.INTRA.POLAR.0>
0

>  <SCORE.INTRA.REPUL>
-0.092687

>  <SCORE.INTRA.REPUL.0>
0.092687

>  <SCORE.INTRA.SOLV>
0.312694

>  <SCORE.INTRA.SOLV.lig_0>
-120.37

>  <SCORE.INTRA.VDW>
2.53811

>  <SCORE.INTRA.VDW.0>
-1.75542

>  <SCORE.INTRA.norm>
0.112623

>  <SCORE.RESTR>
4.06213

>  <SCORE.RESTR.CAVITY>
4.06213

>  <SCORE.RESTR.norm>
0.131036

>  <SCORE.SYSTEM>
0

>  <SCORE.SYSTEM.CONST>
0

>  <SCORE.SYSTEM.DIHEDRAL>
0

>  <SCORE.SYSTEM.SOLV>
0

>  <SCORE.SYSTEM.norm>
0

>  <SCORE.heavy>
31

>  <SCORE.norm>
0.162487

>  <RMSD>
12.874

$$$$
1byj cryst
 OpenBabel11021811383D
libRbt.so/2013.1/901 2013/11/27
 31 33  0  0  0  0  0  0  0  0999 V2000
    0.4533   -1.0745   -8.3420 C   0  0  1  0  0  0  0  0  0  0  0  0
    1.3502   -2.0886   -7.7859 O   0  0  0  0  0  0  0  0  0  0  0  0
    2.0069   -1.8187   -6.5113 C   0  0  2  0  0  0  0  0  0  0  0  0
    1.0441   -1.7955   -5.4117 O   0  0  0  0  0  0  0  0  0  0  0  0
    2.7805   -0.4685   -6.6060 C   0  0  2  0  0  0  0  0  0  0  0  0
    3.4806   -0.1096   -5.3570 N   0  3  0  0  0  0  0  0  0  0  0  0
    1.8160    0.6687   -7.0308 C   0  0  0  0  0  0  0  0  0  0  0  0
    1.1144    0.3313   -8.3550 C   0  0  0  0  0  0  0  0  0  0  0  0
    0.0669   -1.4669   -9.7789 C   0  0  0  0  0  0  0  0  0  0  0  0
   -0.8925   -2.5765   -9.8538 N   0  3  0  0  0  0  0  0  0  0  0  0
    0.8026   -4.1939   -5.9215 C   0  0  1  0  0  0  0  0  0  0  0  0
   -0.1294   -5.4275   -5.8431 C   0  0  0  0  0  0  0  0  0  0  0  0
   -1.4915   -5.1237   -6.5229 C   0  0  1  0  0  0  0  0  0  0  0  0
   -2.3397   -6.3309   -6.5099 N   0  3  0  0  0  0  0  0  0  0  0  0
   -2.1855   -3.9187   -5.8243 C   0  0  1  0  0  0  0  0  0  0  0  0
   -1.2612   -2.6763   -5.7768 C   0  0  1  0  0  0  0  0  0  0  0  0
   -1.9238   -1.7081   -4.9770 O   0  0  0  0  0  0  0  0  0  0  0  0
    0.1714   -2.9514   -5.2117 C   0  0  2  0  0  0  0  0  0  0  0  0
    2.1270   -4.5246   -5.3666 N   0  3  0  0  0  0  0  0  0  0  0  0
   -6.1001   -2.1919   -6.1281 C   0  0  0  0  0  0  0  0  0  0  0  0
   -7.0002   -2.7189   -7.2725 C   0  0  2  0  0  0  0  0  0  0  0  0
   -8.0871   -3.4132   -6.6620 O   0  0  0  0  0  0  0  0  0  0  0  0
   -6.1642   -3.6839   -8.1951 C   0  0  1  0  0  0  0  0  0  0  0  0
   -5.3638   -4.7597   -7.3852 C   0  0  2  0  0  0  0  0  0  0  0  0
   -4.6256   -4.1809   -6.1515 C   0  0  1  0  0  0  0  0  0  0  0  0
   -3.3889   -3.5312   -6.5468 O   0  0  0  0  0  0  0  0  0  0  0  0
   -5.4915   -3.2883   -5.3951 O   0  0  0  0  0  0  0  0  0  0  0  0
   -4.4197   -5.4374   -8.2101 O   0  0  0  0  0  0  0  0  0  0  0  0
   -7.0671   -4.3380   -9.1928 N   0  3  0  0  0  0  0  0  0  0  0  0
   -6.4937   -4.6385  -10.5205 C   0  0  0  0  0  0  0  0  0  0  0  0
   -7.5961   -1.5076   -8.0314 C   0  0  0  0  0  0  0  0  0  0  0  0
  1  8  1  0  0  0  0
  1  9  1  6  0  0  0
  1  2  1  0  0  0  0
  2  3  1  0  0  0  0
  3  5  1  0  0  0  0
  3  4  1  1  0  0  0
  5  7  1  0  0  0  0
  5  6  1  1  0  0  0
  7  8  1  0  0  0  0
  9 10  1  0  0  0  0
 11 12  1  0  0  0  0
 11 18  1  0  0  0  0
 11 19  1  1  0  0  0
 12 13  1  0  0  0  0
 13 15  1  0  0  0  0
 13 14  1  1  0  0  0
 15 16  1  0  0  0  0
 15 26  1  6  0  0  0
 16 18  1  0  0  0  0
 16 17  1  1  0  0  0
 18  4  1  6  0  0  0
 20 21  1  0  0  0  0
 20 27  1  0  0  0  0
 21 31  1  6  0  0  0
 21 23  1  0  0  0  0
 21 22  1  0  0  0  0
 23 24  1  0  0  0  0
 23 29  1  6  0  0  0
 24 25  1  0  0  0  0
 24 28  1  6  0  0  0
 25 27  1  0  0  0  0
 25 26  1  6  0  0  0
 29 30  1  0  0  0  0
M  CHG  5   6   1  10   1  14   1  19   1  29   1
M  END
>  <CHROM.1>
73.99210272,54.68916714,20.17686508,-137.92090257,-46.87252894,-156.25767234
-43.83201630,89.81461105,-124.80557695,-178.97088214,-91.88608410,48.33018197
-129.33661711,-2.10748308,-2.95625452,-6.99319437,0.15371635,-0.25304763
-0.52924838

>  <Name>
1byj cryst

>  <RI>
0

>  <Rbt.Current_Directory>
/home/itssahil/PROJECTS/Mol_Feturizer/New_Systems/rnas/1byj

>  <Rbt.Executable>
rbdock ($Id: //depot/dev/client3/rdock/2013.1/src/exe/rbdock.cxx#4 $)

>  <Rbt.Library>
libRbt.so (2013.1, Build901 2013/11/27)

>  <Rbt.Parameter_File>
/export/apps/rDock/src/rDock_2013.1_src/data/scripts/dock_solv.prm

>  <Rbt.Receptor>
prm/blind_docking_40.prm

>  <SCORE>
-15.4318

>  <SCORE.INTER>
-27.138

>  <SCORE.INTER.CONST>
1

>  <SCORE.INTER.POLAR>
-4.49248

>  <SCORE.INTER.ROT>
6

>  <SCORE.INTER.SOLV>
28.9055

>  <SCORE.INTER.VDW>
-20.3523

>  <SCORE.INTER.norm>
-0.875421

>  <SCORE.INTRA>
3.07902

>  <SCORE.INTRA.DIHEDRAL>
13.0321

>  <SCORE.INTRA.DIHEDRAL.0>
18.4149

>  <SCORE.INTRA.POLAR>
-1.13509

>  <SCORE.INTRA.POLAR.0>
0

>  <SCORE.INTRA.REPUL>
-0.092687

>  <SCORE.INTRA.REPUL.0>
0.092687

>  <SCORE.INTRA.SOLV>
1.96797

>  <SCORE.INTRA.SOLV.lig_0>
-120.37

>  <SCORE.INTRA.VDW>
-0.0982609

>  <SCORE.INTRA.VDW.0>
-1.75542

>  <SCORE.INTRA.norm>
0.0993232

>  <SCORE.RESTR>
8.62719

>  <SCORE.RESTR.CAVITY>
8.62719

>  <SCORE.RESTR.norm>
0.278296

>  <SCORE.SYSTEM>
0

>  <SCORE.SYSTEM.CONST>
0

>  <SCORE.SYSTEM.DIHEDRAL>
0

>  <SCORE.SYSTEM.SOLV>
0

>  <SCORE.SYSTEM.norm>
0

>  <SCORE.heavy>
31

>  <SCORE.norm>
-0.497801

>  <RMSD>
12.893

$$$$
1byj cryst
 OpenBabel11021811383D
libRbt.so/2013.1/901 2013/11/27
 31 33  0  0  0  0  0  0  0  0999 V2000
    4.0814   -5.0312  -10.1890 C   0  0  1  0  0  0  0  0  0  0  0  0
    4.0226   -4.3807   -8.8792 O   0  0  0  0  0  0  0  0  0  0  0  0
    3.2086   -3.1791   -8.7305 C   0  0  2  0  0  0  0  0  0  0  0  0
    1.7842   -3.4833   -8.8539 O   0  0  0  0  0  0  0  0  0  0  0  0
    3.6492   -2.1241   -9.7904 C   0  0  2  0  0  0  0  0  0  0  0  0
    2.8776   -0.8678   -9.7171 N   0  3  0  0  0  0  0  0  0  0  0  0
    3.5595   -2.7309  -11.2144 C   0  0  0  0  0  0  0  0  0  0  0  0
    4.3964   -4.0145  -11.3208 C   0  0  0  0  0  0  0  0  0  0  0  0
    5.1671   -6.1215  -10.1697 C   0  0  0  0  0  0  0  0  0  0  0  0
    5.3982   -6.7526  -11.4757 N   0  3  0  0  0  0  0  0  0  0  0  0
    1.1823   -5.0339   -7.0363 C   0  0  1  0  0  0  0  0  0  0  0  0
    0.2694   -5.2672   -5.8079 C   0  0  0  0  0  0  0  0  0  0  0  0
   -1.2240   -5.1181   -6.2045 C   0  0  1  0  0  0  0  0  0  0  0  0
   -2.0843   -5.4191   -5.0442 N   0  3  0  0  0  0  0  0  0  0  0  0
   -1.4913   -3.6938   -6.7717 C   0  0  1  0  0  0  0  0  0  0  0  0
   -0.5348   -3.3566   -7.9428 C   0  0  1  0  0  0  0  0  0  0  0  0
   -0.7508   -1.9901   -8.2624 O   0  0  0  0  0  0  0  0  0  0  0  0
    0.9796   -3.6051   -7.6391 C   0  0  2  0  0  0  0  0  0  0  0  0
    2.5895   -5.2786   -6.6742 N   0  3  0  0  0  0  0  0  0  0  0  0
   -4.2636   -1.1260   -6.1738 C   0  0  0  0  0  0  0  0  0  0  0  0
   -5.7091   -1.1972   -6.7245 C   0  0  2  0  0  0  0  0  0  0  0  0
   -6.5806   -1.2827   -5.5979 O   0  0  0  0  0  0  0  0  0  0  0  0
   -5.8569   -2.4655   -7.6469 C   0  0  1  0  0  0  0  0  0  0  0  0
   -5.2979   -3.7699   -6.9837 C   0  0  2  0  0  0  0  0  0  0  0  0
   -3.9195   -3.5747   -6.3028 C   0  0  1  0  0  0  0  0  0  0  0  0
   -2.8504   -3.5934   -7.2849 O   0  0  0  0  0  0  0  0  0  0  0  0
   -3.8999   -2.3605   -5.5002 O   0  0  0  0  0  0  0  0  0  0  0  0
   -5.1983   -4.8332   -7.9275 O   0  0  0  0  0  0  0  0  0  0  0  0
   -7.2905   -2.6437   -8.0360 N   0  3  0  0  0  0  0  0  0  0  0  0
   -7.5649   -3.4851   -9.2186 C   0  0  0  0  0  0  0  0  0  0  0  0
   -6.0273    0.1320   -7.4526 C   0  0  0  0  0  0  0  0  0  0  0  0
  1  8  1  0  0  0  0
  1  9  1  1  0  0  0
  1  2  1  0  0  0  0
  2  3  1  0  0  0  0
  3  5  1  0  0  0  0
  3  4  1  6  0  0  0
  5  7  1  0  0  0  0
  5  6  1  6  0  0  0
  7  8  1  0  0  0  0
  9 10  1  0  0  0  0
 11 12  1  0  0  0  0
 11 18  1  0  0  0  0
 11 19  1  1  0  0  0
 12 13  1  0  0  0  0
 13 15  1  0  0  0  0
 13 14  1  1  0  0  0
 15 16  1  0  0  0  0
 15 26  1  6  0  0  0
 16 18  1  0  0  0  0
 16 17  1  1  0  0  0
 18  4  1  6  0  0  0
 20 21  1  0  0  0  0
 20 27  1  0  0  0  0
 21 31  1  6  0  0  0
 21 23  1  0  0  0  0
 21 22  1  0  0  0  0
 23 24  1  0  0  0  0
 23 29  1  1  0  0  0
 24 25  1  0  0  0  0
 24 28  1  6  0  0  0
 25 27  1  0  0  0  0
 25 26  1  6  0  0  0
 29 30  1  0  0  0  0
M  CHG  5   6   1  10   1  14   1  19   1  29   1
M  END
>  <CHROM.1>
-174.50599292,100.39958242,-81.25421262,-82.49799799,79.60861327,173.43947006
-155.37064056,71.40705749,-169.62641637,-178.69446949,-78.21984087,71.02333176
-167.90827843,-0.89957905,-3.47671874,-7.95660667,0.01499536,0.34077630,-0.65156636

>  <Name>
1byj cryst

>  <RI>
0

>  <Rbt.Current_Directory>
/home/itssahil/PROJECTS/Mol_Feturizer/New_Systems/rnas/1byj

>  <Rbt.Executable>
rbdock ($Id: //depot/dev/client3/rdock/2013.1/src/exe/rbdock.cxx#4 $)

>  <Rbt.Library>
libRbt.so (2013.1, Build901 2013/11/27)

>  <Rbt.Parameter_File>
/export/apps/rDock/src/rDock_2013.1_src/data/scripts/dock_solv.prm

>  <Rbt.Receptor>
prm/blind_docking_20.prm

>  <SCORE>
-15.2617

>  <SCORE.INTER>
-16.6616

>  <SCORE.INTER.CONST>
1

>  <SCORE.INTER.POLAR>
-3.40994

>  <SCORE.INTER.ROT>
6

>  <SCORE.INTER.SOLV>
27.1414

>  <SCORE.INTER.VDW>
-16.3884

>  <SCORE.INTER.norm>
-0.537472

>  <SCORE.INTRA>
-6.16022

>  <SCORE.INTRA.DIHEDRAL>
-3.83516

>  <SCORE.INTRA.DIHEDRAL.0>
18.4149

>  <SCORE.INTRA.POLAR>
-1.22253

>  <SCORE.INTRA.POLAR.0>
0

>  <SCORE.INTRA.REPUL>
-0.0904401

>  <SCORE.INTRA.REPUL.0>
0.092687

>  <SCORE.INTRA.SOLV>
1.29855

>  <SCORE.INTRA.SOLV.lig_0>
-120.37

>  <SCORE.INTRA.VDW>
-0.283111

>  <SCORE.INTRA.VDW.0>
-1.75542

>  <SCORE.INTRA.norm>
-0.198717

>  <SCORE.RESTR>
7.56018

>  <SCORE.RESTR.CAVITY>
7.56018

>  <SCORE.RESTR.norm>
0.243877

>  <SCORE.SYSTEM>
0

>  <SCORE.SYSTEM.CONST>
0

>  <SCORE.SYSTEM.DIHEDRAL>
0

>  <SCORE.SYSTEM.SOLV>
0

>  <SCORE.SYSTEM.norm>
0

>  <SCORE.heavy>
31

>  <SCORE.norm>
-0.492311

>  <RMSD>
12.912

$$$$
1byj cryst
 OpenBabel11021811383D
libRbt.so/2013.1/901 2013/11/27
 31 33  0  0  0  0  0  0  0  0999 V2000
    0.1368   -2.8888   -4.7319 C   0  0  1  0  0  0  0  0  0  0  0  0
   -0.9120   -2.2929   -5.5608 O   0  0  0  0  0  0  0  0  0  0  0  0
   -0.7931   -2.3836   -7.0121 C   0  0  2  0  0  0  0  0  0  0  0  0
   -0.9493   -3.7620   -7.4731 O   0  0  0  0  0  0  0  0  0  0  0  0
    0.5827   -1.7984   -7.4539 C   0  0  2  0  0  0  0  0  0  0  0  0
    0.7946   -1.8477   -8.9139 N   0  3  0  0  0  0  0  0  0  0  0  0
    1.7336   -2.5297   -6.7159 C   0  0  0  0  0  0  0  0  0  0  0  0
    1.5530   -2.4465   -5.1927 C   0  0  0  0  0  0  0  0  0  0  0  0
   -0.0727   -2.4725   -3.2653 C   0  0  0  0  0  0  0  0  0  0  0  0
    0.0048   -3.5891   -2.3143 N   0  3  0  0  0  0  0  0  0  0  0  0
   -2.9948   -3.6381   -8.8409 C   0  0  1  0  0  0  0  0  0  0  0  0
   -4.4674   -4.0951   -8.9783 C   0  0  0  0  0  0  0  0  0  0  0  0
   -5.2721   -3.7271   -7.7029 C   0  0  1  0  0  0  0  0  0  0  0  0
   -6.6893   -4.0978   -7.8787 N   0  3  0  0  0  0  0  0  0  0  0  0
   -4.6438   -4.4099   -6.4536 C   0  0  1  0  0  0  0  0  0  0  0  0
   -3.1375   -4.0747   -6.3165 C   0  0  1  0  0  0  0  0  0  0  0  0
   -2.6379   -4.8780   -5.2576 O   0  0  0  0  0  0  0  0  0  0  0  0
   -2.2967   -4.3118   -7.6142 C   0  0  2  0  0  0  0  0  0  0  0  0
   -2.2654   -3.8985  -10.0945 N   0  3  0  0  0  0  0  0  0  0  0  0
   -8.0867   -3.6193   -4.0391 C   0  0  0  0  0  0  0  0  0  0  0  0
   -7.9380   -2.5332   -2.9456 C   0  0  2  0  0  0  0  0  0  0  0  0
   -8.7837   -1.4465   -3.3196 O   0  0  0  0  0  0  0  0  0  0  0  0
   -6.4337   -2.0727   -2.8651 C   0  0  1  0  0  0  0  0  0  0  0  0
   -5.8228   -1.7382   -4.2683 C   0  0  2  0  0  0  0  0  0  0  0  0
   -6.1603   -2.7901   -5.3553 C   0  0  1  0  0  0  0  0  0  0  0  0
   -5.2981   -3.9520   -5.2359 O   0  0  0  0  0  0  0  0  0  0  0  0
   -7.5697   -3.1518   -5.3135 O   0  0  0  0  0  0  0  0  0  0  0  0
   -4.4074   -1.5872   -4.1981 O   0  0  0  0  0  0  0  0  0  0  0  0
   -6.3121   -0.9005   -1.9434 N   0  3  0  0  0  0  0  0  0  0  0  0
   -5.8768   -1.1777   -0.5594 C   0  0  0  0  0  0  0  0  0  0  0  0
   -8.4791   -3.0988   -1.6094 C   0  0  0  0  0  0  0  0  0  0  0  0
  1  8  1  0  0  0  0
  1  9  1  1  0  0  0
  1  2  1  0  0  0  0
  2  3  1  0  0  0  0
  3  5  1  0  0  0  0
  3  4  1  1  0  0  0
  5  7  1  0  0  0  0
  5  6  1  6  0  0  0
  7  8  1  0  0  0  0
  9 10  1  0  0  0  0
 11 12  1  0  0  0  0
 11 18  1  0  0  0  0
 11 19  1  6  0  0  0
 12 13  1  0  0  0  0
 13 15  1  0  0  0  0
 13 14  1  6  0  0  0
 15 16  1  0  0  0  0
 15 26  1  1  0  0  0
 16 18  1  0  0  0  0
 16 17  1  1  0  0  0
 18  4  1  1  0  0  0
 20 21  1  0  0  0  0
 20 27  1  0  0  0  0
 21 31  1  1  0  0  0
 21 23  1  0  0  0  0
 21 22  1  0  0  0  0
 23 24  1  0  0  0  0
 23 29  1  1  0  0  0
 24 25  1  0  0  0  0
 24 28  1  1  0  0  0
 25 27  1  0  0  0  0
 25 26  1  1  0  0  0
 29 30  1  0  0  0  0
M  CHG  5   6   1  10   1  14   1  19   1  29   1
M  END
>  <CHROM.1>
132.22930970,80.71819483,71.08533701,178.19444995,157.82928636,-47.86764543
-174.87543573,-12.80384268,63.80134002,-56.24262827,-140.63505401,72.95450016
-130.48849352,-3.66612286,-2.94299497,-5.46091527,-0.48258021,0.07248225
1.29139279

>  <Name>
1byj cryst

>  <RI>
0

>  <Rbt.Current_Directory>
/home/itssahil/PROJECTS/Mol_Feturizer/New_Systems/rnas/1byj

>  <Rbt.Executable>
rbdock ($Id: //depot/dev/client3/rdock/2013.1/src/exe/rbdock.cxx#4 $)

>  <Rbt.Library>
libRbt.so (2013.1, Build901 2013/11/27)

>  <Rbt.Parameter_File>
/export/apps/rDock/src/rDock_2013.1_src/data/scripts/dock_solv.prm

>  <Rbt.Receptor>
prm/blind_docking_40.prm

>  <SCORE>
-13.6223

>  <SCORE.INTER>
-19.3849

>  <SCORE.INTER.CONST>
1

>  <SCORE.INTER.POLAR>
-2.90123

>  <SCORE.INTER.ROT>
6

>  <SCORE.INTER.SOLV>
19.1964

>  <SCORE.INTER.VDW>
-17.2513

>  <SCORE.INTER.norm>
-0.62532

>  <SCORE.INTRA>
0.753801

>  <SCORE.INTRA.DIHEDRAL>
7.14999

>  <SCORE.INTRA.DIHEDRAL.0>
18.4149

>  <SCORE.INTRA.POLAR>
-1.23534

>  <SCORE.INTRA.POLAR.0>
0

>  <SCORE.INTRA.REPUL>
-0.0575139

>  <SCORE.INTRA.REPUL.0>
0.092687

>  <SCORE.INTRA.SOLV>
0.450511

>  <SCORE.INTRA.SOLV.lig_0>
-120.37

>  <SCORE.INTRA.VDW>
1.44128

>  <SCORE.INTRA.VDW.0>
-1.75542

>  <SCORE.INTRA.norm>
0.0243162

>  <SCORE.RESTR>
5.00876

>  <SCORE.RESTR.CAVITY>
5.00876

>  <SCORE.RESTR.norm>
0.161573

>  <SCORE.SYSTEM>
0

>  <SCORE.SYSTEM.CONST>
0

>  <SCORE.SYSTEM.DIHEDRAL>
0

>  <SCORE.SYSTEM.SOLV>
0

>  <SCORE.SYSTEM.norm>
0

>  <SCORE.heavy>
31

>  <SCORE.norm>
-0.43943

>  <RMSD>
12.965

$$$$
1byj cryst
 OpenBabel11021811383D
libRbt.so/2013.1/901 2013/11/27
 31 33  0  0  0  0  0  0  0  0999 V2000
   -5.6450   -1.7105   -7.0777 C   0  0  1  0  0  0  0  0  0  0  0  0
   -4.2722   -1.2047   -7.0376 O   0  0  0  0  0  0  0  0  0  0  0  0
   -3.4996   -1.3738   -5.8116 C   0  0  2  0  0  0  0  0  0  0  0  0
   -3.1887   -2.7814   -5.5691 O   0  0  0  0  0  0  0  0  0  0  0  0
   -4.2903   -0.7615   -4.6157 C   0  0  2  0  0  0  0  0  0  0  0  0
   -3.5837   -0.8861   -3.3257 N   0  3  0  0  0  0  0  0  0  0  0  0
   -5.6987   -1.4034   -4.5247 C   0  0  0  0  0  0  0  0  0  0  0  0
   -6.4659   -1.2402   -5.8453 C   0  0  0  0  0  0  0  0  0  0  0  0
   -6.3332   -1.2192   -8.3634 C   0  0  0  0  0  0  0  0  0  0  0  0
   -5.7694   -1.7897   -9.5938 N   0  3  0  0  0  0  0  0  0  0  0  0
   -2.2772   -4.9398   -6.3315 C   0  0  1  0  0  0  0  0  0  0  0  0
   -1.0664   -5.6572   -6.9762 C   0  0  0  0  0  0  0  0  0  0  0  0
    0.2281   -5.3713   -6.1685 C   0  0  1  0  0  0  0  0  0  0  0  0
    1.3579   -6.1228   -6.7478 N   0  3  0  0  0  0  0  0  0  0  0  0
    0.5093   -3.8413   -6.1254 C   0  0  1  0  0  0  0  0  0  0  0  0
   -0.7087   -3.0516   -5.5842 C   0  0  1  0  0  0  0  0  0  0  0  0
   -0.4053   -1.6744   -5.7496 O   0  0  0  0  0  0  0  0  0  0  0  0
   -2.0671   -3.3907   -6.2822 C   0  0  2  0  0  0  0  0  0  0  0  0
   -3.5161   -5.2998   -7.0434 N   0  3  0  0  0  0  0  0  0  0  0  0
    2.0190   -2.8730   -8.1979 C   0  0  0  0  0  0  0  0  0  0  0  0
    1.8944   -1.3321   -8.2852 C   0  0  2  0  0  0  0  0  0  0  0  0
    3.1395   -0.8406   -8.7796 O   0  0  0  0  0  0  0  0  0  0  0  0
    1.5884   -0.7489   -6.8543 C   0  0  1  0  0  0  0  0  0  0  0  0
    2.5470   -1.3099   -5.7496 C   0  0  2  0  0  0  0  0  0  0  0  0
    2.7563   -2.8432   -5.8343 C   0  0  1  0  0  0  0  0  0  0  0  0
    1.6337   -3.5516   -5.2465 O   0  0  0  0  0  0  0  0  0  0  0  0
    3.0061   -3.2620   -7.2059 O   0  0  0  0  0  0  0  0  0  0  0  0
    2.0853   -0.9803   -4.4422 O   0  0  0  0  0  0  0  0  0  0  0  0
    1.6463    0.7456   -6.8941 N   0  3  0  0  0  0  0  0  0  0  0  0
    0.9409    1.4730   -5.8193 C   0  0  0  0  0  0  0  0  0  0  0  0
    0.8116   -0.9817   -9.3354 C   0  0  0  0  0  0  0  0  0  0  0  0
  1  8  1  0  0  0  0
  1  9  1  6  0  0  0
  1  2  1  0  0  0  0
  2  3  1  0  0  0  0
  3  5  1  0  0  0  0
  3  4  1  1  0  0  0
  5  7  1  0  0  0  0
  5  6  1  1  0  0  0
  7  8  1  0  0  0  0
  9 10  1  0  0  0  0
 11 12  1  0  0  0  0
 11 18  1  0  0  0  0
 11 19  1  6  0  0  0
 12 13  1  0  0  0  0
 13 15  1  0  0  0  0
 13 14  1  6  0  0  0
 15 16  1  0  0  0  0
 15 26  1  1  0  0  0
 16 18  1  0  0  0  0
 16 17  1  6  0  0  0
 18  4  1  1  0  0  0
 20 21  1  0  0  0  0
 20 27  1  0  0  0  0
 21 31  1  6  0  0  0
 21 23  1  0  0  0  0
 21 22  1  0  0  0  0
 23 24  1  0  0  0  0
 23 29  1  6  0  0  0
 24 25  1  0  0  0  0
 24 28  1  1  0  0  0
 25 27  1  0  0  0  0
 25 26  1  6  0  0  0
 29 30  1  0  0  0  0
M  CHG  5   6   1  10   1  14   1  19   1  29   1
M  END
>  <CHROM.1>
67.00124290,80.74909282,-157.13568665,58.99629957,65.85458606,170.77287708
-153.74631971,122.56745733,168.68681497,63.58355245,-79.97418823,52.90012932
87.61954231,-1.03700888,-2.25615480,-6.50958206,-3.09517620,-0.04855415,-3.06955060

>  <Name>
1byj cryst

>  <RI>
0

>  <Rbt.Current_Directory>
/home/itssahil/PROJECTS/Mol_Feturizer/New_Systems/rnas/1byj

>  <Rbt.Executable>
rbdock ($Id: //depot/dev/client3/rdock/2013.1/src/exe/rbdock.cxx#4 $)

>  <Rbt.Library>
libRbt.so (2013.1, Build901 2013/11/27)

>  <Rbt.Parameter_File>
/export/apps/rDock/src/rDock_2013.1_src/data/scripts/dock_solv.prm

>  <Rbt.Receptor>
prm/blind_docking_20.prm

>  <SCORE>
-27.0737

>  <SCORE.INTER>
-32.4

>  <SCORE.INTER.CONST>
1

>  <SCORE.INTER.POLAR>
-4.50041

>  <SCORE.INTER.ROT>
6

>  <SCORE.INTER.SOLV>
24.9602

>  <SCORE.INTER.VDW>
-22.5187

>  <SCORE.INTER.norm>
-1.04516

>  <SCORE.INTRA>
0.482566

>  <SCORE.INTRA.DIHEDRAL>
0.26069

>  <SCORE.INTRA.DIHEDRAL.0>
18.4149

>  <SCORE.INTRA.POLAR>
-0.666759

>  <SCORE.INTRA.POLAR.0>
0

>  <SCORE.INTRA.REPUL>
-0.092687

>  <SCORE.INTRA.REPUL.0>
0.092687

>  <SCORE.INTRA.SOLV>
-0.736462

>  <SCORE.INTRA.SOLV.lig_0>
-120.37

>  <SCORE.INTRA.VDW>
3.45087

>  <SCORE.INTRA.VDW.0>
-1.75542

>  <SCORE.INTRA.norm>
0.0155666

>  <SCORE.RESTR>
4.84373

>  <SCORE.RESTR.CAVITY>
4.84373

>  <SCORE.RESTR.norm>
0.156249

>  <SCORE.SYSTEM>
0

>  <SCORE.SYSTEM.CONST>
0

>  <SCORE.SYSTEM.DIHEDRAL>
0

>  <SCORE.SYSTEM.SOLV>
0

>  <SCORE.SYSTEM.norm>
0

>  <SCORE.heavy>
31

>  <SCORE.norm>
-0.873346

>  <RMSD>
12.996

$$$$
1byj cryst
 OpenBabel11021811383D
libRbt.so/2013.1/901 2013/11/27
 31 33  0  0  0  0  0  0  0  0999 V2000
    1.4519   -1.4371   -7.2847 C   0  0  1  0  0  0  0  0  0  0  0  0
    0.9855   -2.5832   -8.0664 O   0  0  0  0  0  0  0  0  0  0  0  0
    0.2945   -3.6667   -7.3756 C   0  0  2  0  0  0  0  0  0  0  0  0
   -1.0104   -3.2338   -6.8790 O   0  0  0  0  0  0  0  0  0  0  0  0
    1.1904   -4.1899   -6.2119 C   0  0  2  0  0  0  0  0  0  0  0  0
    0.5714   -5.2931   -5.4512 N   0  3  0  0  0  0  0  0  0  0  0  0
    1.5650   -3.0225   -5.2627 C   0  0  0  0  0  0  0  0  0  0  0  0
    2.2539   -1.8853   -6.0318 C   0  0  0  0  0  0  0  0  0  0  0  0
    2.3446   -0.5464   -8.1667 C   0  0  0  0  0  0  0  0  0  0  0  0
    1.7876    0.7894   -8.4173 N   0  3  0  0  0  0  0  0  0  0  0  0
   -2.7826   -3.0548   -8.5813 C   0  0  1  0  0  0  0  0  0  0  0  0
   -4.1225   -3.6362   -9.0942 C   0  0  0  0  0  0  0  0  0  0  0  0
   -5.1825   -3.6414   -7.9601 C   0  0  1  0  0  0  0  0  0  0  0  0
   -6.4749   -4.1245   -8.4827 N   0  3  0  0  0  0  0  0  0  0  0  0
   -4.6840   -4.4984   -6.7607 C   0  0  1  0  0  0  0  0  0  0  0  0
   -3.2928   -4.0314   -6.2640 C   0  0  1  0  0  0  0  0  0  0  0  0
   -2.8684   -4.9795   -5.2960 O   0  0  0  0  0  0  0  0  0  0  0  0
   -2.2137   -3.8903   -7.3878 C   0  0  2  0  0  0  0  0  0  0  0  0
   -1.8160   -2.9583   -9.6893 N   0  3  0  0  0  0  0  0  0  0  0  0
   -6.2223   -1.4066   -5.8607 C   0  0  0  0  0  0  0  0  0  0  0  0
   -7.3151   -1.1328   -4.7984 C   0  0  2  0  0  0  0  0  0  0  0  0
   -6.7730   -0.1876   -3.8770 O   0  0  0  0  0  0  0  0  0  0  0  0
   -7.6867   -2.4788   -4.0694 C   0  0  1  0  0  0  0  0  0  0  0  0
   -6.4288   -3.2778   -3.5864 C   0  0  2  0  0  0  0  0  0  0  0  0
   -5.3050   -3.3623   -4.6503 C   0  0  1  0  0  0  0  0  0  0  0  0
   -5.6012   -4.3871   -5.6351 O   0  0  0  0  0  0  0  0  0  0  0  0
   -5.0712   -2.0652   -5.2682 O   0  0  0  0  0  0  0  0  0  0  0  0
   -6.7754   -4.5983   -3.1776 O   0  0  0  0  0  0  0  0  0  0  0  0
   -8.6049   -2.1961   -2.9225 N   0  3  0  0  0  0  0  0  0  0  0  0
   -9.0095   -3.3458   -2.0881 C   0  0  0  0  0  0  0  0  0  0  0  0
   -8.5228   -0.4573   -5.4935 C   0  0  0  0  0  0  0  0  0  0  0  0
  1  8  1  0  0  0  0
  1  9  1  6  0  0  0
  1  2  1  0  0  0  0
  2  3  1  0  0  0  0
  3  5  1  0  0  0  0
  3  4  1  1  0  0  0
  5  7  1  0  0  0  0
  5  6  1  1  0  0  0
  7  8  1  0  0  0  0
  9 10  1  0  0  0  0
 11 12  1  0  0  0  0
 11 18  1  0  0  0  0
 11 19  1  6  0  0  0
 12 13  1  0  0  0  0
 13 15  1  0  0  0  0
 13 14  1  6  0  0  0
 15 16  1  0  0  0  0
 15 26  1  1  0  0  0
 16 18  1  0  0  0  0
 16 17  1  1  0  0  0
 18  4  1  1  0  0  0
 20 21  1  0  0  0  0
 20 27  1  0  0  0  0
 21 31  1  6  0  0  0
 21 23  1  0  0  0  0
 21 22  1  0  0  0  0
 23 24  1  0  0  0  0
 23 29  1  1  0  0  0
 24 25  1  0  0  0  0
 24 28  1  6  0  0  0
 25 27  1  0  0  0  0
 25 26  1  6  0  0  0
 29 30  1  0  0  0  0
M  CHG  5   6   1  10   1  14   1  19   1  29   1
M  END
>  <CHROM.1>
115.09768151,117.98300142,-94.61273126,74.26001552,162.50699748,-159.88475280
82.33211930,-92.82197009,72.80645341,-55.75821164,-56.34754899,-161.01345421
174.91309772,-3.40956418,-2.86429570,-6.12334072,0.28429223,0.21361707,-0.87504170

>  <Name>
1byj cryst

>  <RI>
0

>  <Rbt.Current_Directory>
/home/itssahil/PROJECTS/Mol_Feturizer/New_Systems/rnas/1byj

>  <Rbt.Executable>
rbdock ($Id: //depot/dev/client3/rdock/2013.1/src/exe/rbdock.cxx#4 $)

>  <Rbt.Library>
libRbt.so (2013.1, Build901 2013/11/27)

>  <Rbt.Parameter_File>
/export/apps/rDock/src/rDock_2013.1_src/data/scripts/dock_solv.prm

>  <Rbt.Receptor>
prm/blind_docking_40.prm

>  <SCORE>
-9.49026

>  <SCORE.INTER>
-19.5051

>  <SCORE.INTER.CONST>
1

>  <SCORE.INTER.POLAR>
-3.75929

>  <SCORE.INTER.ROT>
6

>  <SCORE.INTER.SOLV>
23.8031

>  <SCORE.INTER.VDW>
-16.0068

>  <SCORE.INTER.norm>
-0.629196

>  <SCORE.INTRA>
3.32623

>  <SCORE.INTRA.DIHEDRAL>
8.6899

>  <SCORE.INTRA.DIHEDRAL.0>
18.4149

>  <SCORE.INTRA.POLAR>
-0.711382

>  <SCORE.INTRA.POLAR.0>
0

>  <SCORE.INTRA.REPUL>
-0.092687

>  <SCORE.INTRA.REPUL.0>
0.092687

>  <SCORE.INTRA.SOLV>
-1.58355

>  <SCORE.INTRA.SOLV.lig_0>
-120.37

>  <SCORE.INTRA.VDW>
2.65519

>  <SCORE.INTRA.VDW.0>
-1.75542

>  <SCORE.INTRA.norm>
0.107298

>  <SCORE.RESTR>
6.68859

>  <SCORE.RESTR.CAVITY>
6.68859

>  <SCORE.RESTR.norm>
0.215761

>  <SCORE.SYSTEM>
0

>  <SCORE.SYSTEM.CONST>
0

>  <SCORE.SYSTEM.DIHEDRAL>
0

>  <SCORE.SYSTEM.SOLV>
0

>  <SCORE.SYSTEM.norm>
0

>  <SCORE.heavy>
31

>  <SCORE.norm>
-0.306137

>  <RMSD>
12.998

$$$$
1byj cryst
 OpenBabel11021811383D
libRbt.so/2013.1/901 2013/11/27
 31 33  0  0  0  0  0  0  0  0999 V2000
    4.2236   -4.8020  -10.0511 C   0  0  1  0  0  0  0  0  0  0  0  0
    4.0749   -4.1736   -8.7377 O   0  0  0  0  0  0  0  0  0  0  0  0
    3.1742   -3.0335   -8.6053 C   0  0  2  0  0  0  0  0  0  0  0  0
    1.7796   -3.4346   -8.7811 O   0  0  0  0  0  0  0  0  0  0  0  0
    3.5755   -1.9372   -9.6385 C   0  0  2  0  0  0  0  0  0  0  0  0
    2.7158   -0.7387   -9.5794 N   0  3  0  0  0  0  0  0  0  0  0  0
    3.5770   -2.5310  -11.0708 C   0  0  0  0  0  0  0  0  0  0  0  0
    4.5049   -3.7518  -11.1610 C   0  0  0  0  0  0  0  0  0  0  0  0
    5.3817   -5.8142  -10.0051 C   0  0  0  0  0  0  0  0  0  0  0  0
    5.8424   -6.2499  -11.3299 N   0  3  0  0  0  0  0  0  0  0  0  0
    1.2478   -4.9740   -6.9323 C   0  0  1  0  0  0  0  0  0  0  0  0
    0.3060   -5.2541   -5.7361 C   0  0  0  0  0  0  0  0  0  0  0  0
   -1.1749   -5.2671   -6.2015 C   0  0  1  0  0  0  0  0  0  0  0  0
   -2.0546   -5.6118   -5.0683 N   0  3  0  0  0  0  0  0  0  0  0  0
   -1.5528   -3.8965   -6.8343 C   0  0  1  0  0  0  0  0  0  0  0  0
   -0.5805   -3.5067   -7.9756 C   0  0  1  0  0  0  0  0  0  0  0  0
   -0.9133   -2.1800   -8.3567 O   0  0  0  0  0  0  0  0  0  0  0  0
    0.9352   -3.5937   -7.5981 C   0  0  2  0  0  0  0  0  0  0  0  0
    2.6539   -5.0657   -6.5012 N   0  3  0  0  0  0  0  0  0  0  0  0
   -4.4393   -2.0359   -5.6027 C   0  0  0  0  0  0  0  0  0  0  0  0
   -5.8703   -1.9827   -6.1917 C   0  0  2  0  0  0  0  0  0  0  0  0
   -6.7551   -2.4651   -5.1814 O   0  0  0  0  0  0  0  0  0  0  0  0
   -5.9413   -2.8871   -7.4795 C   0  0  1  0  0  0  0  0  0  0  0  0
   -5.3307   -4.3126   -7.2576 C   0  0  2  0  0  0  0  0  0  0  0  0
   -3.9747   -4.2936   -6.5074 C   0  0  1  0  0  0  0  0  0  0  0  0
   -2.8900   -3.9486   -7.4086 O   0  0  0  0  0  0  0  0  0  0  0  0
   -4.0272   -3.4065   -5.3545 O   0  0  0  0  0  0  0  0  0  0  0  0
   -5.1642   -5.0062   -8.4914 O   0  0  0  0  0  0  0  0  0  0  0  0
   -7.3580   -2.9871   -7.9500 N   0  3  0  0  0  0  0  0  0  0  0  0
   -7.6025   -3.7655   -9.1813 C   0  0  0  0  0  0  0  0  0  0  0  0
   -6.2407   -0.5031   -6.4595 C   0  0  0  0  0  0  0  0  0  0  0  0
  1  8  1  0  0  0  0
  1  9  1  1  0  0  0
  1  2  1  0  0  0  0
  2  3  1  0  0  0  0
  3  5  1  0  0  0  0
  3  4  1  6  0  0  0
  5  7  1  0  0  0  0
  5  6  1  6  0  0  0
  7  8  1  0  0  0  0
  9 10  1  0  0  0  0
 11 12  1  0  0  0  0
 11 18  1  0  0  0  0
 11 19  1  1  0  0  0
 12 13  1  0  0  0  0
 13 15  1  0  0  0  0
 13 14  1  1  0  0  0
 15 16  1  0  0  0  0
 15 26  1  6  0  0  0
 16 18  1  0  0  0  0
 16 17  1  1  0  0  0
 18  4  1  6  0  0  0
 20 21  1  0  0  0  0
 20 27  1  0  0  0  0
 21 31  1  6  0  0  0
 21 23  1  0  0  0  0
 21 22  1  0  0  0  0
 23 24  1  0  0  0  0
 23 29  1  1  0  0  0
 24 25  1  0  0  0  0
 24 28  1  6  0  0  0
 25 27  1  0  0  0  0
 25 26  1  6  0  0  0
 29 30  1  0  0  0  0
M  CHG  5   6   1  10   1  14   1  19   1  29   1
M  END
>  <CHROM.1>
-165.28836346,101.96433573,-79.07550209,-125.46028759,-47.01557605,169.36457115
101.00589526,58.37021394,58.72617431,56.95590242,-60.93363924,65.40603830
-179.87211116,-0.91327531,-3.65878780,-7.84506750,0.12946694,0.27662556,-0.79987730

>  <Name>
1byj cryst

>  <RI>
0

>  <Rbt.Current_Directory>
/home/itssahil/PROJECTS/Mol_Feturizer/New_Systems/rnas/1byj

>  <Rbt.Executable>
rbdock ($Id: //depot/dev/client3/rdock/2013.1/src/exe/rbdock.cxx#4 $)

>  <Rbt.Library>
libRbt.so (2013.1, Build901 2013/11/27)

>  <Rbt.Parameter_File>
/export/apps/rDock/src/rDock_2013.1_src/data/scripts/dock_solv.prm

>  <Rbt.Receptor>
prm/blind_docking_40.prm

>  <SCORE>
-11.3911

>  <SCORE.INTER>
-16.3215

>  <SCORE.INTER.CONST>
1

>  <SCORE.INTER.POLAR>
-4.42286

>  <SCORE.INTER.ROT>
6

>  <SCORE.INTER.SOLV>
27.1576

>  <SCORE.INTER.VDW>
-12.7906

>  <SCORE.INTER.norm>
-0.526499

>  <SCORE.INTRA>
-4.23798

>  <SCORE.INTRA.DIHEDRAL>
-2.80587

>  <SCORE.INTRA.DIHEDRAL.0>
18.4149

>  <SCORE.INTRA.POLAR>
-1.97123

>  <SCORE.INTRA.POLAR.0>
0

>  <SCORE.INTRA.REPUL>
-0.092687

>  <SCORE.INTRA.REPUL.0>
0.092687

>  <SCORE.INTRA.SOLV>
1.28888

>  <SCORE.INTRA.SOLV.lig_0>
-120.37

>  <SCORE.INTRA.VDW>
3.68613

>  <SCORE.INTRA.VDW.0>
-1.75542

>  <SCORE.INTRA.norm>
-0.136709

>  <SCORE.RESTR>
9.1683

>  <SCORE.RESTR.CAVITY>
9.1683

>  <SCORE.RESTR.norm>
0.295752

>  <SCORE.SYSTEM>
0

>  <SCORE.SYSTEM.CONST>
0

>  <SCORE.SYSTEM.DIHEDRAL>
0

>  <SCORE.SYSTEM.SOLV>
0

>  <SCORE.SYSTEM.norm>
0

>  <SCORE.heavy>
31

>  <SCORE.norm>
-0.367456

>  <RMSD>
13.007

$$$$
1byj cryst
 OpenBabel11021811383D
libRbt.so/2013.1/901 2013/11/27
 31 33  0  0  0  0  0  0  0  0999 V2000
    0.9513   -1.1990   -7.6013 C   0  0  1  0  0  0  0  0  0  0  0  0
    0.8281   -2.6500   -7.7483 O   0  0  0  0  0  0  0  0  0  0  0  0
    0.2938   -3.4235   -6.6326 C   0  0  2  0  0  0  0  0  0  0  0  0
   -1.1228   -3.1352   -6.4160 O   0  0  0  0  0  0  0  0  0  0  0  0
    1.1282   -3.1226   -5.3506 C   0  0  2  0  0  0  0  0  0  0  0  0
    0.6592   -3.8637   -4.1632 N   0  3  0  0  0  0  0  0  0  0  0  0
    1.1373   -1.5982   -5.0673 C   0  0  0  0  0  0  0  0  0  0  0  0
    1.6683   -0.8153   -6.2775 C   0  0  0  0  0  0  0  0  0  0  0  0
    1.7444   -0.6305   -8.7912 C   0  0  0  0  0  0  0  0  0  0  0  0
    1.5251    0.8037   -9.0199 N   0  3  0  0  0  0  0  0  0  0  0  0
   -2.5022   -3.0457   -8.4556 C   0  0  1  0  0  0  0  0  0  0  0  0
   -3.6395   -3.7239   -9.2576 C   0  0  0  0  0  0  0  0  0  0  0  0
   -4.9103   -3.8730   -8.3787 C   0  0  1  0  0  0  0  0  0  0  0  0
   -6.0089   -4.4488   -9.1777 N   0  3  0  0  0  0  0  0  0  0  0  0
   -4.5966   -4.7313   -7.1191 C   0  0  1  0  0  0  0  0  0  0  0  0
   -3.3948   -4.1616   -6.3244 C   0  0  1  0  0  0  0  0  0  0  0  0
   -3.0952   -5.1074   -5.3087 O   0  0  0  0  0  0  0  0  0  0  0  0
   -2.1208   -3.8759   -7.1862 C   0  0  2  0  0  0  0  0  0  0  0  0
   -1.3366   -2.8153   -9.3271 N   0  3  0  0  0  0  0  0  0  0  0  0
   -8.1986   -4.2393   -4.4820 C   0  0  0  0  0  0  0  0  0  0  0  0
   -7.9763   -2.8410   -3.8552 C   0  0  2  0  0  0  0  0  0  0  0  0
   -9.0437   -2.0079   -4.3054 O   0  0  0  0  0  0  0  0  0  0  0  0
   -6.5837   -2.2721   -4.3228 C   0  0  1  0  0  0  0  0  0  0  0  0
   -6.3677   -2.3854   -5.8702 C   0  0  2  0  0  0  0  0  0  0  0  0
   -6.7752   -3.7630   -6.4514 C   0  0  1  0  0  0  0  0  0  0  0  0
   -5.7382   -4.7512   -6.2153 O   0  0  0  0  0  0  0  0  0  0  0  0
   -8.0641   -4.1911   -5.9275 O   0  0  0  0  0  0  0  0  0  0  0  0
   -5.0146   -2.1170   -6.2286 O   0  0  0  0  0  0  0  0  0  0  0  0
   -6.4401   -0.8527   -3.8722 N   0  3  0  0  0  0  0  0  0  0  0  0
   -7.2612    0.1584   -4.5687 C   0  0  0  0  0  0  0  0  0  0  0  0
   -8.1046   -2.9622   -2.3167 C   0  0  0  0  0  0  0  0  0  0  0  0
  1  8  1  0  0  0  0
  1  9  1  6  0  0  0
  1  2  1  0  0  0  0
  2  3  1  0  0  0  0
  3  5  1  0  0  0  0
  3  4  1  1  0  0  0
  5  7  1  0  0  0  0
  5  6  1  1  0  0  0
  7  8  1  0  0  0  0
  9 10  1  0  0  0  0
 11 12  1  0  0  0  0
 11 18  1  0  0  0  0
 11 19  1  6  0  0  0
 12 13  1  0  0  0  0
 13 15  1  0  0  0  0
 13 14  1  6  0  0  0
 15 16  1  0  0  0  0
 15 26  1  1  0  0  0
 16 18  1  0  0  0  0
 16 17  1  1  0  0  0
 18  4  1  1  0  0  0
 20 21  1  0  0  0  0
 20 27  1  0  0  0  0
 21 31  1  1  0  0  0
 21 23  1  0  0  0  0
 21 22  1  0  0  0  0
 23 24  1  0  0  0  0
 23 29  1  6  0  0  0
 24 25  1  0  0  0  0
 24 28  1  1  0  0  0
 25 27  1  0  0  0  0
 25 26  1  1  0  0  0
 29 30  1  0  0  0  0
M  CHG  5   6   1  10   1  14   1  19   1  29   1
M  END
>  <CHROM.1>
159.02643763,85.77404015,-94.40723213,-46.65812302,61.50947116,84.33641180
-28.91149162,-14.52497443,64.23252570,58.45262580,48.97419097,-62.98206709
-79.94221925,-3.50104535,-2.81429669,-6.32655307,-0.19217919,0.24164779,1.10350914

>  <Name>
1byj cryst

>  <RI>
0

>  <Rbt.Current_Directory>
/home/itssahil/PROJECTS/Mol_Feturizer/New_Systems/rnas/1byj

>  <Rbt.Executable>
rbdock ($Id: //depot/dev/client3/rdock/2013.1/src/exe/rbdock.cxx#4 $)

>  <Rbt.Library>
libRbt.so (2013.1, Build901 2013/11/27)

>  <Rbt.Parameter_File>
/export/apps/rDock/src/rDock_2013.1_src/data/scripts/dock_solv.prm

>  <Rbt.Receptor>
prm/blind_docking_40.prm

>  <SCORE>
-8.81443

>  <SCORE.INTER>
-17.8243

>  <SCORE.INTER.CONST>
1

>  <SCORE.INTER.POLAR>
-3.19892

>  <SCORE.INTER.ROT>
6

>  <SCORE.INTER.SOLV>
26.7534

>  <SCORE.INTER.VDW>
-17.7376

>  <SCORE.INTER.norm>
-0.574976

>  <SCORE.INTRA>
4.04904

>  <SCORE.INTRA.DIHEDRAL>
2.66361

>  <SCORE.INTRA.DIHEDRAL.0>
18.4149

>  <SCORE.INTRA.POLAR>
-0.843734

>  <SCORE.INTRA.POLAR.0>
0

>  <SCORE.INTRA.REPUL>
-0.092687

>  <SCORE.INTRA.REPUL.0>
0.092687

>  <SCORE.INTRA.SOLV>
1.29682

>  <SCORE.INTRA.SOLV.lig_0>
-120.37

>  <SCORE.INTRA.VDW>
5.40095

>  <SCORE.INTRA.VDW.0>
-1.75542

>  <SCORE.INTRA.norm>
0.130614

>  <SCORE.RESTR>
4.96079

>  <SCORE.RESTR.CAVITY>
4.96079

>  <SCORE.RESTR.norm>
0.160025

>  <SCORE.SYSTEM>
0

>  <SCORE.SYSTEM.CONST>
0

>  <SCORE.SYSTEM.DIHEDRAL>
0

>  <SCORE.SYSTEM.SOLV>
0

>  <SCORE.SYSTEM.norm>
0

>  <SCORE.heavy>
31

>  <SCORE.norm>
-0.284337

>  <RMSD>
13.020

$$$$
1byj cryst
 OpenBabel11021811383D
libRbt.so/2013.1/901 2013/11/27
 31 33  0  0  0  0  0  0  0  0999 V2000
   -4.0425   -1.3001   -5.8969 C   0  0  1  0  0  0  0  0  0  0  0  0
   -4.0920   -2.7163   -5.5309 O   0  0  0  0  0  0  0  0  0  0  0  0
   -4.3863   -3.6977   -6.5696 C   0  0  2  0  0  0  0  0  0  0  0  0
   -3.2945   -3.7913   -7.5371 O   0  0  0  0  0  0  0  0  0  0  0  0
   -5.7253   -3.3184   -7.2721 C   0  0  2  0  0  0  0  0  0  0  0  0
   -6.1074   -4.2589   -8.3438 N   0  3  0  0  0  0  0  0  0  0  0  0
   -5.6448   -1.8724   -7.8257 C   0  0  0  0  0  0  0  0  0  0  0  0
   -5.2946   -0.8740   -6.7121 C   0  0  0  0  0  0  0  0  0  0  0  0
   -3.9529   -0.4452   -4.6205 C   0  0  0  0  0  0  0  0  0  0  0  0
   -2.8986   -0.8735   -3.6919 N   0  3  0  0  0  0  0  0  0  0  0  0
   -2.0151   -5.0581   -5.8552 C   0  0  1  0  0  0  0  0  0  0  0  0
   -0.6220   -5.2917   -5.2217 C   0  0  0  0  0  0  0  0  0  0  0  0
   -0.0337   -3.9555   -4.6943 C   0  0  1  0  0  0  0  0  0  0  0  0
    1.2572   -4.2046   -4.0246 N   0  3  0  0  0  0  0  0  0  0  0  0
    0.1036   -2.9309   -5.8575 C   0  0  1  0  0  0  0  0  0  0  0  0
   -1.2396   -2.7293   -6.6027 C   0  0  1  0  0  0  0  0  0  0  0  0
   -0.9583   -1.9181   -7.7336 O   0  0  0  0  0  0  0  0  0  0  0  0
   -1.9405   -4.0538   -7.0518 C   0  0  2  0  0  0  0  0  0  0  0  0
   -2.6091   -6.3447   -6.2591 N   0  3  0  0  0  0  0  0  0  0  0  0
    2.3582   -2.9316   -7.4009 C   0  0  0  0  0  0  0  0  0  0  0  0
    2.2138   -2.0774   -8.6843 C   0  0  2  0  0  0  0  0  0  0  0  0
    3.5030   -1.5385   -8.9736 O   0  0  0  0  0  0  0  0  0  0  0  0
    1.1672   -0.9271   -8.4336 C   0  0  1  0  0  0  0  0  0  0  0  0
    1.4278   -0.1458   -7.1011 C   0  0  2  0  0  0  0  0  0  0  0  0
    1.7344   -1.0684   -5.8942 C   0  0  1  0  0  0  0  0  0  0  0  0
    0.5116   -1.6291   -5.3482 O   0  0  0  0  0  0  0  0  0  0  0  0
    2.6929   -2.1023   -6.2564 O   0  0  0  0  0  0  0  0  0  0  0  0
    0.3284    0.6977   -6.7678 O   0  0  0  0  0  0  0  0  0  0  0  0
    1.1550    0.0090   -9.6007 N   0  3  0  0  0  0  0  0  0  0  0  0
    2.0733    1.1645   -9.5432 C   0  0  0  0  0  0  0  0  0  0  0  0
    1.8308   -3.0104   -9.8595 C   0  0  0  0  0  0  0  0  0  0  0  0
  1  8  1  0  0  0  0
  1  9  1  1  0  0  0
  1  2  1  0  0  0  0
  2  3  1  0  0  0  0
  3  5  1  0  0  0  0
  3  4  1  6  0  0  0
  5  7  1  0  0  0  0
  5  6  1  6  0  0  0
  7  8  1  0  0  0  0
  9 10  1  0  0  0  0
 11 12  1  0  0  0  0
 11 18  1  0  0  0  0
 11 19  1  6  0  0  0
 12 13  1  0  0  0  0
 13 15  1  0  0  0  0
 13 14  1  6  0  0  0
 15 16  1  0  0  0  0
 15 26  1  1  0  0  0
 16 18  1  0  0  0  0
 16 17  1  6  0  0  0
 18  4  1  1  0  0  0
 20 21  1  0  0  0  0
 20 27  1  0  0  0  0
 21 31  1  6  0  0  0
 21 23  1  0  0  0  0
 21 22  1  0  0  0  0
 23 24  1  0  0  0  0
 23 29  1  6  0  0  0
 24 25  1  0  0  0  0
 24 28  1  1  0  0  0
 25 27  1  0  0  0  0
 25 26  1  6  0  0  0
 29 30  1  0  0  0  0
M  CHG  5   6   1  10   1  14   1  19   1  29   1
M  END
>  <CHROM.1>
50.37912447,54.09493877,37.35705822,65.54375653,78.12550040,72.41809930,6.42737005
122.68353396,166.77037615,-109.71389395,30.32828399,-171.76852204,93.03389988
-1.03412489,-2.35622775,-6.81404196,2.79777188,-0.02703456,2.58846737

>  <Name>
1byj cryst

>  <RI>
0

>  <Rbt.Current_Directory>
/home/itssahil/PROJECTS/Mol_Feturizer/New_Systems/rnas/1byj

>  <Rbt.Executable>
rbdock ($Id: //depot/dev/client3/rdock/2013.1/src/exe/rbdock.cxx#4 $)

>  <Rbt.Library>
libRbt.so (2013.1, Build901 2013/11/27)

>  <Rbt.Parameter_File>
/export/apps/rDock/src/rDock_2013.1_src/data/scripts/dock_solv.prm

>  <Rbt.Receptor>
prm/blind_docking_20.prm

>  <SCORE>
-4.04212

>  <SCORE.INTER>
-18.5728

>  <SCORE.INTER.CONST>
1

>  <SCORE.INTER.POLAR>
-5.77078

>  <SCORE.INTER.ROT>
6

>  <SCORE.INTER.SOLV>
38.0229

>  <SCORE.INTER.VDW>
-13.4203

>  <SCORE.INTER.norm>
-0.599124

>  <SCORE.INTRA>
11.7625

>  <SCORE.INTRA.DIHEDRAL>
10.1794

>  <SCORE.INTRA.DIHEDRAL.0>
18.4149

>  <SCORE.INTRA.POLAR>
-0.0889086

>  <SCORE.INTRA.POLAR.0>
0

>  <SCORE.INTRA.REPUL>
-0.092687

>  <SCORE.INTRA.REPUL.0>
0.092687

>  <SCORE.INTRA.SOLV>
1.18108

>  <SCORE.INTRA.SOLV.lig_0>
-120.37

>  <SCORE.INTRA.VDW>
6.84806

>  <SCORE.INTRA.VDW.0>
-1.75542

>  <SCORE.INTRA.norm>
0.379437

>  <SCORE.RESTR>
2.76818

>  <SCORE.RESTR.CAVITY>
2.76818

>  <SCORE.RESTR.norm>
0.089296

>  <SCORE.SYSTEM>
0

>  <SCORE.SYSTEM.CONST>
0

>  <SCORE.SYSTEM.DIHEDRAL>
0

>  <SCORE.SYSTEM.SOLV>
0

>  <SCORE.SYSTEM.norm>
0

>  <SCORE.heavy>
31

>  <SCORE.norm>
-0.130391

>  <RMSD>
13.056

$$$$
1byj cryst
 OpenBabel11021811383D
libRbt.so/2013.1/901 2013/11/27
 31 33  0  0  0  0  0  0  0  0999 V2000
   -6.2164   -3.1600   -5.7610 C   0  0  1  0  0  0  0  0  0  0  0  0
   -5.1405   -2.5587   -6.5503 O   0  0  0  0  0  0  0  0  0  0  0  0
   -3.8713   -2.2644   -5.8936 C   0  0  2  0  0  0  0  0  0  0  0  0
   -3.1687   -3.4908   -5.5210 O   0  0  0  0  0  0  0  0  0  0  0  0
   -4.1329   -1.3682   -4.6450 C   0  0  2  0  0  0  0  0  0  0  0  0
   -2.9007   -1.0167   -3.9121 N   0  3  0  0  0  0  0  0  0  0  0  0
   -5.1470   -2.0591   -3.6972 C   0  0  0  0  0  0  0  0  0  0  0  0
   -6.4542   -2.3887   -4.4334 C   0  0  0  0  0  0  0  0  0  0  0  0
   -7.5154   -3.1624   -6.5861 C   0  0  0  0  0  0  0  0  0  0  0  0
   -7.5758   -2.1028   -7.6014 N   0  3  0  0  0  0  0  0  0  0  0  0
   -1.8929   -5.4221   -6.3654 C   0  0  1  0  0  0  0  0  0  0  0  0
   -0.5768   -5.8881   -7.0343 C   0  0  0  0  0  0  0  0  0  0  0  0
    0.6498   -5.4099   -6.2117 C   0  0  1  0  0  0  0  0  0  0  0  0
    1.8925   -5.9263   -6.8168 N   0  3  0  0  0  0  0  0  0  0  0  0
    0.6563   -3.8573   -6.1071 C   0  0  1  0  0  0  0  0  0  0  0  0
   -0.6800   -3.3175   -5.5388 C   0  0  1  0  0  0  0  0  0  0  0  0
   -0.6255   -1.9029   -5.6485 O   0  0  0  0  0  0  0  0  0  0  0  0
   -1.9597   -3.8635   -6.2540 C   0  0  2  0  0  0  0  0  0  0  0  0
   -3.0514   -5.9670   -7.0950 N   0  3  0  0  0  0  0  0  0  0  0  0
    2.0467   -2.7324   -8.1723 C   0  0  0  0  0  0  0  0  0  0  0  0
    1.8637   -1.1977   -8.2665 C   0  0  2  0  0  0  0  0  0  0  0  0
    3.0847   -0.6628   -8.7755 O   0  0  0  0  0  0  0  0  0  0  0  0
    1.5496   -0.6184   -6.8357 C   0  0  1  0  0  0  0  0  0  0  0  0
    2.5390   -1.1370   -5.7375 C   0  0  2  0  0  0  0  0  0  0  0  0
    2.8048   -2.6618   -5.8162 C   0  0  1  0  0  0  0  0  0  0  0  0
    1.7152   -3.4084   -5.2138 O   0  0  0  0  0  0  0  0  0  0  0  0
    3.0571   -3.0786   -7.1879 O   0  0  0  0  0  0  0  0  0  0  0  0
    2.0777   -0.8175   -4.4274 O   0  0  0  0  0  0  0  0  0  0  0  0
    1.5511    0.8770   -6.8840 N   0  3  0  0  0  0  0  0  0  0  0  0
    0.8294    1.5835   -5.8061 C   0  0  0  0  0  0  0  0  0  0  0  0
    0.7586   -0.8940   -9.3079 C   0  0  0  0  0  0  0  0  0  0  0  0
  1  8  1  0  0  0  0
  1  9  1  6  0  0  0
  1  2  1  0  0  0  0
  2  3  1  0  0  0  0
  3  5  1  0  0  0  0
  3  4  1  1  0  0  0
  5  7  1  0  0  0  0
  5  6  1  1  0  0  0
  7  8  1  0  0  0  0
  9 10  1  0  0  0  0
 11 12  1  0  0  0  0
 11 18  1  0  0  0  0
 11 19  1  6  0  0  0
 12 13  1  0  0  0  0
 13 15  1  0  0  0  0
 13 14  1  6  0  0  0
 15 16  1  0  0  0  0
 15 26  1  1  0  0  0
 16 18  1  0  0  0  0
 16 17  1  6  0  0  0
 18  4  1  1  0  0  0
 20 21  1  0  0  0  0
 20 27  1  0  0  0  0
 21 31  1  6  0  0  0
 21 23  1  0  0  0  0
 21 22  1  0  0  0  0
 23 24  1  0  0  0  0
 23 29  1  6  0  0  0
 24 25  1  0  0  0  0
 24 28  1  1  0  0  0
 25 27  1  0  0  0  0
 25 26  1  6  0  0  0
 29 30  1  0  0  0  0
M  CHG  5   6   1  10   1  14   1  19   1  29   1
M  END
>  <CHROM.1>
-26.34381568,109.06523223,-145.39400530,35.66250468,-58.94035955,-44.54224586
135.79175589,113.25543587,-59.29580297,-169.27118527,-79.96664720,-78.14319217
93.40308684,-1.07579126,-2.54960754,-6.27229311,3.03794655,-0.15139262,-3.00941154

>  <Name>
1byj cryst

>  <RI>
0

>  <Rbt.Current_Directory>
/home/itssahil/PROJECTS/Mol_Feturizer/New_Systems/rnas/1byj

>  <Rbt.Executable>
rbdock ($Id: //depot/dev/client3/rdock/2013.1/src/exe/rbdock.cxx#4 $)

>  <Rbt.Library>
libRbt.so (2013.1, Build901 2013/11/27)

>  <Rbt.Parameter_File>
/export/apps/rDock/src/rDock_2013.1_src/data/scripts/dock_solv.prm

>  <Rbt.Receptor>
prm/blind_docking_100.prm

>  <SCORE>
-17.9413

>  <SCORE.INTER>
-28.5418

>  <SCORE.INTER.CONST>
1

>  <SCORE.INTER.POLAR>
-3.94769

>  <SCORE.INTER.ROT>
6

>  <SCORE.INTER.SOLV>
22.8132

>  <SCORE.INTER.VDW>
-21.0733

>  <SCORE.INTER.norm>
-0.920704

>  <SCORE.INTRA>
2.7429

>  <SCORE.INTRA.DIHEDRAL>
15.1744

>  <SCORE.INTRA.DIHEDRAL.0>
18.4149

>  <SCORE.INTRA.POLAR>
-2.21913

>  <SCORE.INTRA.POLAR.0>
0

>  <SCORE.INTRA.REPUL>
-0.092687

>  <SCORE.INTRA.REPUL.0>
0.092687

>  <SCORE.INTRA.SOLV>
3.89301

>  <SCORE.INTRA.SOLV.lig_0>
-120.37

>  <SCORE.INTRA.VDW>
1.21766

>  <SCORE.INTRA.VDW.0>
-1.75542

>  <SCORE.INTRA.norm>
0.0884807

>  <SCORE.RESTR>
7.85766

>  <SCORE.RESTR.CAVITY>
7.85766

>  <SCORE.RESTR.norm>
0.253473

>  <SCORE.SYSTEM>
0

>  <SCORE.SYSTEM.CONST>
0

>  <SCORE.SYSTEM.DIHEDRAL>
0

>  <SCORE.SYSTEM.SOLV>
0

>  <SCORE.SYSTEM.norm>
0

>  <SCORE.heavy>
31

>  <SCORE.norm>
-0.578751

>  <RMSD>
13.098

$$$$
1byj cryst
 OpenBabel11021811383D
libRbt.so/2013.1/901 2013/11/27
 31 33  0  0  0  0  0  0  0  0999 V2000
   -5.7913   -2.6778   -4.5458 C   0  0  1  0  0  0  0  0  0  0  0  0
   -5.4398   -3.9683   -5.1399 O   0  0  0  0  0  0  0  0  0  0  0  0
   -4.3409   -4.0214   -6.0981 C   0  0  2  0  0  0  0  0  0  0  0  0
   -3.0575   -3.7565   -5.4504 O   0  0  0  0  0  0  0  0  0  0  0  0
   -4.6089   -3.0016   -7.2465 C   0  0  2  0  0  0  0  0  0  0  0  0
   -3.5448   -2.9836   -8.2694 N   0  3  0  0  0  0  0  0  0  0  0  0
   -4.8181   -1.5819   -6.6593 C   0  0  0  0  0  0  0  0  0  0  0  0
   -5.9553   -1.5740   -5.6268 C   0  0  0  0  0  0  0  0  0  0  0  0
   -7.1072   -2.8184   -3.7604 C   0  0  0  0  0  0  0  0  0  0  0  0
   -6.9836   -3.6149   -2.5326 N   0  3  0  0  0  0  0  0  0  0  0  0
   -1.5437   -5.5118   -6.2856 C   0  0  1  0  0  0  0  0  0  0  0  0
   -0.1910   -5.8066   -6.9783 C   0  0  0  0  0  0  0  0  0  0  0  0
    0.9752   -5.1416   -6.1988 C   0  0  1  0  0  0  0  0  0  0  0  0
    2.2637   -5.4949   -6.8248 N   0  3  0  0  0  0  0  0  0  0  0  0
    0.7667   -3.6011   -6.1283 C   0  0  1  0  0  0  0  0  0  0  0  0
   -0.6186   -3.2386   -5.5372 C   0  0  1  0  0  0  0  0  0  0  0  0
   -0.7651   -1.8334   -5.6791 O   0  0  0  0  0  0  0  0  0  0  0  0
   -1.8254   -3.9755   -6.2066 C   0  0  2  0  0  0  0  0  0  0  0  0
   -2.6310   -6.2311   -6.9726 N   0  3  0  0  0  0  0  0  0  0  0  0
    2.0854   -2.4868   -8.2684 C   0  0  0  0  0  0  0  0  0  0  0  0
    1.5489   -1.0536   -8.5044 C   0  0  2  0  0  0  0  0  0  0  0  0
    2.6327   -0.2827   -9.0212 O   0  0  0  0  0  0  0  0  0  0  0  0
    1.0335   -0.4556   -7.1412 C   0  0  1  0  0  0  0  0  0  0  0  0
    2.0602   -0.6324   -5.9713 C   0  0  2  0  0  0  0  0  0  0  0  0
    2.6835   -2.0498   -5.9057 C   0  0  1  0  0  0  0  0  0  0  0  0
    1.7725   -2.9866   -5.2731 O   0  0  0  0  0  0  0  0  0  0  0  0
    3.0973   -2.5008   -7.2264 O   0  0  0  0  0  0  0  0  0  0  0  0
    1.4698   -0.3307   -4.7096 O   0  0  0  0  0  0  0  0  0  0  0  0
    0.6831    0.9876   -7.3223 N   0  3  0  0  0  0  0  0  0  0  0  0
    0.1493    1.7011   -6.1442 C   0  0  0  0  0  0  0  0  0  0  0  0
    0.4581   -1.1079   -9.6023 C   0  0  0  0  0  0  0  0  0  0  0  0
  1  8  1  0  0  0  0
  1  9  1  6  0  0  0
  1  2  1  0  0  0  0
  2  3  1  0  0  0  0
  3  5  1  0  0  0  0
  3  4  1  1  0  0  0
  5  7  1  0  0  0  0
  5  6  1  6  0  0  0
  7  8  1  0  0  0  0
  9 10  1  0  0  0  0
 11 12  1  0  0  0  0
 11 18  1  0  0  0  0
 11 19  1  6  0  0  0
 12 13  1  0  0  0  0
 13 15  1  0  0  0  0
 13 14  1  6  0  0  0
 15 16  1  0  0  0  0
 15 26  1  1  0  0  0
 16 18  1  0  0  0  0
 16 17  1  6  0  0  0
 18  4  1  1  0  0  0
 20 21  1  0  0  0  0
 20 27  1  0  0  0  0
 21 31  1  6  0  0  0
 21 23  1  0  0  0  0
 21 22  1  0  0  0  0
 23 24  1  0  0  0  0
 23 29  1  6  0  0  0
 24 25  1  0  0  0  0
 24 28  1  1  0  0  0
 25 27  1  0  0  0  0
 25 26  1  6  0  0  0
 29 30  1  0  0  0  0
M  CHG  5   6   1  10   1  14   1  19   1  29   1
M  END
>  <CHROM.1>
70.12828282,170.40274213,-76.05902079,65.14179180,-69.01573278,-70.97134603
23.26168069,116.78310713,74.12984868,-74.43391381,-60.32358283,179.90198423
84.71270724,-1.13535880,-2.64021946,-6.35883096,2.90082506,-0.27536670,3.10922256

>  <Name>
1byj cryst

>  <RI>
0

>  <Rbt.Current_Directory>
/home/itssahil/PROJECTS/Mol_Feturizer/New_Systems/rnas/1byj

>  <Rbt.Executable>
rbdock ($Id: //depot/dev/client3/rdock/2013.1/src/exe/rbdock.cxx#4 $)

>  <Rbt.Library>
libRbt.so (2013.1, Build901 2013/11/27)

>  <Rbt.Parameter_File>
/export/apps/rDock/src/rDock_2013.1_src/data/scripts/dock_solv.prm

>  <Rbt.Receptor>
prm/blind_docking_40.prm

>  <SCORE>
-11.6863

>  <SCORE.INTER>
-24.2332

>  <SCORE.INTER.CONST>
1

>  <SCORE.INTER.POLAR>
-4.59561

>  <SCORE.INTER.ROT>
6

>  <SCORE.INTER.SOLV>
29.6957

>  <SCORE.INTER.VDW>
-18.3353

>  <SCORE.INTER.norm>
-0.781715

>  <SCORE.INTRA>
5.30244

>  <SCORE.INTRA.DIHEDRAL>
-1.55647

>  <SCORE.INTRA.DIHEDRAL.0>
18.4149

>  <SCORE.INTRA.POLAR>
-0.359467

>  <SCORE.INTRA.POLAR.0>
0

>  <SCORE.INTRA.REPUL>
0.00153204

>  <SCORE.INTRA.REPUL.0>
0.092687

>  <SCORE.INTRA.SOLV>
5.70444

>  <SCORE.INTRA.SOLV.lig_0>
-120.37

>  <SCORE.INTRA.VDW>
4.44298

>  <SCORE.INTRA.VDW.0>
-1.75542

>  <SCORE.INTRA.norm>
0.171046

>  <SCORE.RESTR>
7.2444

>  <SCORE.RESTR.CAVITY>
7.2444

>  <SCORE.RESTR.norm>
0.23369

>  <SCORE.SYSTEM>
0

>  <SCORE.SYSTEM.CONST>
0

>  <SCORE.SYSTEM.DIHEDRAL>
0

>  <SCORE.SYSTEM.SOLV>
0

>  <SCORE.SYSTEM.norm>
0

>  <SCORE.heavy>
31

>  <SCORE.norm>
-0.376978

>  <RMSD>
13.125

$$$$
1byj cryst
 OpenBabel11021811383D
libRbt.so/2013.1/901 2013/11/27
 31 33  0  0  0  0  0  0  0  0999 V2000
   -5.0571   -3.5027   -7.5667 C   0  0  1  0  0  0  0  0  0  0  0  0
   -4.0816   -2.4121   -7.6005 O   0  0  0  0  0  0  0  0  0  0  0  0
   -3.7153   -1.7618   -6.3469 C   0  0  2  0  0  0  0  0  0  0  0  0
   -2.9587   -2.6644   -5.4811 O   0  0  0  0  0  0  0  0  0  0  0  0
   -5.0052   -1.2533   -5.6342 C   0  0  2  0  0  0  0  0  0  0  0  0
   -4.7332   -0.5779   -4.3501 N   0  3  0  0  0  0  0  0  0  0  0  0
   -5.9969   -2.4272   -5.4277 C   0  0  0  0  0  0  0  0  0  0  0  0
   -6.3277   -3.1113   -6.7626 C   0  0  0  0  0  0  0  0  0  0  0  0
   -5.4607   -3.8721   -9.0050 C   0  0  0  0  0  0  0  0  0  0  0  0
   -4.3373   -4.3134   -9.8420 N   0  3  0  0  0  0  0  0  0  0  0  0
   -1.6489   -4.7505   -5.5344 C   0  0  1  0  0  0  0  0  0  0  0  0
   -0.3058   -5.4038   -5.9414 C   0  0  0  0  0  0  0  0  0  0  0  0
    0.8850   -4.6473   -5.2936 C   0  0  1  0  0  0  0  0  0  0  0  0
    2.1520   -5.3262   -5.6262 N   0  3  0  0  0  0  0  0  0  0  0  0
    0.8876   -3.1584   -5.7461 C   0  0  1  0  0  0  0  0  0  0  0  0
   -0.4715   -2.4720   -5.4600 C   0  0  1  0  0  0  0  0  0  0  0  0
   -0.4118   -1.1873   -6.0618 O   0  0  0  0  0  0  0  0  0  0  0  0
   -1.7198   -3.2547   -5.9856 C   0  0  2  0  0  0  0  0  0  0  0  0
   -2.7756   -5.5355   -6.0690 N   0  3  0  0  0  0  0  0  0  0  0  0
    2.8411   -3.6307   -7.6648 C   0  0  0  0  0  0  0  0  0  0  0  0
    2.6967   -2.5028   -8.7158 C   0  0  2  0  0  0  0  0  0  0  0  0
    4.0012   -2.2471   -9.2346 O   0  0  0  0  0  0  0  0  0  0  0  0
    2.1040   -1.2164   -8.0264 C   0  0  1  0  0  0  0  0  0  0  0  0
    2.8440   -0.8413   -6.6976 C   0  0  2  0  0  0  0  0  0  0  0  0
    3.1047   -2.0565   -5.7717 C   0  0  1  0  0  0  0  0  0  0  0  0
    1.9077   -2.4066   -5.0285 O   0  0  0  0  0  0  0  0  0  0  0  0
    3.6265   -3.1866   -6.5265 O   0  0  0  0  0  0  0  0  0  0  0  0
    2.1290    0.1502   -5.9648 O   0  0  0  0  0  0  0  0  0  0  0  0
    2.1306   -0.0698   -8.9871 N   0  3  0  0  0  0  0  0  0  0  0  0
    0.9676    0.8408   -8.9770 C   0  0  0  0  0  0  0  0  0  0  0  0
    1.8299   -3.0260   -9.8875 C   0  0  0  0  0  0  0  0  0  0  0  0
  1  8  1  0  0  0  0
  1  9  1  6  0  0  0
  1  2  1  0  0  0  0
  2  3  1  0  0  0  0
  3  5  1  0  0  0  0
  3  4  1  1  0  0  0
  5  7  1  0  0  0  0
  5  6  1  1  0  0  0
  7  8  1  0  0  0  0
  9 10  1  0  0  0  0
 11 12  1  0  0  0  0
 11 18  1  0  0  0  0
 11 19  1  6  0  0  0
 12 13  1  0  0  0  0
 13 15  1  0  0  0  0
 13 14  1  6  0  0  0
 15 16  1  0  0  0  0
 15 26  1  1  0  0  0
 16 18  1  0  0  0  0
 16 17  1  6  0  0  0
 18  4  1  1  0  0  0
 20 21  1  0  0  0  0
 20 27  1  0  0  0  0
 21 31  1  6  0  0  0
 21 23  1  0  0  0  0
 21 22  1  0  0  0  0
 23 24  1  0  0  0  0
 23 29  1  6  0  0  0
 24 25  1  0  0  0  0
 24 28  1  1  0  0  0
 25 27  1  0  0  0  0
 25 26  1  6  0  0  0
 29 30  1  0  0  0  0
M  CHG  5   6   1  10   1  14   1  19   1  29   1
M  END
>  <CHROM.1>
59.85652892,57.38317431,-139.31484743,58.71650382,-24.48721853,66.11731056
-75.48697708,105.44717139,177.36855926,175.21103990,-98.19575391,-52.84537058
78.41636961,-0.65521220,-2.62405245,-6.83126622,3.00113740,-0.04746202,2.72447454

>  <Name>
1byj cryst

>  <RI>
0

>  <Rbt.Current_Directory>
/home/itssahil/PROJECTS/Mol_Feturizer/New_Systems/rnas/1byj

>  <Rbt.Executable>
rbdock ($Id: //depot/dev/client3/rdock/2013.1/src/exe/rbdock.cxx#4 $)

>  <Rbt.Library>
libRbt.so (2013.1, Build901 2013/11/27)

>  <Rbt.Parameter_File>
/export/apps/rDock/src/rDock_2013.1_src/data/scripts/dock_solv.prm

>  <Rbt.Receptor>
prm/blind_docking_40.prm

>  <SCORE>
-8.03297

>  <SCORE.INTER>
-15.8238

>  <SCORE.INTER.CONST>
1

>  <SCORE.INTER.POLAR>
-4.05411

>  <SCORE.INTER.ROT>
6

>  <SCORE.INTER.SOLV>
30.1466

>  <SCORE.INTER.VDW>
-14.6843

>  <SCORE.INTER.norm>
-0.510444

>  <SCORE.INTRA>
2.63341

>  <SCORE.INTRA.DIHEDRAL>
1.14368

>  <SCORE.INTRA.DIHEDRAL.0>
18.4149

>  <SCORE.INTRA.POLAR>
-0.345545

>  <SCORE.INTRA.POLAR.0>
0

>  <SCORE.INTRA.REPUL>
-0.092687

>  <SCORE.INTRA.REPUL.0>
0.092687

>  <SCORE.INTRA.SOLV>
3.93145

>  <SCORE.INTRA.SOLV.lig_0>
-120.37

>  <SCORE.INTRA.VDW>
1.73413

>  <SCORE.INTRA.VDW.0>
-1.75542

>  <SCORE.INTRA.norm>
0.0849487

>  <SCORE.RESTR>
5.15738

>  <SCORE.RESTR.CAVITY>
5.15738

>  <SCORE.RESTR.norm>
0.166367

>  <SCORE.SYSTEM>
0

>  <SCORE.SYSTEM.CONST>
0

>  <SCORE.SYSTEM.DIHEDRAL>
0

>  <SCORE.SYSTEM.SOLV>
0

>  <SCORE.SYSTEM.norm>
0

>  <SCORE.heavy>
31

>  <SCORE.norm>
-0.259128

>  <RMSD>
13.151

$$$$
1byj cryst
 OpenBabel11021811383D
libRbt.so/2013.1/901 2013/11/27
 31 33  0  0  0  0  0  0  0  0999 V2000
   -3.3511   -1.0600   -5.3182 C   0  0  1  0  0  0  0  0  0  0  0  0
   -3.4598   -2.5015   -5.0890 O   0  0  0  0  0  0  0  0  0  0  0  0
   -4.1382   -3.3197   -6.0885 C   0  0  2  0  0  0  0  0  0  0  0  0
   -3.3721   -3.3840   -7.3318 O   0  0  0  0  0  0  0  0  0  0  0  0
   -5.5662   -2.7470   -6.3402 C   0  0  2  0  0  0  0  0  0  0  0  0
   -6.3327   -3.5135   -7.3422 N   0  3  0  0  0  0  0  0  0  0  0  0
   -5.4759   -1.2555   -6.7542 C   0  0  0  0  0  0  0  0  0  0  0  0
   -4.7216   -0.4344   -5.6976 C   0  0  0  0  0  0  0  0  0  0  0  0
   -2.8174   -0.3792   -4.0455 C   0  0  0  0  0  0  0  0  0  0  0  0
   -3.4969   -0.8049   -2.8149 N   0  3  0  0  0  0  0  0  0  0  0  0
   -2.0057   -5.2301   -6.4402 C   0  0  1  0  0  0  0  0  0  0  0  0
   -0.5726   -5.7904   -6.2708 C   0  0  0  0  0  0  0  0  0  0  0  0
    0.3392   -4.7481   -5.5693 C   0  0  1  0  0  0  0  0  0  0  0  0
    1.6791   -5.3234   -5.3444 N   0  3  0  0  0  0  0  0  0  0  0  0
    0.4027   -3.4379   -6.4065 C   0  0  1  0  0  0  0  0  0  0  0  0
   -1.0119   -2.8790   -6.7009 C   0  0  1  0  0  0  0  0  0  0  0  0
   -0.8405   -1.7956   -7.6026 O   0  0  0  0  0  0  0  0  0  0  0  0
   -2.0131   -3.9223   -7.2978 C   0  0  2  0  0  0  0  0  0  0  0  0
   -2.8880   -6.2625   -7.0121 N   0  3  0  0  0  0  0  0  0  0  0  0
    2.6225   -3.7878   -7.9612 C   0  0  0  0  0  0  0  0  0  0  0  0
    2.8495   -2.6913   -9.0307 C   0  0  2  0  0  0  0  0  0  0  0  0
    4.2604   -2.5505   -9.1903 O   0  0  0  0  0  0  0  0  0  0  0  0
    2.2015   -1.3409   -8.5430 C   0  0  1  0  0  0  0  0  0  0  0  0
    2.5945   -0.9727   -7.0720 C   0  0  2  0  0  0  0  0  0  0  0  0
    2.5053   -2.1692   -6.0910 C   0  0  1  0  0  0  0  0  0  0  0  0
    1.1313   -2.4037   -5.6851 O   0  0  0  0  0  0  0  0  0  0  0  0
    3.1147   -3.3610   -6.6629 O   0  0  0  0  0  0  0  0  0  0  0  0
    1.7941    0.0943   -6.5701 O   0  0  0  0  0  0  0  0  0  0  0  0
    2.5706   -0.2351   -9.4806 N   0  3  0  0  0  0  0  0  0  0  0  0
    1.7143    0.9684   -9.4685 C   0  0  0  0  0  0  0  0  0  0  0  0
    2.2813   -3.1922  -10.3814 C   0  0  0  0  0  0  0  0  0  0  0  0
  1  8  1  0  0  0  0
  1  9  1  1  0  0  0
  1  2  1  0  0  0  0
  2  3  1  0  0  0  0
  3  5  1  0  0  0  0
  3  4  1  6  0  0  0
  5  7  1  0  0  0  0
  5  6  1  6  0  0  0
  7  8  1  0  0  0  0
  9 10  1  0  0  0  0
 11 12  1  0  0  0  0
 11 18  1  0  0  0  0
 11 19  1  6  0  0  0
 12 13  1  0  0  0  0
 13 15  1  0  0  0  0
 13 14  1  6  0  0  0
 15 16  1  0  0  0  0
 15 26  1  1  0  0  0
 16 18  1  0  0  0  0
 16 17  1  6  0  0  0
 18  4  1  1  0  0  0
 20 21  1  0  0  0  0
 20 27  1  0  0  0  0
 21 31  1  6  0  0  0
 21 23  1  0  0  0  0
 21 22  1  0  0  0  0
 23 24  1  0  0  0  0
 23 29  1  6  0  0  0
 24 25  1  0  0  0  0
 24 28  1  1  0  0  0
 25 27  1  0  0  0  0
 25 26  1  6  0  0  0
 29 30  1  0  0  0  0
M  CHG  5   6   1  10   1  14   1  19   1  29   1
M  END
>  <CHROM.1>
-47.28926884,59.20633710,45.10070752,-54.43749310,162.72505831,-49.84645744
-165.82789343,101.50926374,-57.25521408,60.04968941,-79.31453839,92.73993549
97.11190925,-0.63642516,-2.59441139,-6.82541469,3.08435342,-0.31712673,3.13792413

>  <Name>
1byj cryst

>  <RI>
0

>  <Rbt.Current_Directory>
/home/itssahil/PROJECTS/Mol_Feturizer/New_Systems/rnas/1byj

>  <Rbt.Executable>
rbdock ($Id: //depot/dev/client3/rdock/2013.1/src/exe/rbdock.cxx#4 $)

>  <Rbt.Library>
libRbt.so (2013.1, Build901 2013/11/27)

>  <Rbt.Parameter_File>
/export/apps/rDock/src/rDock_2013.1_src/data/scripts/dock_solv.prm

>  <Rbt.Receptor>
prm/blind_docking_20.prm

>  <SCORE>
-11.3774

>  <SCORE.INTER>
-15.1126

>  <SCORE.INTER.CONST>
1

>  <SCORE.INTER.POLAR>
-4.33308

>  <SCORE.INTER.ROT>
6

>  <SCORE.INTER.SOLV>
34.8786

>  <SCORE.INTER.VDW>
-14.8577

>  <SCORE.INTER.norm>
-0.487503

>  <SCORE.INTRA>
1.36384

>  <SCORE.INTRA.DIHEDRAL>
0.470782

>  <SCORE.INTRA.DIHEDRAL.0>
18.4149

>  <SCORE.INTRA.POLAR>
-0.397574

>  <SCORE.INTRA.POLAR.0>
0

>  <SCORE.INTRA.REPUL>
-0.092687

>  <SCORE.INTRA.REPUL.0>
0.092687

>  <SCORE.INTRA.SOLV>
1.84538

>  <SCORE.INTRA.SOLV.lig_0>
-120.37

>  <SCORE.INTRA.VDW>
2.02094

>  <SCORE.INTRA.VDW.0>
-1.75542

>  <SCORE.INTRA.norm>
0.0439947

>  <SCORE.RESTR>
2.3714

>  <SCORE.RESTR.CAVITY>
2.3714

>  <SCORE.RESTR.norm>
0.0764969

>  <SCORE.SYSTEM>
0

>  <SCORE.SYSTEM.CONST>
0

>  <SCORE.SYSTEM.DIHEDRAL>
0

>  <SCORE.SYSTEM.SOLV>
0

>  <SCORE.SYSTEM.norm>
0

>  <SCORE.heavy>
31

>  <SCORE.norm>
-0.367012

>  <RMSD>
13.160

$$$$
1byj cryst
 OpenBabel11021811383D
libRbt.so/2013.1/901 2013/11/27
 31 33  0  0  0  0  0  0  0  0999 V2000
   -1.6017   -1.8885   -4.5907 C   0  0  1  0  0  0  0  0  0  0  0  0
   -1.1251   -1.7449   -5.9670 O   0  0  0  0  0  0  0  0  0  0  0  0
   -0.0220   -2.5872   -6.4170 C   0  0  2  0  0  0  0  0  0  0  0  0
   -0.4248   -3.9898   -6.5026 O   0  0  0  0  0  0  0  0  0  0  0  0
    1.1885   -2.4107   -5.4506 C   0  0  2  0  0  0  0  0  0  0  0  0
    2.3583   -3.2284   -5.8272 N   0  3  0  0  0  0  0  0  0  0  0  0
    0.7568   -2.7234   -3.9946 C   0  0  0  0  0  0  0  0  0  0  0  0
   -0.4306   -1.8461   -3.5706 C   0  0  0  0  0  0  0  0  0  0  0  0
   -2.5931   -0.7553   -4.2725 C   0  0  0  0  0  0  0  0  0  0  0  0
   -3.2738   -0.9076   -2.9799 N   0  3  0  0  0  0  0  0  0  0  0  0
   -1.8161   -3.2462   -8.3951 C   0  0  1  0  0  0  0  0  0  0  0  0
   -3.1122   -3.4995   -9.2029 C   0  0  0  0  0  0  0  0  0  0  0  0
   -4.3482   -3.4930   -8.2637 C   0  0  1  0  0  0  0  0  0  0  0  0
   -5.5819   -3.6575   -9.0559 N   0  3  0  0  0  0  0  0  0  0  0  0
   -4.2044   -4.5970   -7.1764 C   0  0  1  0  0  0  0  0  0  0  0  0
   -2.8723   -4.4614   -6.3972 C   0  0  1  0  0  0  0  0  0  0  0  0
   -2.7723   -5.6056   -5.5625 O   0  0  0  0  0  0  0  0  0  0  0  0
   -1.5997   -4.3406   -7.2990 C   0  0  2  0  0  0  0  0  0  0  0  0
   -0.6623   -3.1516   -9.3068 N   0  3  0  0  0  0  0  0  0  0  0  0
   -8.2413   -4.0746   -5.5809 C   0  0  0  0  0  0  0  0  0  0  0  0
   -8.2753   -3.3931   -4.1909 C   0  0  2  0  0  0  0  0  0  0  0  0
   -8.8969   -2.1206   -4.3657 O   0  0  0  0  0  0  0  0  0  0  0  0
   -6.8046   -3.2307   -3.6505 C   0  0  1  0  0  0  0  0  0  0  0  0
   -5.8316   -2.6086   -4.7089 C   0  0  2  0  0  0  0  0  0  0  0  0
   -5.9779   -3.2286   -6.1217 C   0  0  1  0  0  0  0  0  0  0  0  0
   -5.2830   -4.5007   -6.2027 O   0  0  0  0  0  0  0  0  0  0  0  0
   -7.3791   -3.3491   -6.4975 O   0  0  0  0  0  0  0  0  0  0  0  0
   -4.4720   -2.7202   -4.2962 O   0  0  0  0  0  0  0  0  0  0  0  0
   -6.8136   -2.4135   -2.3972 N   0  3  0  0  0  0  0  0  0  0  0  0
   -7.4447   -3.0185   -1.2066 C   0  0  0  0  0  0  0  0  0  0  0  0
   -9.1852   -4.2250   -3.2539 C   0  0  0  0  0  0  0  0  0  0  0  0
  1  8  1  0  0  0  0
  1  9  1  1  0  0  0
  1  2  1  0  0  0  0
  2  3  1  0  0  0  0
  3  5  1  0  0  0  0
  3  4  1  1  0  0  0
  5  7  1  0  0  0  0
  5  6  1  6  0  0  0
  7  8  1  0  0  0  0
  9 10  1  0  0  0  0
 11 12  1  0  0  0  0
 11 18  1  0  0  0  0
 11 19  1  6  0  0  0
 12 13  1  0  0  0  0
 13 15  1  0  0  0  0
 13 14  1  6  0  0  0
 15 16  1  0  0  0  0
 15 26  1  1  0  0  0
 16 18  1  0  0  0  0
 16 17  1  1  0  0  0
 18  4  1  1  0  0  0
 20 21  1  0  0  0  0
 20 27  1  0  0  0  0
 21 31  1  1  0  0  0
 21 23  1  0  0  0  0
 21 22  1  0  0  0  0
 23 24  1  0  0  0  0
 23 29  1  1  0  0  0
 24 25  1  0  0  0  0
 24 28  1  1  0  0  0
 25 27  1  0  0  0  0
 25 26  1  1  0  0  0
 29 30  1  0  0  0  0
M  CHG  5   6   1  10   1  14   1  19   1  29   1
M  END
>  <CHROM.1>
172.03454206,54.21312115,25.12674003,-49.91702963,72.24465502,64.74456804
-63.46013696,-20.10319316,-176.92936356,55.34815590,-171.22306671,66.14528946
-119.09714689,-3.76991554,-3.12635329,-5.56181966,-0.25645005,0.11989727
1.24378104

>  <Name>
1byj cryst

>  <RI>
0

>  <Rbt.Current_Directory>
/home/itssahil/PROJECTS/Mol_Feturizer/New_Systems/rnas/1byj

>  <Rbt.Executable>
rbdock ($Id: //depot/dev/client3/rdock/2013.1/src/exe/rbdock.cxx#4 $)

>  <Rbt.Library>
libRbt.so (2013.1, Build901 2013/11/27)

>  <Rbt.Parameter_File>
/export/apps/rDock/src/rDock_2013.1_src/data/scripts/dock_solv.prm

>  <Rbt.Receptor>
prm/blind_docking_40.prm

>  <SCORE>
-8.55401

>  <SCORE.INTER>
-17.576

>  <SCORE.INTER.CONST>
1

>  <SCORE.INTER.POLAR>
-2.73202

>  <SCORE.INTER.ROT>
6

>  <SCORE.INTER.SOLV>
17.2941

>  <SCORE.INTER.VDW>
-15.9753

>  <SCORE.INTER.norm>
-0.566968

>  <SCORE.INTRA>
1.87752

>  <SCORE.INTRA.DIHEDRAL>
0.459696

>  <SCORE.INTRA.DIHEDRAL.0>
18.4149

>  <SCORE.INTRA.POLAR>
-1.5059

>  <SCORE.INTRA.POLAR.0>
0

>  <SCORE.INTRA.REPUL>
-0.092687

>  <SCORE.INTRA.REPUL.0>
0.092687

>  <SCORE.INTRA.SOLV>
5.1461

>  <SCORE.INTRA.SOLV.lig_0>
-120.37

>  <SCORE.INTRA.VDW>
4.65812

>  <SCORE.INTRA.VDW.0>
-1.75542

>  <SCORE.INTRA.norm>
0.0605653

>  <SCORE.RESTR>
7.14447

>  <SCORE.RESTR.CAVITY>
7.14447

>  <SCORE.RESTR.norm>
0.230467

>  <SCORE.SYSTEM>
0

>  <SCORE.SYSTEM.CONST>
0

>  <SCORE.SYSTEM.DIHEDRAL>
0

>  <SCORE.SYSTEM.SOLV>
0

>  <SCORE.SYSTEM.norm>
0

>  <SCORE.heavy>
31

>  <SCORE.norm>
-0.275936

>  <RMSD>
13.172

$$$$
1byj cryst
 OpenBabel11021811383D
libRbt.so/2013.1/901 2013/11/27
 31 33  0  0  0  0  0  0  0  0999 V2000
   -3.4505   -1.4440   -5.7278 C   0  0  1  0  0  0  0  0  0  0  0  0
   -3.3631   -2.8534   -5.3430 O   0  0  0  0  0  0  0  0  0  0  0  0
   -3.9413   -3.8578   -6.2292 C   0  0  2  0  0  0  0  0  0  0  0  0
   -3.1920   -3.9574   -7.4803 O   0  0  0  0  0  0  0  0  0  0  0  0
   -5.4363   -3.5077   -6.4988 C   0  0  2  0  0  0  0  0  0  0  0  0
   -6.1088   -4.4730   -7.3905 N   0  3  0  0  0  0  0  0  0  0  0  0
   -5.5514   -2.0717   -7.0720 C   0  0  0  0  0  0  0  0  0  0  0  0
   -4.8975   -1.0481   -6.1317 C   0  0  0  0  0  0  0  0  0  0  0  0
   -2.9933   -0.5638   -4.5511 C   0  0  0  0  0  0  0  0  0  0  0  0
   -3.5977   -0.9323   -3.2642 N   0  3  0  0  0  0  0  0  0  0  0  0
   -1.5949   -5.6750   -6.7253 C   0  0  1  0  0  0  0  0  0  0  0  0
   -0.1007   -6.0329   -6.5365 C   0  0  0  0  0  0  0  0  0  0  0  0
    0.6098   -4.9598   -5.6684 C   0  0  1  0  0  0  0  0  0  0  0  0
    2.0120   -5.3531   -5.4317 N   0  3  0  0  0  0  0  0  0  0  0  0
    0.5048   -3.5628   -6.3459 C   0  0  1  0  0  0  0  0  0  0  0  0
   -0.9658   -3.1883   -6.6579 C   0  0  1  0  0  0  0  0  0  0  0  0
   -0.9266   -1.9902   -7.4188 O   0  0  0  0  0  0  0  0  0  0  0  0
   -1.7688   -4.2884   -7.4276 C   0  0  2  0  0  0  0  0  0  0  0  0
   -2.2832   -6.7497   -7.4621 N   0  3  0  0  0  0  0  0  0  0  0  0
    2.8980   -3.2679   -7.7721 C   0  0  0  0  0  0  0  0  0  0  0  0
    2.5518   -2.2818   -8.9146 C   0  0  2  0  0  0  0  0  0  0  0  0
    3.7330   -1.5293   -9.1879 O   0  0  0  0  0  0  0  0  0  0  0  0
    1.3778   -1.3377   -8.4547 C   0  0  1  0  0  0  0  0  0  0  0  0
    1.6194   -0.7094   -7.0402 C   0  0  2  0  0  0  0  0  0  0  0  0
    2.1299   -1.7291   -5.9907 C   0  0  1  0  0  0  0  0  0  0  0  0
    1.0348   -2.5274   -5.4699 O   0  0  0  0  0  0  0  0  0  0  0  0
    3.1935   -2.5571   -6.5403 O   0  0  0  0  0  0  0  0  0  0  0  0
    0.4405   -0.0847   -6.5390 O   0  0  0  0  0  0  0  0  0  0  0  0
    1.1591   -0.2676   -9.4772 N   0  3  0  0  0  0  0  0  0  0  0  0
    1.9649    0.9630   -9.3431 C   0  0  0  0  0  0  0  0  0  0  0  0
    2.2206   -3.0972  -10.1888 C   0  0  0  0  0  0  0  0  0  0  0  0
  1  8  1  0  0  0  0
  1  9  1  1  0  0  0
  1  2  1  0  0  0  0
  2  3  1  0  0  0  0
  3  5  1  0  0  0  0
  3  4  1  6  0  0  0
  5  7  1  0  0  0  0
  5  6  1  6  0  0  0
  7  8  1  0  0  0  0
  9 10  1  0  0  0  0
 11 12  1  0  0  0  0
 11 18  1  0  0  0  0
 11 19  1  6  0  0  0
 12 13  1  0  0  0  0
 13 15  1  0  0  0  0
 13 14  1  6  0  0  0
 15 16  1  0  0  0  0
 15 26  1  1  0  0  0
 16 18  1  0  0  0  0
 16 17  1  6  0  0  0
 18  4  1  1  0  0  0
 20 21  1  0  0  0  0
 20 27  1  0  0  0  0
 21 31  1  6  0  0  0
 21 23  1  0  0  0  0
 21 22  1  0  0  0  0
 23 24  1  0  0  0  0
 23 29  1  6  0  0  0
 24 25  1  0  0  0  0
 24 28  1  1  0  0  0
 25 27  1  0  0  0  0
 25 26  1  6  0  0  0
 29 30  1  0  0  0  0
M  CHG  5   6   1  10   1  14   1  19   1  29   1
M  END
>  <CHROM.1>
-47.61876428,58.36589950,59.18042001,74.51159846,156.90980998,-91.81626676
-58.05141091,121.80649842,-73.97644044,-179.13915811,33.41666288,-170.34801538
74.73983569,-0.73057243,-2.73189751,-6.91162147,2.95989841,-0.27055704,3.12686307

>  <Name>
1byj cryst

>  <RI>
0

>  <Rbt.Current_Directory>
/home/itssahil/PROJECTS/Mol_Feturizer/New_Systems/rnas/1byj

>  <Rbt.Executable>
rbdock ($Id: //depot/dev/client3/rdock/2013.1/src/exe/rbdock.cxx#4 $)

>  <Rbt.Library>
libRbt.so (2013.1, Build901 2013/11/27)

>  <Rbt.Parameter_File>
/export/apps/rDock/src/rDock_2013.1_src/data/scripts/dock_solv.prm

>  <Rbt.Receptor>
prm/blind_docking_100.prm

>  <SCORE>
-26.9714

>  <SCORE.INTER>
-29.4228

>  <SCORE.INTER.CONST>
1

>  <SCORE.INTER.POLAR>
-6.491

>  <SCORE.INTER.ROT>
6

>  <SCORE.INTER.SOLV>
37.3099

>  <SCORE.INTER.VDW>
-18.0152

>  <SCORE.INTER.norm>
-0.949123

>  <SCORE.INTRA>
-0.713019

>  <SCORE.INTRA.DIHEDRAL>
-2.78103

>  <SCORE.INTRA.DIHEDRAL.0>
18.4149

>  <SCORE.INTRA.POLAR>
-0.969102

>  <SCORE.INTRA.POLAR.0>
0

>  <SCORE.INTRA.REPUL>
-0.092687

>  <SCORE.INTRA.REPUL.0>
0.092687

>  <SCORE.INTRA.SOLV>
1.78835

>  <SCORE.INTRA.SOLV.lig_0>
-120.37

>  <SCORE.INTRA.VDW>
3.54171

>  <SCORE.INTRA.VDW.0>
-1.75542

>  <SCORE.INTRA.norm>
-0.0230006

>  <SCORE.RESTR>
3.16439

>  <SCORE.RESTR.CAVITY>
3.16439

>  <SCORE.RESTR.norm>
0.102077

>  <SCORE.SYSTEM>
0

>  <SCORE.SYSTEM.CONST>
0

>  <SCORE.SYSTEM.DIHEDRAL>
0

>  <SCORE.SYSTEM.SOLV>
0

>  <SCORE.SYSTEM.norm>
0

>  <SCORE.heavy>
31

>  <SCORE.norm>
-0.870046

>  <RMSD>
13.188

$$$$
1byj cryst
 OpenBabel11021811383D
libRbt.so/2013.1/901 2013/11/27
 31 33  0  0  0  0  0  0  0  0999 V2000
   -4.8241   -3.7426   -7.3077 C   0  0  1  0  0  0  0  0  0  0  0  0
   -3.6408   -2.8945   -7.4581 O   0  0  0  0  0  0  0  0  0  0  0  0
   -2.9658   -2.4156   -6.2565 C   0  0  2  0  0  0  0  0  0  0  0  0
   -2.3213   -3.5121   -5.5361 O   0  0  0  0  0  0  0  0  0  0  0  0
   -3.9946   -1.6772   -5.3473 C   0  0  2  0  0  0  0  0  0  0  0  0
   -3.4007   -1.1547   -4.1011 N   0  3  0  0  0  0  0  0  0  0  0  0
   -5.1885   -2.6128   -5.0261 C   0  0  0  0  0  0  0  0  0  0  0  0
   -5.8481   -3.1278   -6.3142 C   0  0  0  0  0  0  0  0  0  0  0  0
   -5.4967   -3.9290   -8.6792 C   0  0  0  0  0  0  0  0  0  0  0  0
   -5.4833   -2.7220   -9.5160 N   0  3  0  0  0  0  0  0  0  0  0  0
   -0.7317   -5.3770   -5.2799 C   0  0  1  0  0  0  0  0  0  0  0  0
    0.2244   -6.3486   -6.0137 C   0  0  0  0  0  0  0  0  0  0  0  0
    1.2553   -5.5583   -6.8637 C   0  0  1  0  0  0  0  0  0  0  0  0
    2.2074   -6.4922   -7.4947 N   0  3  0  0  0  0  0  0  0  0  0  0
    0.5229   -4.6763   -7.9160 C   0  0  1  0  0  0  0  0  0  0  0  0
   -0.5274   -3.7500   -7.2534 C   0  0  1  0  0  0  0  0  0  0  0  0
   -1.2427   -3.1269   -8.3099 O   0  0  0  0  0  0  0  0  0  0  0  0
   -1.5200   -4.4772   -6.2873 C   0  0  2  0  0  0  0  0  0  0  0  0
   -1.6389   -6.1310   -4.3968 N   0  3  0  0  0  0  0  0  0  0  0  0
    2.8701   -1.2024   -9.3295 C   0  0  0  0  0  0  0  0  0  0  0  0
    2.2837   -0.1452   -8.3620 C   0  0  2  0  0  0  0  0  0  0  0  0
    3.3697    0.3548   -7.5831 O   0  0  0  0  0  0  0  0  0  0  0  0
    1.1973   -0.8208   -7.4430 C   0  0  1  0  0  0  0  0  0  0  0  0
    1.6924   -2.1593   -6.7970 C   0  0  2  0  0  0  0  0  0  0  0  0
    2.4228   -3.0934   -7.7949 C   0  0  1  0  0  0  0  0  0  0  0  0
    1.4704   -3.8197   -8.6153 O   0  0  0  0  0  0  0  0  0  0  0  0
    3.3806   -2.3509   -8.6012 O   0  0  0  0  0  0  0  0  0  0  0  0
    0.6174   -2.8775   -6.1972 O   0  0  0  0  0  0  0  0  0  0  0  0
    0.7570    0.1436   -6.3874 N   0  3  0  0  0  0  0  0  0  0  0  0
    0.1670   -0.4286   -5.1601 C   0  0  0  0  0  0  0  0  0  0  0  0
    1.7328    1.0375   -9.1961 C   0  0  0  0  0  0  0  0  0  0  0  0
  1  8  1  0  0  0  0
  1  9  1  6  0  0  0
  1  2  1  0  0  0  0
  2  3  1  0  0  0  0
  3  5  1  0  0  0  0
  3  4  1  1  0  0  0
  5  7  1  0  0  0  0
  5  6  1  1  0  0  0
  7  8  1  0  0  0  0
  9 10  1  0  0  0  0
 11 12  1  0  0  0  0
 11 18  1  0  0  0  0
 11 19  1  6  0  0  0
 12 13  1  0  0  0  0
 13 15  1  0  0  0  0
 13 14  1  6  0  0  0
 15 16  1  0  0  0  0
 15 26  1  1  0  0  0
 16 18  1  0  0  0  0
 16 17  1  6  0  0  0
 18  4  1  1  0  0  0
 20 21  1  0  0  0  0
 20 27  1  0  0  0  0
 21 31  1  6  0  0  0
 21 23  1  0  0  0  0
 21 22  1  0  0  0  0
 23 24  1  0  0  0  0
 23 29  1  1  0  0  0
 24 25  1  0  0  0  0
 24 28  1  6  0  0  0
 25 27  1  0  0  0  0
 25 26  1  6  0  0  0
 29 30  1  0  0  0  0
M  CHG  5   6   1  10   1  14   1  19   1  29   1
M  END
>  <CHROM.1>
-38.38134750,46.41950233,169.57588863,172.23764109,40.35048501,-81.20803459
-170.56663425,-47.42394861,62.85282443,-77.31584635,-36.10201461,23.84031353
-59.66220911,-0.72792243,-2.86297286,-6.99220454,2.88432541,-0.17109277,2.97320987

>  <Name>
1byj cryst

>  <RI>
0

>  <Rbt.Current_Directory>
/home/itssahil/PROJECTS/Mol_Feturizer/New_Systems/rnas/1byj

>  <Rbt.Executable>
rbdock ($Id: //depot/dev/client3/rdock/2013.1/src/exe/rbdock.cxx#4 $)

>  <Rbt.Library>
libRbt.so (2013.1, Build901 2013/11/27)

>  <Rbt.Parameter_File>
/export/apps/rDock/src/rDock_2013.1_src/data/scripts/dock_solv.prm

>  <Rbt.Receptor>
prm/blind_docking_100.prm

>  <SCORE>
18.3234

>  <SCORE.INTER>
-20.4119

>  <SCORE.INTER.CONST>
1

>  <SCORE.INTER.POLAR>
-4.9831

>  <SCORE.INTER.ROT>
6

>  <SCORE.INTER.SOLV>
31.0059

>  <SCORE.INTER.VDW>
-14.9329

>  <SCORE.INTER.norm>
-0.658449

>  <SCORE.INTRA>
30.3205

>  <SCORE.INTRA.DIHEDRAL>
-5.14164

>  <SCORE.INTRA.DIHEDRAL.0>
18.4149

>  <SCORE.INTRA.POLAR>
-0.130075

>  <SCORE.INTRA.POLAR.0>
0

>  <SCORE.INTRA.REPUL>
-0.092687

>  <SCORE.INTRA.REPUL.0>
0.092687

>  <SCORE.INTRA.SOLV>
0.0894272

>  <SCORE.INTRA.SOLV.lig_0>
-120.37

>  <SCORE.INTRA.VDW>
33.7523

>  <SCORE.INTRA.VDW.0>
-1.75542

>  <SCORE.INTRA.norm>
0.978079

>  <SCORE.RESTR>
8.41485

>  <SCORE.RESTR.CAVITY>
8.41485

>  <SCORE.RESTR.norm>
0.271447

>  <SCORE.SYSTEM>
0

>  <SCORE.SYSTEM.CONST>
0

>  <SCORE.SYSTEM.DIHEDRAL>
0

>  <SCORE.SYSTEM.SOLV>
0

>  <SCORE.SYSTEM.norm>
0

>  <SCORE.heavy>
31

>  <SCORE.norm>
0.591077

>  <RMSD>
13.222

$$$$
1byj cryst
 OpenBabel11021811383D
libRbt.so/2013.1/901 2013/11/27
 31 33  0  0  0  0  0  0  0  0999 V2000
    0.8212   -1.7270   -6.8898 C   0  0  1  0  0  0  0  0  0  0  0  0
   -0.6112   -1.9879   -7.0388 O   0  0  0  0  0  0  0  0  0  0  0  0
   -1.2666   -2.8657   -6.0751 C   0  0  2  0  0  0  0  0  0  0  0  0
   -1.3239   -2.2514   -4.7498 O   0  0  0  0  0  0  0  0  0  0  0  0
   -0.5148   -4.2305   -6.0270 C   0  0  2  0  0  0  0  0  0  0  0  0
   -1.1084   -5.1891   -5.0742 N   0  3  0  0  0  0  0  0  0  0  0  0
    0.9835   -4.0015   -5.7001 C   0  0  0  0  0  0  0  0  0  0  0  0
    1.6286   -3.0424   -6.7117 C   0  0  0  0  0  0  0  0  0  0  0  0
    1.3363   -0.9796   -8.1324 C   0  0  0  0  0  0  0  0  0  0  0  0
    0.9474   -1.6033   -9.4040 N   0  3  0  0  0  0  0  0  0  0  0  0
   -2.5775   -1.3771   -2.8174 C   0  0  1  0  0  0  0  0  0  0  0  0
   -3.8750   -0.6734   -2.3506 C   0  0  0  0  0  0  0  0  0  0  0  0
   -5.1235   -1.4604   -2.8318 C   0  0  1  0  0  0  0  0  0  0  0  0
   -6.3494   -0.8226   -2.3148 N   0  3  0  0  0  0  0  0  0  0  0  0
   -5.1316   -1.5608   -4.3848 C   0  0  1  0  0  0  0  0  0  0  0  0
   -3.8110   -2.1643   -4.9251 C   0  0  1  0  0  0  0  0  0  0  0  0
   -3.8613   -2.0494   -6.3394 O   0  0  0  0  0  0  0  0  0  0  0  0
   -2.5125   -1.4862   -4.3762 C   0  0  2  0  0  0  0  0  0  0  0  0
   -1.3997   -0.6813   -2.2696 N   0  3  0  0  0  0  0  0  0  0  0  0
   -7.2637   -3.7780   -2.3104 C   0  0  0  0  0  0  0  0  0  0  0  0
   -8.4236   -4.6883   -2.7834 C   0  0  2  0  0  0  0  0  0  0  0  0
   -8.0629   -6.0287   -2.4529 O   0  0  0  0  0  0  0  0  0  0  0  0
   -8.6173   -4.5255   -4.3382 C   0  0  1  0  0  0  0  0  0  0  0  0
   -7.2731   -4.6375   -5.1348 C   0  0  2  0  0  0  0  0  0  0  0  0
   -6.1107   -3.8319   -4.5010 C   0  0  1  0  0  0  0  0  0  0  0  0
   -6.2143   -2.4233   -4.8369 O   0  0  0  0  0  0  0  0  0  0  0  0
   -6.0500   -4.0452   -3.0623 O   0  0  0  0  0  0  0  0  0  0  0  0
   -7.4340   -4.2245   -6.4894 O   0  0  0  0  0  0  0  0  0  0  0  0
   -9.6091   -5.5307   -4.8324 N   0  3  0  0  0  0  0  0  0  0  0  0
   -9.1950   -6.9484   -4.8101 C   0  0  0  0  0  0  0  0  0  0  0  0
   -9.6920   -4.3384   -1.9668 C   0  0  0  0  0  0  0  0  0  0  0  0
  1  8  1  0  0  0  0
  1  9  1  6  0  0  0
  1  2  1  0  0  0  0
  2  3  1  0  0  0  0
  3  5  1  0  0  0  0
  3  4  1  1  0  0  0
  5  7  1  0  0  0  0
  5  6  1  1  0  0  0
  7  8  1  0  0  0  0
  9 10  1  0  0  0  0
 11 12  1  0  0  0  0
 11 18  1  0  0  0  0
 11 19  1  6  0  0  0
 12 13  1  0  0  0  0
 13 15  1  0  0  0  0
 13 14  1  6  0  0  0
 15 16  1  0  0  0  0
 15 26  1  1  0  0  0
 16 18  1  0  0  0  0
 16 17  1  6  0  0  0
 18  4  1  1  0  0  0
 20 21  1  0  0  0  0
 20 27  1  0  0  0  0
 21 31  1  1  0  0  0
 21 23  1  0  0  0  0
 21 22  1  0  0  0  0
 23 24  1  0  0  0  0
 23 29  1  6  0  0  0
 24 25  1  0  0  0  0
 24 28  1  6  0  0  0
 25 27  1  0  0  0  0
 25 26  1  1  0  0  0
 29 30  1  0  0  0  0
M  CHG  5   6   1  10   1  14   1  19   1  29   1
M  END
>  <CHROM.1>
-49.77217024,93.03936172,159.89698593,-37.95754539,-55.40468625,66.26805653
-71.36826968,-66.98004755,67.11697628,-56.20716479,52.18594381,69.58835319
-175.77201551,-4.13655657,-3.07629552,-4.72362710,0.08436719,-0.41403929
-2.26547363

>  <Name>
1byj cryst

>  <RI>
0

>  <Rbt.Current_Directory>
/home/itssahil/PROJECTS/Mol_Feturizer/New_Systems/rnas/1byj

>  <Rbt.Executable>
rbdock ($Id: //depot/dev/client3/rdock/2013.1/src/exe/rbdock.cxx#4 $)

>  <Rbt.Library>
libRbt.so (2013.1, Build901 2013/11/27)

>  <Rbt.Parameter_File>
/export/apps/rDock/src/rDock_2013.1_src/data/scripts/dock_solv.prm

>  <Rbt.Receptor>
prm/blind_docking_100.prm

>  <SCORE>
-16.4828

>  <SCORE.INTER>
-18.9211

>  <SCORE.INTER.CONST>
1

>  <SCORE.INTER.POLAR>
-3.59268

>  <SCORE.INTER.ROT>
6

>  <SCORE.INTER.SOLV>
18.4634

>  <SCORE.INTER.VDW>
-14.3929

>  <SCORE.INTER.norm>
-0.610358

>  <SCORE.INTRA>
-3.79451

>  <SCORE.INTRA.DIHEDRAL>
-8.842

>  <SCORE.INTRA.DIHEDRAL.0>
18.4149

>  <SCORE.INTRA.POLAR>
-0.0443593

>  <SCORE.INTRA.POLAR.0>
0

>  <SCORE.INTRA.REPUL>
-0.092687

>  <SCORE.INTRA.REPUL.0>
0.092687

>  <SCORE.INTRA.SOLV>
-2.37456

>  <SCORE.INTRA.SOLV.lig_0>
-120.37

>  <SCORE.INTRA.VDW>
2.42802

>  <SCORE.INTRA.VDW.0>
-1.75542

>  <SCORE.INTRA.norm>
-0.122404

>  <SCORE.RESTR>
6.23279

>  <SCORE.RESTR.CAVITY>
6.23279

>  <SCORE.RESTR.norm>
0.201058

>  <SCORE.SYSTEM>
0

>  <SCORE.SYSTEM.CONST>
0

>  <SCORE.SYSTEM.DIHEDRAL>
0

>  <SCORE.SYSTEM.SOLV>
0

>  <SCORE.SYSTEM.norm>
0

>  <SCORE.heavy>
31

>  <SCORE.norm>
-0.531704

>  <RMSD>
13.228

$$$$
1byj cryst
 OpenBabel11021811383D
libRbt.so/2013.1/901 2013/11/27
 31 33  0  0  0  0  0  0  0  0999 V2000
   -5.5765   -2.1824   -4.3691 C   0  0  1  0  0  0  0  0  0  0  0  0
   -5.3114   -3.5369   -4.8558 O   0  0  0  0  0  0  0  0  0  0  0  0
   -4.3218   -3.7197   -5.9122 C   0  0  2  0  0  0  0  0  0  0  0  0
   -2.9726   -3.4242   -5.4336 O   0  0  0  0  0  0  0  0  0  0  0  0
   -4.6939   -2.8182   -7.1284 C   0  0  2  0  0  0  0  0  0  0  0  0
   -3.7447   -2.9360   -8.2527 N   0  3  0  0  0  0  0  0  0  0  0  0
   -4.8162   -1.3398   -6.6771 C   0  0  0  0  0  0  0  0  0  0  0  0
   -5.8367   -1.1931   -5.5385 C   0  0  0  0  0  0  0  0  0  0  0  0
   -6.8033   -2.2042   -3.4404 C   0  0  0  0  0  0  0  0  0  0  0  0
   -7.8177   -3.1964   -3.8198 N   0  3  0  0  0  0  0  0  0  0  0  0
   -1.8076   -5.4236   -6.2794 C   0  0  1  0  0  0  0  0  0  0  0  0
   -0.5538   -5.9534   -7.0169 C   0  0  0  0  0  0  0  0  0  0  0  0
    0.7392   -5.4754   -6.3032 C   0  0  1  0  0  0  0  0  0  0  0  0
    1.9230   -6.0508   -6.9699 N   0  3  0  0  0  0  0  0  0  0  0  0
    0.7914   -3.9205   -6.2672 C   0  0  1  0  0  0  0  0  0  0  0  0
   -0.4879   -3.3206   -5.6317 C   0  0  1  0  0  0  0  0  0  0  0  0
   -0.4064   -1.9139   -5.8067 O   0  0  0  0  0  0  0  0  0  0  0  0
   -1.8279   -3.8605   -6.2318 C   0  0  2  0  0  0  0  0  0  0  0  0
   -3.0277   -5.9664   -6.9023 N   0  3  0  0  0  0  0  0  0  0  0  0
    1.9523   -2.6488   -8.4119 C   0  0  0  0  0  0  0  0  0  0  0  0
    2.0136   -1.1016   -8.4091 C   0  0  2  0  0  0  0  0  0  0  0  0
    3.2249   -0.7312   -9.0662 O   0  0  0  0  0  0  0  0  0  0  0  0
    1.9978   -0.5788   -6.9232 C   0  0  1  0  0  0  0  0  0  0  0  0
    3.0289   -1.3195   -6.0055 C   0  0  2  0  0  0  0  0  0  0  0  0
    3.0264   -2.8582   -6.1907 C   0  0  1  0  0  0  0  0  0  0  0  0
    1.9213   -3.4641   -5.4701 O   0  0  0  0  0  0  0  0  0  0  0  0
    3.0168   -3.2152   -7.6019 O   0  0  0  0  0  0  0  0  0  0  0  0
    2.8099   -1.0215   -4.6291 O   0  0  0  0  0  0  0  0  0  0  0  0
    2.2391    0.8976   -6.9038 N   0  3  0  0  0  0  0  0  0  0  0  0
    2.1127    1.5808   -5.6003 C   0  0  0  0  0  0  0  0  0  0  0  0
    0.8419   -0.5582   -9.2635 C   0  0  0  0  0  0  0  0  0  0  0  0
  1  8  1  0  0  0  0
  1  9  1  1  0  0  0
  1  2  1  0  0  0  0
  2  3  1  0  0  0  0
  3  5  1  0  0  0  0
  3  4  1  1  0  0  0
  5  7  1  0  0  0  0
  5  6  1  6  0  0  0
  7  8  1  0  0  0  0
  9 10  1  0  0  0  0
 11 12  1  0  0  0  0
 11 18  1  0  0  0  0
 11 19  1  6  0  0  0
 12 13  1  0  0  0  0
 13 15  1  0  0  0  0
 13 14  1  6  0  0  0
 15 16  1  0  0  0  0
 15 26  1  1  0  0  0
 16 18  1  0  0  0  0
 16 17  1  6  0  0  0
 18  4  1  1  0  0  0
 20 21  1  0  0  0  0
 20 27  1  0  0  0  0
 21 31  1  6  0  0  0
 21 23  1  0  0  0  0
 21 22  1  0  0  0  0
 23 24  1  0  0  0  0
 23 29  1  6  0  0  0
 24 25  1  0  0  0  0
 24 28  1  1  0  0  0
 25 27  1  0  0  0  0
 25 26  1  1  0  0  0
 29 30  1  0  0  0  0
M  CHG  5   6   1  10   1  14   1  19   1  29   1
M  END
>  <CHROM.1>
-33.40519231,165.06089773,-64.44039344,131.28864349,-173.09024812,-65.94794154
6.88657351,109.03969415,93.10284668,70.03330250,-65.34671166,-83.70891715
105.11585414,-0.90865982,-2.68863908,-6.37562313,2.99034465,-0.23745409,-3.06536044

>  <Name>
1byj cryst

>  <RI>
0

>  <Rbt.Current_Directory>
/home/itssahil/PROJECTS/Mol_Feturizer/New_Systems/rnas/1byj

>  <Rbt.Executable>
rbdock ($Id: //depot/dev/client3/rdock/2013.1/src/exe/rbdock.cxx#4 $)

>  <Rbt.Library>
libRbt.so (2013.1, Build901 2013/11/27)

>  <Rbt.Parameter_File>
/export/apps/rDock/src/rDock_2013.1_src/data/scripts/dock_solv.prm

>  <Rbt.Receptor>
prm/blind_docking_100.prm

>  <SCORE>
-12.222

>  <SCORE.INTER>
-32.1123

>  <SCORE.INTER.CONST>
1

>  <SCORE.INTER.POLAR>
-4.89349

>  <SCORE.INTER.ROT>
6

>  <SCORE.INTER.SOLV>
25.3785

>  <SCORE.INTER.VDW>
-21.1561

>  <SCORE.INTER.norm>
-1.03588

>  <SCORE.INTRA>
15.3012

>  <SCORE.INTRA.DIHEDRAL>
11.9892

>  <SCORE.INTRA.DIHEDRAL.0>
18.4149

>  <SCORE.INTRA.POLAR>
-0.844938

>  <SCORE.INTRA.POLAR.0>
0

>  <SCORE.INTRA.REPUL>
-0.092687

>  <SCORE.INTRA.REPUL.0>
0.092687

>  <SCORE.INTRA.SOLV>
6.5135

>  <SCORE.INTRA.SOLV.lig_0>
-120.37

>  <SCORE.INTRA.VDW>
9.38604

>  <SCORE.INTRA.VDW.0>
-1.75542

>  <SCORE.INTRA.norm>
0.493586

>  <SCORE.RESTR>
4.58915

>  <SCORE.RESTR.CAVITY>
4.58915

>  <SCORE.RESTR.norm>
0.148037

>  <SCORE.SYSTEM>
0

>  <SCORE.SYSTEM.CONST>
0

>  <SCORE.SYSTEM.DIHEDRAL>
0

>  <SCORE.SYSTEM.SOLV>
0

>  <SCORE.SYSTEM.norm>
0

>  <SCORE.heavy>
31

>  <SCORE.norm>
-0.394258

>  <RMSD>
13.256

$$$$
1byj cryst
 OpenBabel11021811383D
libRbt.so/2013.1/901 2013/11/27
 31 33  0  0  0  0  0  0  0  0999 V2000
   -5.5835   -2.7124   -4.3442 C   0  0  1  0  0  0  0  0  0  0  0  0
   -5.2141   -3.9862   -4.9632 O   0  0  0  0  0  0  0  0  0  0  0  0
   -4.2213   -3.9828   -6.0323 C   0  0  2  0  0  0  0  0  0  0  0  0
   -2.8965   -3.6281   -5.5264 O   0  0  0  0  0  0  0  0  0  0  0  0
   -4.6743   -2.9982   -7.1529 C   0  0  2  0  0  0  0  0  0  0  0  0
   -3.7274   -2.9270   -8.2831 N   0  3  0  0  0  0  0  0  0  0  0  0
   -4.9115   -1.5866   -6.5570 C   0  0  0  0  0  0  0  0  0  0  0  0
   -5.9316   -1.6365   -5.4096 C   0  0  0  0  0  0  0  0  0  0  0  0
   -6.7973   -2.9252   -3.4225 C   0  0  0  0  0  0  0  0  0  0  0  0
   -7.0083   -4.3255   -3.0325 N   0  3  0  0  0  0  0  0  0  0  0  0
   -1.6295   -5.5531   -6.3979 C   0  0  1  0  0  0  0  0  0  0  0  0
   -0.3398   -6.0093   -7.1224 C   0  0  0  0  0  0  0  0  0  0  0  0
    0.9171   -5.4950   -6.3704 C   0  0  1  0  0  0  0  0  0  0  0  0
    2.1375   -6.0016   -7.0268 N   0  3  0  0  0  0  0  0  0  0  0  0
    0.9010   -3.9408   -6.2944 C   0  0  1  0  0  0  0  0  0  0  0  0
   -0.4152   -3.4129   -5.6706 C   0  0  1  0  0  0  0  0  0  0  0  0
   -0.3915   -2.0000   -5.8084 O   0  0  0  0  0  0  0  0  0  0  0  0
   -1.7186   -3.9940   -6.3115 C   0  0  2  0  0  0  0  0  0  0  0  0
   -2.8126   -6.1313   -7.0592 N   0  3  0  0  0  0  0  0  0  0  0  0
    2.0839   -2.6201   -8.3974 C   0  0  0  0  0  0  0  0  0  0  0  0
    2.1013   -1.0718   -8.3830 C   0  0  2  0  0  0  0  0  0  0  0  0
    3.3194   -0.6629   -9.0035 O   0  0  0  0  0  0  0  0  0  0  0  0
    2.0294   -0.5604   -6.8948 C   0  0  1  0  0  0  0  0  0  0  0  0
    3.0551   -1.2785   -5.9534 C   0  0  2  0  0  0  0  0  0  0  0  0
    3.1014   -2.8153   -6.1484 C   0  0  1  0  0  0  0  0  0  0  0  0
    1.9943   -3.4571   -5.4629 O   0  0  0  0  0  0  0  0  0  0  0  0
    3.1410   -3.1621   -7.5616 O   0  0  0  0  0  0  0  0  0  0  0  0
    2.7897   -0.9967   -4.5817 O   0  0  0  0  0  0  0  0  0  0  0  0
    2.2283    0.9220   -6.8591 N   0  3  0  0  0  0  0  0  0  0  0  0
    2.1719    1.5746   -5.5352 C   0  0  0  0  0  0  0  0  0  0  0  0
    0.9389   -0.5555   -9.2663 C   0  0  0  0  0  0  0  0  0  0  0  0
  1  8  1  0  0  0  0
  1  9  1  1  0  0  0
  1  2  1  0  0  0  0
  2  3  1  0  0  0  0
  3  5  1  0  0  0  0
  3  4  1  1  0  0  0
  5  7  1  0  0  0  0
  5  6  1  6  0  0  0
  7  8  1  0  0  0  0
  9 10  1  0  0  0  0
 11 12  1  0  0  0  0
 11 18  1  0  0  0  0
 11 19  1  6  0  0  0
 12 13  1  0  0  0  0
 13 15  1  0  0  0  0
 13 14  1  6  0  0  0
 15 16  1  0  0  0  0
 15 26  1  1  0  0  0
 16 18  1  0  0  0  0
 16 17  1  6  0  0  0
 18  4  1  1  0  0  0
 20 21  1  0  0  0  0
 20 27  1  0  0  0  0
 21 31  1  6  0  0  0
 21 23  1  0  0  0  0
 21 22  1  0  0  0  0
 23 24  1  0  0  0  0
 23 29  1  6  0  0  0
 24 25  1  0  0  0  0
 24 28  1  1  0  0  0
 25 27  1  0  0  0  0
 25 26  1  6  0  0  0
 29 30  1  0  0  0  0
M  CHG  5   6   1  10   1  14   1  19   1  29   1
M  END
>  <CHROM.1>
19.08683453,159.80102987,-63.71645008,-45.33213086,63.75230202,160.75249106
10.13716734,107.56694627,74.75675667,-176.51644825,-59.75971490,-164.62048670
105.18362450,-0.80473656,-2.83471881,-6.35250155,2.91553935,-0.25705814,-3.07027334

>  <Name>
1byj cryst

>  <RI>
0

>  <Rbt.Current_Directory>
/home/itssahil/PROJECTS/Mol_Feturizer/New_Systems/rnas/1byj

>  <Rbt.Executable>
rbdock ($Id: //depot/dev/client3/rdock/2013.1/src/exe/rbdock.cxx#4 $)

>  <Rbt.Library>
libRbt.so (2013.1, Build901 2013/11/27)

>  <Rbt.Parameter_File>
/export/apps/rDock/src/rDock_2013.1_src/data/scripts/dock_solv.prm

>  <Rbt.Receptor>
prm/blind_docking_100.prm

>  <SCORE>
-28.6357

>  <SCORE.INTER>
-41.7273

>  <SCORE.INTER.CONST>
1

>  <SCORE.INTER.POLAR>
-6.8175

>  <SCORE.INTER.ROT>
6

>  <SCORE.INTER.SOLV>
30.1482

>  <SCORE.INTER.VDW>
-22.7426

>  <SCORE.INTER.norm>
-1.34604

>  <SCORE.INTRA>
7.96124

>  <SCORE.INTRA.DIHEDRAL>
7.32537

>  <SCORE.INTRA.DIHEDRAL.0>
18.4149

>  <SCORE.INTRA.POLAR>
-0.935825

>  <SCORE.INTRA.POLAR.0>
0

>  <SCORE.INTRA.REPUL>
-0.092687

>  <SCORE.INTRA.REPUL.0>
0.092687

>  <SCORE.INTRA.SOLV>
5.97603

>  <SCORE.INTRA.SOLV.lig_0>
-120.37

>  <SCORE.INTRA.VDW>
4.95578

>  <SCORE.INTRA.VDW.0>
-1.75542

>  <SCORE.INTRA.norm>
0.256814

>  <SCORE.RESTR>
5.13033

>  <SCORE.RESTR.CAVITY>
5.13033

>  <SCORE.RESTR.norm>
0.165494

>  <SCORE.SYSTEM>
0

>  <SCORE.SYSTEM.CONST>
0

>  <SCORE.SYSTEM.DIHEDRAL>
0

>  <SCORE.SYSTEM.SOLV>
0

>  <SCORE.SYSTEM.norm>
0

>  <SCORE.heavy>
31

>  <SCORE.norm>
-0.923734

>  <RMSD>
13.257

$$$$
1byj cryst
 OpenBabel11021811383D
libRbt.so/2013.1/901 2013/11/27
 31 33  0  0  0  0  0  0  0  0999 V2000
   -5.8284   -3.3884   -7.0561 C   0  0  1  0  0  0  0  0  0  0  0  0
   -4.6599   -2.5486   -7.3232 O   0  0  0  0  0  0  0  0  0  0  0  0
   -3.8890   -2.0421   -6.1928 C   0  0  2  0  0  0  0  0  0  0  0  0
   -3.1898   -3.1226   -5.4995 O   0  0  0  0  0  0  0  0  0  0  0  0
   -4.8395   -1.2775   -5.2221 C   0  0  2  0  0  0  0  0  0  0  0  0
   -4.1456   -0.7262   -4.0417 N   0  3  0  0  0  0  0  0  0  0  0  0
   -6.0048   -2.2006   -4.7816 C   0  0  0  0  0  0  0  0  0  0  0  0
   -6.7675   -2.7453   -5.9987 C   0  0  0  0  0  0  0  0  0  0  0  0
   -6.6103   -3.6066   -8.3634 C   0  0  0  0  0  0  0  0  0  0  0  0
   -5.9438   -4.5104   -9.3101 N   0  3  0  0  0  0  0  0  0  0  0  0
   -1.6734   -5.0628   -5.5796 C   0  0  1  0  0  0  0  0  0  0  0  0
   -0.2745   -5.5723   -6.0039 C   0  0  0  0  0  0  0  0  0  0  0  0
    0.8389   -4.7013   -5.3623 C   0  0  1  0  0  0  0  0  0  0  0  0
    2.1654   -5.2445   -5.7116 N   0  3  0  0  0  0  0  0  0  0  0  0
    0.6840   -3.2173   -5.8046 C   0  0  1  0  0  0  0  0  0  0  0  0
   -0.7354   -2.6758   -5.5008 C   0  0  1  0  0  0  0  0  0  0  0  0
   -0.8140   -1.3884   -6.0944 O   0  0  0  0  0  0  0  0  0  0  0  0
   -1.9021   -3.5796   -6.0198 C   0  0  2  0  0  0  0  0  0  0  0  0
   -2.7189   -5.9563   -6.1087 N   0  3  0  0  0  0  0  0  0  0  0  0
    2.7963   -3.3621   -7.7318 C   0  0  0  0  0  0  0  0  0  0  0  0
    2.2986   -2.3617   -8.8037 C   0  0  2  0  0  0  0  0  0  0  0  0
    3.4561   -1.7579   -9.3797 O   0  0  0  0  0  0  0  0  0  0  0  0
    1.3794   -1.2784   -8.1233 C   0  0  1  0  0  0  0  0  0  0  0  0
    2.0188   -0.6591   -6.8343 C   0  0  2  0  0  0  0  0  0  0  0  0
    2.6493   -1.7139   -5.8899 C   0  0  1  0  0  0  0  0  0  0  0  0
    1.6288   -2.3690   -5.0917 O   0  0  0  0  0  0  0  0  0  0  0  0
    3.4534   -2.6703   -6.6365 O   0  0  0  0  0  0  0  0  0  0  0  0
    1.0696    0.1082   -6.0985 O   0  0  0  0  0  0  0  0  0  0  0  0
    1.0425   -0.2075   -9.1122 N   0  3  0  0  0  0  0  0  0  0  0  0
    1.9804    0.9290   -9.2156 C   0  0  0  0  0  0  0  0  0  0  0  0
    1.5855   -3.1539   -9.9271 C   0  0  0  0  0  0  0  0  0  0  0  0
  1  8  1  0  0  0  0
  1  9  1  6  0  0  0
  1  2  1  0  0  0  0
  2  3  1  0  0  0  0
  3  5  1  0  0  0  0
  3  4  1  1  0  0  0
  5  7  1  0  0  0  0
  5  6  1  1  0  0  0
  7  8  1  0  0  0  0
  9 10  1  0  0  0  0
 11 12  1  0  0  0  0
 11 18  1  0  0  0  0
 11 19  1  6  0  0  0
 12 13  1  0  0  0  0
 13 15  1  0  0  0  0
 13 14  1  6  0  0  0
 15 16  1  0  0  0  0
 15 26  1  1  0  0  0
 16 18  1  0  0  0  0
 16 17  1  6  0  0  0
 18  4  1  1  0  0  0
 20 21  1  0  0  0  0
 20 27  1  0  0  0  0
 21 31  1  6  0  0  0
 21 23  1  0  0  0  0
 21 22  1  0  0  0  0
 23 24  1  0  0  0  0
 23 29  1  6  0  0  0
 24 25  1  0  0  0  0
 24 28  1  1  0  0  0
 25 27  1  0  0  0  0
 25 26  1  6  0  0  0
 29 30  1  0  0  0  0
M  CHG  5   6   1  10   1  14   1  19   1  29   1
M  END
>  <CHROM.1>
72.38538895,83.33196550,-154.50903877,53.47531977,-163.75730741,-37.31021080
163.14018990,115.38155496,-64.84167671,68.94718838,32.79154914,-173.06518223
67.00944942,-0.98181424,-2.63888274,-6.75223152,2.95688973,-0.08040529,2.74568539

>  <Name>
1byj cryst

>  <RI>
0

>  <Rbt.Current_Directory>
/home/itssahil/PROJECTS/Mol_Feturizer/New_Systems/rnas/1byj

>  <Rbt.Executable>
rbdock ($Id: //depot/dev/client3/rdock/2013.1/src/exe/rbdock.cxx#4 $)

>  <Rbt.Library>
libRbt.so (2013.1, Build901 2013/11/27)

>  <Rbt.Parameter_File>
/export/apps/rDock/src/rDock_2013.1_src/data/scripts/dock_solv.prm

>  <Rbt.Receptor>
prm/blind_docking_40.prm

>  <SCORE>
-20.9946

>  <SCORE.INTER>
-25.1629

>  <SCORE.INTER.CONST>
1

>  <SCORE.INTER.POLAR>
-4.73593

>  <SCORE.INTER.ROT>
6

>  <SCORE.INTER.SOLV>
34.1609

>  <SCORE.INTER.VDW>
-19.9758

>  <SCORE.INTER.norm>
-0.811706

>  <SCORE.INTRA>
0.379988

>  <SCORE.INTRA.DIHEDRAL>
-0.148512

>  <SCORE.INTRA.DIHEDRAL.0>
18.4149

>  <SCORE.INTRA.POLAR>
-0.803727

>  <SCORE.INTRA.POLAR.0>
0

>  <SCORE.INTRA.REPUL>
-0.092687

>  <SCORE.INTRA.REPUL.0>
0.092687

>  <SCORE.INTRA.SOLV>
0.159087

>  <SCORE.INTRA.SOLV.lig_0>
-120.37

>  <SCORE.INTRA.VDW>
3.57081

>  <SCORE.INTRA.VDW.0>
-1.75542

>  <SCORE.INTRA.norm>
0.0122577

>  <SCORE.RESTR>
3.78828

>  <SCORE.RESTR.CAVITY>
3.78828

>  <SCORE.RESTR.norm>
0.122203

>  <SCORE.SYSTEM>
0

>  <SCORE.SYSTEM.CONST>
0

>  <SCORE.SYSTEM.DIHEDRAL>
0

>  <SCORE.SYSTEM.SOLV>
0

>  <SCORE.SYSTEM.norm>
0

>  <SCORE.heavy>
31

>  <SCORE.norm>
-0.677246

>  <RMSD>
13.268

$$$$
1byj cryst
 OpenBabel11021811383D
libRbt.so/2013.1/901 2013/11/27
 31 33  0  0  0  0  0  0  0  0999 V2000
   -3.6136   -0.2101   -1.5572 C   0  0  1  0  0  0  0  0  0  0  0  0
   -3.8322   -1.3898   -2.3954 O   0  0  0  0  0  0  0  0  0  0  0  0
   -5.1609   -1.6143   -2.9548 C   0  0  2  0  0  0  0  0  0  0  0  0
   -5.4921   -0.6055   -3.9594 O   0  0  0  0  0  0  0  0  0  0  0  0
   -6.2106   -1.6217   -1.8021 C   0  0  2  0  0  0  0  0  0  0  0  0
   -7.5917   -1.8432   -2.2738 N   0  3  0  0  0  0  0  0  0  0  0  0
   -6.1211   -0.3024   -0.9926 C   0  0  0  0  0  0  0  0  0  0  0  0
   -4.6997   -0.0809   -0.4539 C   0  0  0  0  0  0  0  0  0  0  0  0
   -2.2271   -0.3030   -0.8960 C   0  0  0  0  0  0  0  0  0  0  0  0
   -1.5078    0.9765   -0.8429 N   0  3  0  0  0  0  0  0  0  0  0  0
   -6.2274   -1.3181   -6.2004 C   0  0  1  0  0  0  0  0  0  0  0  0
   -5.7793   -1.6512   -7.6443 C   0  0  0  0  0  0  0  0  0  0  0  0
   -4.6796   -2.7467   -7.6331 C   0  0  1  0  0  0  0  0  0  0  0  0
   -4.3180   -3.1097   -9.0167 N   0  3  0  0  0  0  0  0  0  0  0  0
   -3.4453   -2.2628   -6.8182 C   0  0  1  0  0  0  0  0  0  0  0  0
   -3.8440   -1.8144   -5.3898 C   0  0  1  0  0  0  0  0  0  0  0  0
   -2.6840   -1.2399   -4.8064 O   0  0  0  0  0  0  0  0  0  0  0  0
   -5.0331   -0.7993   -5.3340 C   0  0  2  0  0  0  0  0  0  0  0  0
   -7.3416   -0.3542   -6.2263 N   0  3  0  0  0  0  0  0  0  0  0  0
   -0.5454   -5.4306   -5.5693 C   0  0  0  0  0  0  0  0  0  0  0  0
    0.8282   -5.1006   -6.2033 C   0  0  2  0  0  0  0  0  0  0  0  0
    1.7203   -4.7986   -5.1314 O   0  0  0  0  0  0  0  0  0  0  0  0
    0.6760   -3.8678   -7.1720 C   0  0  1  0  0  0  0  0  0  0  0  0
   -0.0967   -2.6715   -6.5192 C   0  0  2  0  0  0  0  0  0  0  0  0
   -1.3737   -3.1045   -5.7553 C   0  0  1  0  0  0  0  0  0  0  0  0
   -2.4726   -3.3371   -6.6750 O   0  0  0  0  0  0  0  0  0  0  0  0
   -1.1126   -4.2642   -4.9152 O   0  0  0  0  0  0  0  0  0  0  0  0
   -0.4516   -1.6891   -7.4888 O   0  0  0  0  0  0  0  0  0  0  0  0
    2.0248   -3.4284   -7.6474 N   0  3  0  0  0  0  0  0  0  0  0  0
    2.9227   -2.8177   -6.6461 C   0  0  0  0  0  0  0  0  0  0  0  0
    1.3669   -6.3709   -6.9064 C   0  0  0  0  0  0  0  0  0  0  0  0
  1  8  1  0  0  0  0
  1  9  1  1  0  0  0
  1  2  1  0  0  0  0
  2  3  1  0  0  0  0
  3  5  1  0  0  0  0
  3  4  1  6  0  0  0
  5  7  1  0  0  0  0
  5  6  1  6  0  0  0
  7  8  1  0  0  0  0
  9 10  1  0  0  0  0
 11 12  1  0  0  0  0
 11 18  1  0  0  0  0
 11 19  1  6  0  0  0
 12 13  1  0  0  0  0
 13 15  1  0  0  0  0
 13 14  1  6  0  0  0
 15 16  1  0  0  0  0
 15 26  1  1  0  0  0
 16 18  1  0  0  0  0
 16 17  1  6  0  0  0
 18  4  1  1  0  0  0
 20 21  1  0  0  0  0
 20 27  1  0  0  0  0
 21 31  1  6  0  0  0
 21 23  1  0  0  0  0
 21 22  1  0  0  0  0
 23 24  1  0  0  0  0
 23 29  1  1  0  0  0
 24 25  1  0  0  0  0
 24 28  1  6  0  0  0
 25 27  1  0  0  0  0
 25 26  1  6  0  0  0
 29 30  1  0  0  0  0
M  CHG  5   6   1  10   1  14   1  19   1  29   1
M  END
>  <CHROM.1>
140.09130360,84.30476167,101.68695326,-57.53700768,138.84806520,-163.67636745
67.26824554,-170.14180807,53.36251313,58.90328801,52.44196916,-68.60067333
-99.35116642,-2.76358483,-2.21620805,-4.97527418,-2.50300983,0.27918340,-1.92183224

>  <Name>
1byj cryst

>  <RI>
0

>  <Rbt.Current_Directory>
/home/itssahil/PROJECTS/Mol_Feturizer/New_Systems/rnas/1byj

>  <Rbt.Executable>
rbdock ($Id: //depot/dev/client3/rdock/2013.1/src/exe/rbdock.cxx#4 $)

>  <Rbt.Library>
libRbt.so (2013.1, Build901 2013/11/27)

>  <Rbt.Parameter_File>
/export/apps/rDock/src/rDock_2013.1_src/data/scripts/dock_solv.prm

>  <Rbt.Receptor>
prm/blind_docking_20.prm

>  <SCORE>
-4.79768

>  <SCORE.INTER>
-16.2962

>  <SCORE.INTER.CONST>
1

>  <SCORE.INTER.POLAR>
-3.25696

>  <SCORE.INTER.ROT>
6

>  <SCORE.INTER.SOLV>
12.7506

>  <SCORE.INTER.VDW>
-11.8578

>  <SCORE.INTER.norm>
-0.525685

>  <SCORE.INTRA>
4.77754

>  <SCORE.INTRA.DIHEDRAL>
4.09392

>  <SCORE.INTRA.DIHEDRAL.0>
18.4149

>  <SCORE.INTRA.POLAR>
-0.0147544

>  <SCORE.INTRA.POLAR.0>
0

>  <SCORE.INTRA.REPUL>
-0.0809242

>  <SCORE.INTRA.REPUL.0>
0.092687

>  <SCORE.INTRA.SOLV>
-4.30358

>  <SCORE.INTRA.SOLV.lig_0>
-120.37

>  <SCORE.INTRA.VDW>
5.33716

>  <SCORE.INTRA.VDW.0>
-1.75542

>  <SCORE.INTRA.norm>
0.154114

>  <SCORE.RESTR>
6.72101

>  <SCORE.RESTR.CAVITY>
6.72101

>  <SCORE.RESTR.norm>
0.216807

>  <SCORE.SYSTEM>
0

>  <SCORE.SYSTEM.CONST>
0

>  <SCORE.SYSTEM.DIHEDRAL>
0

>  <SCORE.SYSTEM.SOLV>
0

>  <SCORE.SYSTEM.norm>
0

>  <SCORE.heavy>
31

>  <SCORE.norm>
-0.154764

>  <RMSD>
13.273

$$$$
1byj cryst
 OpenBabel11021811383D
libRbt.so/2013.1/901 2013/11/27
 31 33  0  0  0  0  0  0  0  0999 V2000
   -4.9145   -3.7961   -7.3584 C   0  0  1  0  0  0  0  0  0  0  0  0
   -4.1480   -2.5565   -7.2240 O   0  0  0  0  0  0  0  0  0  0  0  0
   -3.8491   -2.0603   -5.8849 C   0  0  2  0  0  0  0  0  0  0  0  0
   -2.9099   -2.9387   -5.1899 O   0  0  0  0  0  0  0  0  0  0  0  0
   -5.1770   -1.9135   -5.0815 C   0  0  2  0  0  0  0  0  0  0  0  0
   -4.9740   -1.4148   -3.7070 N   0  3  0  0  0  0  0  0  0  0  0  0
   -5.9375   -3.2645   -5.0592 C   0  0  0  0  0  0  0  0  0  0  0  0
   -6.1989   -3.7741   -6.4846 C   0  0  0  0  0  0  0  0  0  0  0  0
   -5.3071   -3.9967   -8.8327 C   0  0  0  0  0  0  0  0  0  0  0  0
   -4.2883   -3.5382   -9.7861 N   0  3  0  0  0  0  0  0  0  0  0  0
   -1.6136   -4.9901   -5.6164 C   0  0  1  0  0  0  0  0  0  0  0  0
   -0.3439   -5.5837   -6.2737 C   0  0  0  0  0  0  0  0  0  0  0  0
    0.9272   -4.8638   -5.7485 C   0  0  1  0  0  0  0  0  0  0  0  0
    2.1330   -5.4904   -6.3232 N   0  3  0  0  0  0  0  0  0  0  0  0
    0.8552   -3.3423   -6.0671 C   0  0  1  0  0  0  0  0  0  0  0  0
   -0.4486   -2.7059   -5.5237 C   0  0  1  0  0  0  0  0  0  0  0  0
   -0.4857   -1.3744   -6.0156 O   0  0  0  0  0  0  0  0  0  0  0  0
   -1.7582   -3.4632   -5.9222 C   0  0  2  0  0  0  0  0  0  0  0  0
   -2.8042   -5.7468   -6.0421 N   0  3  0  0  0  0  0  0  0  0  0  0
    2.7459   -3.5908   -8.2415 C   0  0  0  0  0  0  0  0  0  0  0  0
    2.1854   -2.5225   -9.2122 C   0  0  2  0  0  0  0  0  0  0  0  0
    3.3001   -1.9641   -9.9062 O   0  0  0  0  0  0  0  0  0  0  0  0
    1.4232   -1.4157   -8.3903 C   0  0  1  0  0  0  0  0  0  0  0  0
    2.2501   -0.8847   -7.1704 C   0  0  2  0  0  0  0  0  0  0  0  0
    2.9235   -2.0098   -6.3442 C   0  0  1  0  0  0  0  0  0  0  0  0
    1.9681   -2.6359   -5.4481 O   0  0  0  0  0  0  0  0  0  0  0  0
    3.5714   -2.9809   -7.2136 O   0  0  0  0  0  0  0  0  0  0  0  0
    1.4454   -0.0935   -6.3000 O   0  0  0  0  0  0  0  0  0  0  0  0
    1.0363   -0.2896   -9.2962 N   0  3  0  0  0  0  0  0  0  0  0  0
    1.9309    0.8855   -9.3251 C   0  0  0  0  0  0  0  0  0  0  0  0
    1.2948   -3.2283  -10.2643 C   0  0  0  0  0  0  0  0  0  0  0  0
  1  8  1  0  0  0  0
  1  9  1  6  0  0  0
  1  2  1  0  0  0  0
  2  3  1  0  0  0  0
  3  5  1  0  0  0  0
  3  4  1  1  0  0  0
  5  7  1  0  0  0  0
  5  6  1  1  0  0  0
  7  8  1  0  0  0  0
  9 10  1  0  0  0  0
 11 12  1  0  0  0  0
 11 18  1  0  0  0  0
 11 19  1  6  0  0  0
 12 13  1  0  0  0  0
 13 15  1  0  0  0  0
 13 14  1  6  0  0  0
 15 16  1  0  0  0  0
 15 26  1  1  0  0  0
 16 18  1  0  0  0  0
 16 17  1  6  0  0  0
 18  4  1  1  0  0  0
 20 21  1  0  0  0  0
 20 27  1  0  0  0  0
 21 31  1  6  0  0  0
 21 23  1  0  0  0  0
 21 22  1  0  0  0  0
 23 24  1  0  0  0  0
 23 29  1  6  0  0  0
 24 25  1  0  0  0  0
 24 28  1  1  0  0  0
 25 27  1  0  0  0  0
 25 26  1  6  0  0  0
 29 30  1  0  0  0  0
M  CHG  5   6   1  10   1  14   1  19   1  29   1
M  END
>  <CHROM.1>
35.51843251,43.02332362,-134.66453775,-162.20893003,-156.21139845,-168.13277860
41.75869109,115.45876433,-155.06538477,60.81303914,24.07651378,-174.50737083
63.93234655,-0.79726754,-2.80477769,-6.95800749,2.85346004,-0.05865426,2.32961677

>  <Name>
1byj cryst

>  <RI>
0

>  <Rbt.Current_Directory>
/home/itssahil/PROJECTS/Mol_Feturizer/New_Systems/rnas/1byj

>  <Rbt.Executable>
rbdock ($Id: //depot/dev/client3/rdock/2013.1/src/exe/rbdock.cxx#4 $)

>  <Rbt.Library>
libRbt.so (2013.1, Build901 2013/11/27)

>  <Rbt.Parameter_File>
/export/apps/rDock/src/rDock_2013.1_src/data/scripts/dock_solv.prm

>  <Rbt.Receptor>
prm/blind_docking_100.prm

>  <SCORE>
-17.3605

>  <SCORE.INTER>
-29.7914

>  <SCORE.INTER.CONST>
1

>  <SCORE.INTER.POLAR>
-4.92719

>  <SCORE.INTER.ROT>
6

>  <SCORE.INTER.SOLV>
30.0796

>  <SCORE.INTER.VDW>
-21.0635

>  <SCORE.INTER.norm>
-0.961012

>  <SCORE.INTRA>
9.02536

>  <SCORE.INTRA.DIHEDRAL>
6.73701

>  <SCORE.INTRA.DIHEDRAL.0>
18.4149

>  <SCORE.INTRA.POLAR>
-0.317584

>  <SCORE.INTRA.POLAR.0>
0

>  <SCORE.INTRA.REPUL>
0.0565489

>  <SCORE.INTRA.REPUL.0>
0.092687

>  <SCORE.INTRA.SOLV>
3.22731

>  <SCORE.INTRA.SOLV.lig_0>
-120.37

>  <SCORE.INTRA.VDW>
4.84024

>  <SCORE.INTRA.VDW.0>
-1.75542

>  <SCORE.INTRA.norm>
0.29114

>  <SCORE.RESTR>
3.40551

>  <SCORE.RESTR.CAVITY>
3.40551

>  <SCORE.RESTR.norm>
0.109855

>  <SCORE.SYSTEM>
0

>  <SCORE.SYSTEM.CONST>
0

>  <SCORE.SYSTEM.DIHEDRAL>
0

>  <SCORE.SYSTEM.SOLV>
0

>  <SCORE.SYSTEM.norm>
0

>  <SCORE.heavy>
31

>  <SCORE.norm>
-0.560016

>  <RMSD>
13.277

$$$$
1byj cryst
 OpenBabel11021811383D
libRbt.so/2013.1/901 2013/11/27
 31 33  0  0  0  0  0  0  0  0999 V2000
   -5.2804   -2.9051   -7.5794 C   0  0  1  0  0  0  0  0  0  0  0  0
   -4.1606   -2.0238   -7.2456 O   0  0  0  0  0  0  0  0  0  0  0  0
   -3.7062   -1.9637   -5.8605 C   0  0  2  0  0  0  0  0  0  0  0  0
   -3.0847   -3.2215   -5.4499 O   0  0  0  0  0  0  0  0  0  0  0  0
   -4.9114   -1.6079   -4.9378 C   0  0  2  0  0  0  0  0  0  0  0  0
   -4.5468   -1.5244   -3.5098 N   0  3  0  0  0  0  0  0  0  0  0  0
   -6.0590   -2.6300   -5.1436 C   0  0  0  0  0  0  0  0  0  0  0  0
   -6.4829   -2.6940   -6.6186 C   0  0  0  0  0  0  0  0  0  0  0  0
   -5.7319   -2.6323   -9.0250 C   0  0  0  0  0  0  0  0  0  0  0  0
   -4.6957   -2.8994  -10.0311 N   0  3  0  0  0  0  0  0  0  0  0  0
   -1.6453   -5.1791   -5.8572 C   0  0  1  0  0  0  0  0  0  0  0  0
   -0.2974   -5.6734   -6.4363 C   0  0  0  0  0  0  0  0  0  0  0  0
    0.8869   -4.9115   -5.7830 C   0  0  1  0  0  0  0  0  0  0  0  0
    2.1667   -5.4459   -6.2863 N   0  3  0  0  0  0  0  0  0  0  0  0
    0.7533   -3.3831   -6.0432 C   0  0  1  0  0  0  0  0  0  0  0  0
   -0.6223   -2.8426   -5.5785 C   0  0  1  0  0  0  0  0  0  0  0  0
   -0.6972   -1.4940   -6.0162 O   0  0  0  0  0  0  0  0  0  0  0  0
   -1.8525   -3.6497   -6.1101 C   0  0  2  0  0  0  0  0  0  0  0  0
   -2.7550   -5.9781   -6.4065 N   0  3  0  0  0  0  0  0  0  0  0  0
    2.9009   -3.4807   -8.0215 C   0  0  0  0  0  0  0  0  0  0  0  0
    2.3466   -2.4471   -9.0324 C   0  0  2  0  0  0  0  0  0  0  0  0
    3.4707   -1.7823   -9.6074 O   0  0  0  0  0  0  0  0  0  0  0  0
    1.4140   -1.4251   -8.2793 C   0  0  1  0  0  0  0  0  0  0  0  0
    2.0683   -0.8472   -6.9786 C   0  0  2  0  0  0  0  0  0  0  0  0
    2.7535   -1.9251   -6.1007 C   0  0  1  0  0  0  0  0  0  0  0  0
    1.7736   -2.6473   -5.3096 O   0  0  0  0  0  0  0  0  0  0  0  0
    3.5656   -2.8209   -6.9112 O   0  0  0  0  0  0  0  0  0  0  0  0
    1.1164   -0.1442   -6.1843 O   0  0  0  0  0  0  0  0  0  0  0  0
    1.0205   -0.3201   -9.2080 N   0  3  0  0  0  0  0  0  0  0  0  0
    1.9203    0.8492   -9.2784 C   0  0  0  0  0  0  0  0  0  0  0  0
    1.6281   -3.2076  -10.1742 C   0  0  0  0  0  0  0  0  0  0  0  0
  1  8  1  0  0  0  0
  1  9  1  6  0  0  0
  1  2  1  0  0  0  0
  2  3  1  0  0  0  0
  3  5  1  0  0  0  0
  3  4  1  1  0  0  0
  5  7  1  0  0  0  0
  5  6  1  1  0  0  0
  7  8  1  0  0  0  0
  9 10  1  0  0  0  0
 11 12  1  0  0  0  0
 11 18  1  0  0  0  0
 11 19  1  6  0  0  0
 12 13  1  0  0  0  0
 13 15  1  0  0  0  0
 13 14  1  6  0  0  0
 15 16  1  0  0  0  0
 15 26  1  1  0  0  0
 16 18  1  0  0  0  0
 16 17  1  6  0  0  0
 18  4  1  1  0  0  0
 20 21  1  0  0  0  0
 20 27  1  0  0  0  0
 21 31  1  6  0  0  0
 21 23  1  0  0  0  0
 21 22  1  0  0  0  0
 23 24  1  0  0  0  0
 23 29  1  6  0  0  0
 24 25  1  0  0  0  0
 24 28  1  1  0  0  0
 25 27  1  0  0  0  0
 25 26  1  6  0  0  0
 29 30  1  0  0  0  0
M  CHG  5   6   1  10   1  14   1  19   1  29   1
M  END
>  <CHROM.1>
61.76057545,64.26343166,-161.71256915,103.79524226,49.25450710,77.62434236
165.05306393,115.77122717,-166.06274131,169.64679701,32.66643091,166.66749063
61.05034462,-0.84970945,-2.65805624,-6.95002619,2.94835874,-0.08289275,2.33710850

>  <Name>
1byj cryst

>  <RI>
0

>  <Rbt.Current_Directory>
/home/itssahil/PROJECTS/Mol_Feturizer/New_Systems/rnas/1byj

>  <Rbt.Executable>
rbdock ($Id: //depot/dev/client3/rdock/2013.1/src/exe/rbdock.cxx#4 $)

>  <Rbt.Library>
libRbt.so (2013.1, Build901 2013/11/27)

>  <Rbt.Parameter_File>
/export/apps/rDock/src/rDock_2013.1_src/data/scripts/dock_solv.prm

>  <Rbt.Receptor>
prm/blind_docking_100.prm

>  <SCORE>
-27.6618

>  <SCORE.INTER>
-38.3836

>  <SCORE.INTER.CONST>
1

>  <SCORE.INTER.POLAR>
-6.7794

>  <SCORE.INTER.ROT>
6

>  <SCORE.INTER.SOLV>
31.8671

>  <SCORE.INTER.VDW>
-21.2134

>  <SCORE.INTER.norm>
-1.23818

>  <SCORE.INTRA>
6.34885

>  <SCORE.INTRA.DIHEDRAL>
-1.06151

>  <SCORE.INTRA.DIHEDRAL.0>
18.4149

>  <SCORE.INTRA.POLAR>
-0.0953401

>  <SCORE.INTRA.POLAR.0>
0

>  <SCORE.INTRA.REPUL>
-0.0782232

>  <SCORE.INTRA.REPUL.0>
0.092687

>  <SCORE.INTRA.SOLV>
0.454155

>  <SCORE.INTRA.SOLV.lig_0>
-120.37

>  <SCORE.INTRA.VDW>
7.3678

>  <SCORE.INTRA.VDW.0>
-1.75542

>  <SCORE.INTRA.norm>
0.204802

>  <SCORE.RESTR>
4.37294

>  <SCORE.RESTR.CAVITY>
4.37294

>  <SCORE.RESTR.norm>
0.141063

>  <SCORE.SYSTEM>
0

>  <SCORE.SYSTEM.CONST>
0

>  <SCORE.SYSTEM.DIHEDRAL>
0

>  <SCORE.SYSTEM.SOLV>
0

>  <SCORE.SYSTEM.norm>
0

>  <SCORE.heavy>
31

>  <SCORE.norm>
-0.892315

>  <RMSD>
13.277

$$$$
1byj cryst
 OpenBabel11021811383D
libRbt.so/2013.1/901 2013/11/27
 31 33  0  0  0  0  0  0  0  0999 V2000
   -4.8272   -4.2018   -7.1832 C   0  0  1  0  0  0  0  0  0  0  0  0
   -3.7681   -3.2483   -7.5168 O   0  0  0  0  0  0  0  0  0  0  0  0
   -3.0795   -2.5591   -6.4308 C   0  0  2  0  0  0  0  0  0  0  0  0
   -2.2609   -3.4839   -5.6489 O   0  0  0  0  0  0  0  0  0  0  0  0
   -4.1290   -1.8412   -5.5287 C   0  0  2  0  0  0  0  0  0  0  0  0
   -3.5229   -1.1131   -4.3967 N   0  3  0  0  0  0  0  0  0  0  0  0
   -5.1767   -2.8624   -5.0155 C   0  0  0  0  0  0  0  0  0  0  0  0
   -5.8515   -3.5955   -6.1846 C   0  0  0  0  0  0  0  0  0  0  0  0
   -5.5602   -4.6219   -8.4694 C   0  0  0  0  0  0  0  0  0  0  0  0
   -4.6898   -5.2542   -9.4693 N   0  3  0  0  0  0  0  0  0  0  0  0
   -0.7023   -5.3597   -5.2981 C   0  0  1  0  0  0  0  0  0  0  0  0
    0.2588   -6.3644   -5.9788 C   0  0  0  0  0  0  0  0  0  0  0  0
    1.3203   -5.6125   -6.8259 C   0  0  1  0  0  0  0  0  0  0  0  0
    2.2755   -6.5764   -7.4050 N   0  3  0  0  0  0  0  0  0  0  0  0
    0.6254   -4.7536   -7.9218 C   0  0  1  0  0  0  0  0  0  0  0  0
   -0.4287   -3.7951   -7.3133 C   0  0  1  0  0  0  0  0  0  0  0  0
   -1.1099   -3.1952   -8.4052 O   0  0  0  0  0  0  0  0  0  0  0  0
   -1.4540   -4.4808   -6.3510 C   0  0  2  0  0  0  0  0  0  0  0  0
   -1.6405   -6.0757   -4.4158 N   0  3  0  0  0  0  0  0  0  0  0  0
    2.8164   -1.2128   -9.2997 C   0  0  0  0  0  0  0  0  0  0  0  0
    2.1773   -0.2161   -8.3018 C   0  0  2  0  0  0  0  0  0  0  0  0
    3.2402    0.3376   -7.5274 O   0  0  0  0  0  0  0  0  0  0  0  0
    1.1511   -0.9799   -7.3826 C   0  0  1  0  0  0  0  0  0  0  0  0
    1.7419   -2.2961   -6.7723 C   0  0  2  0  0  0  0  0  0  0  0  0
    2.5163   -3.1600   -7.7999 C   0  0  1  0  0  0  0  0  0  0  0  0
    1.6007   -3.9300   -8.6224 O   0  0  0  0  0  0  0  0  0  0  0  0
    3.4114   -2.3401   -8.6033 O   0  0  0  0  0  0  0  0  0  0  0  0
    0.7251   -3.0951   -6.1731 O   0  0  0  0  0  0  0  0  0  0  0  0
    0.6652   -0.0681   -6.3006 N   0  3  0  0  0  0  0  0  0  0  0  0
    0.5575   -0.6373   -4.9418 C   0  0  0  0  0  0  0  0  0  0  0  0
    1.5381    0.9449   -9.1027 C   0  0  0  0  0  0  0  0  0  0  0  0
  1  8  1  0  0  0  0
  1  9  1  6  0  0  0
  1  2  1  0  0  0  0
  2  3  1  0  0  0  0
  3  5  1  0  0  0  0
  3  4  1  1  0  0  0
  5  7  1  0  0  0  0
  5  6  1  1  0  0  0
  7  8  1  0  0  0  0
  9 10  1  0  0  0  0
 11 12  1  0  0  0  0
 11 18  1  0  0  0  0
 11 19  1  6  0  0  0
 12 13  1  0  0  0  0
 13 15  1  0  0  0  0
 13 14  1  6  0  0  0
 15 16  1  0  0  0  0
 15 26  1  1  0  0  0
 16 18  1  0  0  0  0
 16 17  1  6  0  0  0
 18  4  1  1  0  0  0
 20 21  1  0  0  0  0
 20 27  1  0  0  0  0
 21 31  1  6  0  0  0
 21 23  1  0  0  0  0
 21 22  1  0  0  0  0
 23 24  1  0  0  0  0
 23 29  1  1  0  0  0
 24 25  1  0  0  0  0
 24 28  1  6  0  0  0
 25 27  1  0  0  0  0
 25 26  1  6  0  0  0
 29 30  1  0  0  0  0
M  CHG  5   6   1  10   1  14   1  19   1  29   1
M  END
>  <CHROM.1>
59.51028688,43.15084911,-178.77390566,-67.46746951,-50.89844702,-77.67211120
-169.29748135,-49.21123382,-54.14147585,-70.93292191,-16.36378906,-138.34993459
-53.30847549,-0.68304396,-3.08590397,-6.98365510,2.82383546,-0.20958641,-3.11439196

>  <Name>
1byj cryst

>  <RI>
0

>  <Rbt.Current_Directory>
/home/itssahil/PROJECTS/Mol_Feturizer/New_Systems/rnas/1byj

>  <Rbt.Executable>
rbdock ($Id: //depot/dev/client3/rdock/2013.1/src/exe/rbdock.cxx#4 $)

>  <Rbt.Library>
libRbt.so (2013.1, Build901 2013/11/27)

>  <Rbt.Parameter_File>
/export/apps/rDock/src/rDock_2013.1_src/data/scripts/dock_solv.prm

>  <Rbt.Receptor>
prm/blind_docking_100.prm

>  <SCORE>
5.36644

>  <SCORE.INTER>
-25.2309

>  <SCORE.INTER.CONST>
1

>  <SCORE.INTER.POLAR>
-5.20852

>  <SCORE.INTER.ROT>
6

>  <SCORE.INTER.SOLV>
32.6494

>  <SCORE.INTER.VDW>
-17.942

>  <SCORE.INTER.norm>
-0.813899

>  <SCORE.INTRA>
22.5509

>  <SCORE.INTRA.DIHEDRAL>
-5.61747

>  <SCORE.INTRA.DIHEDRAL.0>
18.4149

>  <SCORE.INTRA.POLAR>
-0.0167057

>  <SCORE.INTRA.POLAR.0>
0

>  <SCORE.INTRA.REPUL>
-0.0314389

>  <SCORE.INTRA.REPUL.0>
0.092687

>  <SCORE.INTRA.SOLV>
-1.12467

>  <SCORE.INTRA.SOLV.lig_0>
-120.37

>  <SCORE.INTRA.VDW>
26.1359

>  <SCORE.INTRA.VDW.0>
-1.75542

>  <SCORE.INTRA.norm>
0.727447

>  <SCORE.RESTR>
8.04645

>  <SCORE.RESTR.CAVITY>
8.04645

>  <SCORE.RESTR.norm>
0.259563

>  <SCORE.SYSTEM>
0

>  <SCORE.SYSTEM.CONST>
0

>  <SCORE.SYSTEM.DIHEDRAL>
0

>  <SCORE.SYSTEM.SOLV>
0

>  <SCORE.SYSTEM.norm>
0

>  <SCORE.heavy>
31

>  <SCORE.norm>
0.173111

>  <RMSD>
13.289

$$$$
1byj cryst
 OpenBabel11021811383D
libRbt.so/2013.1/901 2013/11/27
 31 33  0  0  0  0  0  0  0  0999 V2000
   -3.5758   -0.7711   -4.7320 C   0  0  1  0  0  0  0  0  0  0  0  0
   -3.6715   -2.2295   -4.8084 O   0  0  0  0  0  0  0  0  0  0  0  0
   -4.2685   -2.8303   -5.9964 C   0  0  2  0  0  0  0  0  0  0  0  0
   -3.4230   -2.6352   -7.1727 O   0  0  0  0  0  0  0  0  0  0  0  0
   -5.6880   -2.2264   -6.2212 C   0  0  2  0  0  0  0  0  0  0  0  0
   -6.3737   -2.7765   -7.4071 N   0  3  0  0  0  0  0  0  0  0  0  0
   -5.5998   -0.6813   -6.3164 C   0  0  0  0  0  0  0  0  0  0  0  0
   -4.9308   -0.0888   -5.0670 C   0  0  0  0  0  0  0  0  0  0  0  0
   -3.1381   -0.3613   -3.3147 C   0  0  0  0  0  0  0  0  0  0  0  0
   -2.0685   -1.1999   -2.7579 N   0  3  0  0  0  0  0  0  0  0  0  0
   -2.6786   -4.9816   -7.0682 C   0  0  1  0  0  0  0  0  0  0  0  0
   -1.4645   -5.9394   -7.1395 C   0  0  0  0  0  0  0  0  0  0  0  0
   -0.3861   -5.5284   -6.1013 C   0  0  1  0  0  0  0  0  0  0  0  0
    0.7290   -6.4942   -6.1262 N   0  3  0  0  0  0  0  0  0  0  0  0
    0.0981   -4.0749   -6.3740 C   0  0  1  0  0  0  0  0  0  0  0  0
   -1.0863   -3.0772   -6.4189 C   0  0  1  0  0  0  0  0  0  0  0  0
   -0.5512   -1.8309   -6.8391 O   0  0  0  0  0  0  0  0  0  0  0  0
   -2.2611   -3.5029   -7.3601 C   0  0  2  0  0  0  0  0  0  0  0  0
   -3.7387   -5.4399   -7.9833 N   0  3  0  0  0  0  0  0  0  0  0  0
    2.3386   -4.2635   -7.9859 C   0  0  0  0  0  0  0  0  0  0  0  0
    2.5103   -2.8981   -8.6957 C   0  0  2  0  0  0  0  0  0  0  0  0
    3.9103   -2.7023   -8.8898 O   0  0  0  0  0  0  0  0  0  0  0  0
    1.9032   -1.7582   -7.7938 C   0  0  1  0  0  0  0  0  0  0  0  0
    2.3859   -1.8365   -6.3055 C   0  0  2  0  0  0  0  0  0  0  0  0
    2.3457   -3.2700   -5.7179 C   0  0  1  0  0  0  0  0  0  0  0  0
    0.9964   -3.6276   -5.3187 O   0  0  0  0  0  0  0  0  0  0  0  0
    2.9105   -4.2338   -6.6510 O   0  0  0  0  0  0  0  0  0  0  0  0
    1.6252   -0.9731   -5.4646 O   0  0  0  0  0  0  0  0  0  0  0  0
    2.2247   -0.4213   -8.3834 N   0  3  0  0  0  0  0  0  0  0  0  0
    1.1593    0.2419   -9.1624 C   0  0  0  0  0  0  0  0  0  0  0  0
    1.8588   -2.9838  -10.0980 C   0  0  0  0  0  0  0  0  0  0  0  0
  1  8  1  0  0  0  0
  1  9  1  1  0  0  0
  1  2  1  0  0  0  0
  2  3  1  0  0  0  0
  3  5  1  0  0  0  0
  3  4  1  6  0  0  0
  5  7  1  0  0  0  0
  5  6  1  6  0  0  0
  7  8  1  0  0  0  0
  9 10  1  0  0  0  0
 11 12  1  0  0  0  0
 11 18  1  0  0  0  0
 11 19  1  6  0  0  0
 12 13  1  0  0  0  0
 13 15  1  0  0  0  0
 13 14  1  6  0  0  0
 15 16  1  0  0  0  0
 15 26  1  1  0  0  0
 16 18  1  0  0  0  0
 16 17  1  6  0  0  0
 18  4  1  1  0  0  0
 20 21  1  0  0  0  0
 20 27  1  0  0  0  0
 21 31  1  6  0  0  0
 21 23  1  0  0  0  0
 21 22  1  0  0  0  0
 23 24  1  0  0  0  0
 23 29  1  6  0  0  0
 24 25  1  0  0  0  0
 24 28  1  1  0  0  0
 25 27  1  0  0  0  0
 25 26  1  6  0  0  0
 29 30  1  0  0  0  0
M  CHG  5   6   1  10   1  14   1  19   1  29   1
M  END
>  <CHROM.1>
42.53387317,79.23597464,44.74628574,-55.05607108,86.61766838,-84.61907605
-32.55388243,119.30111598,84.25865608,154.59401924,-138.80097093,-62.26981662
80.70262126,-0.87967767,-2.75125222,-6.64153776,-2.93989682,-0.21996327,-2.80292672

>  <Name>
1byj cryst

>  <RI>
0

>  <Rbt.Current_Directory>
/home/itssahil/PROJECTS/Mol_Feturizer/New_Systems/rnas/1byj

>  <Rbt.Executable>
rbdock ($Id: //depot/dev/client3/rdock/2013.1/src/exe/rbdock.cxx#4 $)

>  <Rbt.Library>
libRbt.so (2013.1, Build901 2013/11/27)

>  <Rbt.Parameter_File>
/export/apps/rDock/src/rDock_2013.1_src/data/scripts/dock_solv.prm

>  <Rbt.Receptor>
prm/blind_docking_100.prm

>  <SCORE>
-18.0825

>  <SCORE.INTER>
-29.552

>  <SCORE.INTER.CONST>
1

>  <SCORE.INTER.POLAR>
-4.92684

>  <SCORE.INTER.ROT>
6

>  <SCORE.INTER.SOLV>
25.0624

>  <SCORE.INTER.VDW>
-19.2327

>  <SCORE.INTER.norm>
-0.953289

>  <SCORE.INTRA>
6.59183

>  <SCORE.INTRA.DIHEDRAL>
6.94286

>  <SCORE.INTRA.DIHEDRAL.0>
18.4149

>  <SCORE.INTRA.POLAR>
-0.159564

>  <SCORE.INTRA.POLAR.0>
0

>  <SCORE.INTRA.REPUL>
-0.092687

>  <SCORE.INTRA.REPUL.0>
0.092687

>  <SCORE.INTRA.SOLV>
3.72088

>  <SCORE.INTRA.SOLV.lig_0>
-120.37

>  <SCORE.INTRA.VDW>
2.26591

>  <SCORE.INTRA.VDW.0>
-1.75542

>  <SCORE.INTRA.norm>
0.21264

>  <SCORE.RESTR>
4.87764

>  <SCORE.RESTR.CAVITY>
4.87764

>  <SCORE.RESTR.norm>
0.157343

>  <SCORE.SYSTEM>
0

>  <SCORE.SYSTEM.CONST>
0

>  <SCORE.SYSTEM.DIHEDRAL>
0

>  <SCORE.SYSTEM.SOLV>
0

>  <SCORE.SYSTEM.norm>
0

>  <SCORE.heavy>
31

>  <SCORE.norm>
-0.583306

>  <RMSD>
13.289

$$$$
1byj cryst
 OpenBabel11021811383D
libRbt.so/2013.1/901 2013/11/27
 31 33  0  0  0  0  0  0  0  0999 V2000
   -3.7675   -0.1505   -1.3941 C   0  0  1  0  0  0  0  0  0  0  0  0
   -4.0469   -1.3624   -2.1656 O   0  0  0  0  0  0  0  0  0  0  0  0
   -5.3963   -1.5684   -2.6808 C   0  0  2  0  0  0  0  0  0  0  0  0
   -5.7192   -0.6004   -3.7274 O   0  0  0  0  0  0  0  0  0  0  0  0
   -6.4158   -1.4816   -1.5046 C   0  0  2  0  0  0  0  0  0  0  0  0
   -7.8152   -1.6783   -1.9312 N   0  3  0  0  0  0  0  0  0  0  0  0
   -6.2615   -0.1272   -0.7657 C   0  0  0  0  0  0  0  0  0  0  0  0
   -4.8201    0.0715   -0.2731 C   0  0  0  0  0  0  0  0  0  0  0  0
   -2.3685   -0.2582   -0.7623 C   0  0  0  0  0  0  0  0  0  0  0  0
   -2.0748    0.7993    0.2137 N   0  3  0  0  0  0  0  0  0  0  0  0
   -6.2655   -1.2412   -6.0429 C   0  0  1  0  0  0  0  0  0  0  0  0
   -5.6963   -1.5574   -7.4474 C   0  0  0  0  0  0  0  0  0  0  0  0
   -4.6351   -2.6872   -7.3621 C   0  0  1  0  0  0  0  0  0  0  0  0
   -4.1585   -3.0318   -8.7152 N   0  3  0  0  0  0  0  0  0  0  0  0
   -3.4675   -2.2602   -6.4262 C   0  0  1  0  0  0  0  0  0  0  0  0
   -3.9827   -1.8300   -5.0299 C   0  0  1  0  0  0  0  0  0  0  0  0
   -2.8649   -1.3052   -4.3291 O   0  0  0  0  0  0  0  0  0  0  0  0
   -5.1413   -0.7792   -5.0586 C   0  0  2  0  0  0  0  0  0  0  0  0
   -7.3435   -0.2421   -6.1473 N   0  3  0  0  0  0  0  0  0  0  0  0
   -0.0162   -1.6808   -6.5084 C   0  0  0  0  0  0  0  0  0  0  0  0
    1.1520   -2.6221   -6.1249 C   0  0  2  0  0  0  0  0  0  0  0  0
    1.9931   -2.7313   -7.2724 O   0  0  0  0  0  0  0  0  0  0  0  0
    0.5775   -4.0299   -5.7131 C   0  0  1  0  0  0  0  0  0  0  0  0
   -0.4602   -4.5900   -6.7444 C   0  0  2  0  0  0  0  0  0  0  0  0
   -1.4968   -3.5368   -7.2114 C   0  0  1  0  0  0  0  0  0  0  0  0
   -2.5444   -3.3676   -6.2207 O   0  0  0  0  0  0  0  0  0  0  0  0
   -0.8491   -2.2751   -7.5394 O   0  0  0  0  0  0  0  0  0  0  0  0
   -1.1552   -5.7198   -6.2232 O   0  0  0  0  0  0  0  0  0  0  0  0
    1.7018   -4.9973   -5.5170 N   0  3  0  0  0  0  0  0  0  0  0  0
    2.3184   -5.5645   -6.7336 C   0  0  0  0  0  0  0  0  0  0  0  0
    1.9844   -1.9478   -5.0066 C   0  0  0  0  0  0  0  0  0  0  0  0
  1  8  1  0  0  0  0
  1  9  1  1  0  0  0
  1  2  1  0  0  0  0
  2  3  1  0  0  0  0
  3  5  1  0  0  0  0
  3  4  1  6  0  0  0
  5  7  1  0  0  0  0
  5  6  1  6  0  0  0
  7  8  1  0  0  0  0
  9 10  1  0  0  0  0
 11 12  1  0  0  0  0
 11 18  1  0  0  0  0
 11 19  1  6  0  0  0
 12 13  1  0  0  0  0
 13 15  1  0  0  0  0
 13 14  1  6  0  0  0
 15 16  1  0  0  0  0
 15 26  1  1  0  0  0
 16 18  1  0  0  0  0
 16 17  1  1  0  0  0
 18  4  1  1  0  0  0
 20 21  1  0  0  0  0
 20 27  1  0  0  0  0
 21 31  1  1  0  0  0
 21 23  1  0  0  0  0
 21 22  1  0  0  0  0
 23 24  1  0  0  0  0
 23 29  1  6  0  0  0
 24 25  1  0  0  0  0
 24 28  1  1  0  0  0
 25 27  1  0  0  0  0
 25 26  1  1  0  0  0
 29 30  1  0  0  0  0
M  CHG  5   6   1  10   1  14   1  19   1  29   1
M  END
>  <CHROM.1>
-170.31190109,75.61537752,108.05759944,176.53302346,62.82362603,62.11748299
-54.36081963,85.93691355,-79.24286803,-61.36423687,43.32318297,-176.45693204
170.48321042,-2.86045260,-2.08513477,-4.79184896,-2.45505980,0.22593335,-1.93947065

>  <Name>
1byj cryst

>  <RI>
0

>  <Rbt.Current_Directory>
/home/itssahil/PROJECTS/Mol_Feturizer/New_Systems/rnas/1byj

>  <Rbt.Executable>
rbdock ($Id: //depot/dev/client3/rdock/2013.1/src/exe/rbdock.cxx#4 $)

>  <Rbt.Library>
libRbt.so (2013.1, Build901 2013/11/27)

>  <Rbt.Parameter_File>
/export/apps/rDock/src/rDock_2013.1_src/data/scripts/dock_solv.prm

>  <Rbt.Receptor>
prm/blind_docking_20.prm

>  <SCORE>
-8.05323

>  <SCORE.INTER>
-11.9453

>  <SCORE.INTER.CONST>
1

>  <SCORE.INTER.POLAR>
-2.9815

>  <SCORE.INTER.ROT>
6

>  <SCORE.INTER.SOLV>
16.8306

>  <SCORE.INTER.VDW>
-11.2354

>  <SCORE.INTER.norm>
-0.385333

>  <SCORE.INTRA>
-2.12554

>  <SCORE.INTRA.DIHEDRAL>
-4.20436

>  <SCORE.INTRA.DIHEDRAL.0>
18.4149

>  <SCORE.INTRA.POLAR>
0

>  <SCORE.INTRA.POLAR.0>
0

>  <SCORE.INTRA.REPUL>
-0.092687

>  <SCORE.INTRA.REPUL.0>
0.092687

>  <SCORE.INTRA.SOLV>
-3.2072

>  <SCORE.INTRA.SOLV.lig_0>
-120.37

>  <SCORE.INTRA.VDW>
2.04367

>  <SCORE.INTRA.VDW.0>
-1.75542

>  <SCORE.INTRA.norm>
-0.0685658

>  <SCORE.RESTR>
6.01762

>  <SCORE.RESTR.CAVITY>
6.01762

>  <SCORE.RESTR.norm>
0.194117

>  <SCORE.SYSTEM>
0

>  <SCORE.SYSTEM.CONST>
0

>  <SCORE.SYSTEM.DIHEDRAL>
0

>  <SCORE.SYSTEM.SOLV>
0

>  <SCORE.SYSTEM.norm>
0

>  <SCORE.heavy>
31

>  <SCORE.norm>
-0.259782

>  <RMSD>
13.291

$$$$
1byj cryst
 OpenBabel11021811383D
libRbt.so/2013.1/901 2013/11/27
 31 33  0  0  0  0  0  0  0  0999 V2000
    1.2792   -1.6673   -7.2718 C   0  0  1  0  0  0  0  0  0  0  0  0
    0.3563   -2.6222   -7.8869 O   0  0  0  0  0  0  0  0  0  0  0  0
    0.0593   -3.8632   -7.1795 C   0  0  2  0  0  0  0  0  0  0  0  0
   -0.7132   -3.6108   -5.9645 O   0  0  0  0  0  0  0  0  0  0  0  0
    1.3928   -4.6011   -6.8515 C   0  0  2  0  0  0  0  0  0  0  0  0
    1.1921   -5.8743   -6.1320 N   0  3  0  0  0  0  0  0  0  0  0  0
    2.3331   -3.6678   -6.0461 C   0  0  0  0  0  0  0  0  0  0  0  0
    2.5906   -2.3566   -6.8038 C   0  0  0  0  0  0  0  0  0  0  0  0
    1.6212   -0.5615   -8.2859 C   0  0  0  0  0  0  0  0  0  0  0  0
    0.6603   -0.4519   -9.3913 N   0  3  0  0  0  0  0  0  0  0  0  0
   -1.9618   -1.7377   -4.9630 C   0  0  1  0  0  0  0  0  0  0  0  0
   -3.3035   -0.9658   -4.9404 C   0  0  0  0  0  0  0  0  0  0  0  0
   -4.4827   -1.9337   -4.6533 C   0  0  1  0  0  0  0  0  0  0  0  0
   -5.7439   -1.1742   -4.5573 N   0  3  0  0  0  0  0  0  0  0  0  0
   -4.5516   -3.0383   -5.7472 C   0  0  1  0  0  0  0  0  0  0  0  0
   -3.2009   -3.7830   -5.8929 C   0  0  1  0  0  0  0  0  0  0  0  0
   -3.3281   -4.6370   -7.0201 O   0  0  0  0  0  0  0  0  0  0  0  0
   -1.9574   -2.8492   -6.0632 C   0  0  2  0  0  0  0  0  0  0  0  0
   -0.8401   -0.7973   -5.1331 N   0  3  0  0  0  0  0  0  0  0  0  0
   -8.1613   -5.6240   -5.5162 C   0  0  0  0  0  0  0  0  0  0  0  0
   -8.6245   -5.7567   -4.0446 C   0  0  2  0  0  0  0  0  0  0  0  0
   -9.8940   -5.1125   -3.9475 O   0  0  0  0  0  0  0  0  0  0  0  0
   -7.5704   -5.0668   -3.0989 C   0  0  1  0  0  0  0  0  0  0  0  0
   -7.1707   -3.6297   -3.5776 C   0  0  2  0  0  0  0  0  0  0  0  0
   -6.8873   -3.5422   -5.0988 C   0  0  1  0  0  0  0  0  0  0  0  0
   -5.5568   -4.0352   -5.4062 O   0  0  0  0  0  0  0  0  0  0  0  0
   -7.9144   -4.2352   -5.8629 O   0  0  0  0  0  0  0  0  0  0  0  0
   -6.0345   -3.1415   -2.8692 O   0  0  0  0  0  0  0  0  0  0  0  0
   -8.0954   -5.0296   -1.6984 N   0  3  0  0  0  0  0  0  0  0  0  0
   -9.1063   -3.9983   -1.3882 C   0  0  0  0  0  0  0  0  0  0  0  0
   -8.8441   -7.2566   -3.7281 C   0  0  0  0  0  0  0  0  0  0  0  0
  1  8  1  0  0  0  0
  1  9  1  6  0  0  0
  1  2  1  0  0  0  0
  2  3  1  0  0  0  0
  3  5  1  0  0  0  0
  3  4  1  1  0  0  0
  5  7  1  0  0  0  0
  5  6  1  1  0  0  0
  7  8  1  0  0  0  0
  9 10  1  0  0  0  0
 11 12  1  0  0  0  0
 11 18  1  0  0  0  0
 11 19  1  6  0  0  0
 12 13  1  0  0  0  0
 13 15  1  0  0  0  0
 13 14  1  6  0  0  0
 15 16  1  0  0  0  0
 15 26  1  1  0  0  0
 16 18  1  0  0  0  0
 16 17  1  6  0  0  0
 18  4  1  1  0  0  0
 20 21  1  0  0  0  0
 20 27  1  0  0  0  0
 21 31  1  1  0  0  0
 21 23  1  0  0  0  0
 21 22  1  0  0  0  0
 23 24  1  0  0  0  0
 23 29  1  1  0  0  0
 24 25  1  0  0  0  0
 24 28  1  1  0  0  0
 25 27  1  0  0  0  0
 25 26  1  1  0  0  0
 29 30  1  0  0  0  0
M  CHG  5   6   1  10   1  14   1  19   1  29   1
M  END
>  <CHROM.1>
19.28761147,54.08033385,-131.80519679,166.46963759,-17.90084729,55.54123310
-22.81969333,52.62154029,63.17076037,-56.32050166,43.44164686,-55.34586264
-106.32327707,-3.64861643,-3.43222860,-5.38613744,0.22062435,0.37210663,0.01444991

>  <Name>
1byj cryst

>  <RI>
0

>  <Rbt.Current_Directory>
/home/itssahil/PROJECTS/Mol_Feturizer/New_Systems/rnas/1byj

>  <Rbt.Executable>
rbdock ($Id: //depot/dev/client3/rdock/2013.1/src/exe/rbdock.cxx#4 $)

>  <Rbt.Library>
libRbt.so (2013.1, Build901 2013/11/27)

>  <Rbt.Parameter_File>
/export/apps/rDock/src/rDock_2013.1_src/data/scripts/dock_solv.prm

>  <Rbt.Receptor>
prm/blind_docking_100.prm

>  <SCORE>
-25.3501

>  <SCORE.INTER>
-35.4574

>  <SCORE.INTER.CONST>
1

>  <SCORE.INTER.POLAR>
-5.63765

>  <SCORE.INTER.ROT>
6

>  <SCORE.INTER.SOLV>
24.3386

>  <SCORE.INTER.VDW>
-20.559

>  <SCORE.INTER.norm>
-1.14379

>  <SCORE.INTRA>
5.7151

>  <SCORE.INTRA.DIHEDRAL>
5.94839

>  <SCORE.INTRA.DIHEDRAL.0>
18.4149

>  <SCORE.INTRA.POLAR>
-0.7664

>  <SCORE.INTRA.POLAR.0>
0

>  <SCORE.INTRA.REPUL>
-0.092687

>  <SCORE.INTRA.REPUL.0>
0.092687

>  <SCORE.INTRA.SOLV>
3.24475

>  <SCORE.INTRA.SOLV.lig_0>
-120.37

>  <SCORE.INTRA.VDW>
4.18772

>  <SCORE.INTRA.VDW.0>
-1.75542

>  <SCORE.INTRA.norm>
0.184358

>  <SCORE.RESTR>
4.3922

>  <SCORE.RESTR.CAVITY>
4.3922

>  <SCORE.RESTR.norm>
0.141684

>  <SCORE.SYSTEM>
0

>  <SCORE.SYSTEM.CONST>
0

>  <SCORE.SYSTEM.DIHEDRAL>
0

>  <SCORE.SYSTEM.SOLV>
0

>  <SCORE.SYSTEM.norm>
0

>  <SCORE.heavy>
31

>  <SCORE.norm>
-0.817745

>  <RMSD>
13.296

$$$$
1byj cryst
 OpenBabel11021811383D
libRbt.so/2013.1/901 2013/11/27
 31 33  0  0  0  0  0  0  0  0999 V2000
   -5.1226   -3.4293   -7.6038 C   0  0  1  0  0  0  0  0  0  0  0  0
   -4.2157   -2.3265   -7.2819 O   0  0  0  0  0  0  0  0  0  0  0  0
   -3.9270   -2.0445   -5.8798 C   0  0  2  0  0  0  0  0  0  0  0  0
   -3.1417   -3.1174   -5.2726 O   0  0  0  0  0  0  0  0  0  0  0  0
   -5.2661   -1.8277   -5.1115 C   0  0  2  0  0  0  0  0  0  0  0  0
   -5.0739   -1.5351   -3.6775 N   0  3  0  0  0  0  0  0  0  0  0  0
   -6.1890   -3.0604   -5.2926 C   0  0  0  0  0  0  0  0  0  0  0  0
   -6.4377   -3.3496   -6.7805 C   0  0  0  0  0  0  0  0  0  0  0  0
   -5.4603   -3.3914   -9.1046 C   0  0  0  0  0  0  0  0  0  0  0  0
   -6.3551   -4.4721   -9.5392 N   0  3  0  0  0  0  0  0  0  0  0  0
   -1.6557   -5.0522   -5.6175 C   0  0  1  0  0  0  0  0  0  0  0  0
   -0.2961   -5.5324   -6.1808 C   0  0  0  0  0  0  0  0  0  0  0  0
    0.8693   -4.7219   -5.5525 C   0  0  1  0  0  0  0  0  0  0  0  0
    2.1618   -5.2415   -6.0387 N   0  3  0  0  0  0  0  0  0  0  0  0
    0.6994   -3.2062   -5.8613 C   0  0  1  0  0  0  0  0  0  0  0  0
   -0.6889   -2.6842   -5.4138 C   0  0  1  0  0  0  0  0  0  0  0  0
   -0.7957   -1.3524   -5.8944 O   0  0  0  0  0  0  0  0  0  0  0  0
   -1.8992   -3.5370   -5.9191 C   0  0  2  0  0  0  0  0  0  0  0  0
   -2.7458   -5.8945   -6.1407 N   0  3  0  0  0  0  0  0  0  0  0  0
    2.7923   -3.3654   -7.8430 C   0  0  0  0  0  0  0  0  0  0  0  0
    2.2712   -2.3400   -8.8797 C   0  0  2  0  0  0  0  0  0  0  0  0
    3.4159   -1.7295   -9.4738 O   0  0  0  0  0  0  0  0  0  0  0  0
    1.3763   -1.2673   -8.1519 C   0  0  1  0  0  0  0  0  0  0  0  0
    2.0535   -0.6785   -6.8678 C   0  0  2  0  0  0  0  0  0  0  0  0
    2.7036   -1.7561   -5.9633 C   0  0  1  0  0  0  0  0  0  0  0  0
    1.7015   -2.4233   -5.1519 O   0  0  0  0  0  0  0  0  0  0  0  0
    3.4822   -2.7002   -6.7515 O   0  0  0  0  0  0  0  0  0  0  0  0
    1.1284    0.0774   -6.0906 O   0  0  0  0  0  0  0  0  0  0  0  0
    1.0186   -0.1739   -9.1085 N   0  3  0  0  0  0  0  0  0  0  0  0
    1.9935    0.9244   -9.2668 C   0  0  0  0  0  0  0  0  0  0  0  0
    1.5240   -3.1048   -9.9999 C   0  0  0  0  0  0  0  0  0  0  0  0
  1  8  1  0  0  0  0
  1  9  1  6  0  0  0
  1  2  1  0  0  0  0
  2  3  1  0  0  0  0
  3  5  1  0  0  0  0
  3  4  1  1  0  0  0
  5  7  1  0  0  0  0
  5  6  1  1  0  0  0
  7  8  1  0  0  0  0
  9 10  1  0  0  0  0
 11 12  1  0  0  0  0
 11 18  1  0  0  0  0
 11 19  1  6  0  0  0
 12 13  1  0  0  0  0
 13 15  1  0  0  0  0
 13 14  1  6  0  0  0
 15 16  1  0  0  0  0
 15 26  1  1  0  0  0
 16 18  1  0  0  0  0
 16 17  1  6  0  0  0
 18  4  1  1  0  0  0
 20 21  1  0  0  0  0
 20 27  1  0  0  0  0
 21 31  1  6  0  0  0
 21 23  1  0  0  0  0
 21 22  1  0  0  0  0
 23 24  1  0  0  0  0
 23 29  1  6  0  0  0
 24 25  1  0  0  0  0
 24 28  1  1  0  0  0
 25 27  1  0  0  0  0
 25 26  1  6  0  0  0
 29 30  1  0  0  0  0
M  CHG  5   6   1  10   1  14   1  19   1  29   1
M  END
>  <CHROM.1>
179.23175145,53.23425617,-150.10894805,79.53138660,-31.25498579,-153.52923582
47.11966731,112.86863515,80.78349912,76.29445425,35.97307129,77.17906306
64.49274140,-0.97000178,-2.71469534,-6.84363817,2.91892609,0.03007540,2.29590014

>  <Name>
1byj cryst

>  <RI>
0

>  <Rbt.Current_Directory>
/home/itssahil/PROJECTS/Mol_Feturizer/New_Systems/rnas/1byj

>  <Rbt.Executable>
rbdock ($Id: //depot/dev/client3/rdock/2013.1/src/exe/rbdock.cxx#4 $)

>  <Rbt.Library>
libRbt.so (2013.1, Build901 2013/11/27)

>  <Rbt.Parameter_File>
/export/apps/rDock/src/rDock_2013.1_src/data/scripts/dock_solv.prm

>  <Rbt.Receptor>
prm/blind_docking_40.prm

>  <SCORE>
-19.1781

>  <SCORE.INTER>
-29.4702

>  <SCORE.INTER.CONST>
1

>  <SCORE.INTER.POLAR>
-5.12586

>  <SCORE.INTER.ROT>
6

>  <SCORE.INTER.SOLV>
31.3981

>  <SCORE.INTER.VDW>
-20.6266

>  <SCORE.INTER.norm>
-0.950653

>  <SCORE.INTRA>
5.90917

>  <SCORE.INTRA.DIHEDRAL>
3.09529

>  <SCORE.INTRA.DIHEDRAL.0>
18.4149

>  <SCORE.INTRA.POLAR>
-0.80689

>  <SCORE.INTRA.POLAR.0>
0

>  <SCORE.INTRA.REPUL>
-0.092687

>  <SCORE.INTRA.REPUL.0>
0.092687

>  <SCORE.INTRA.SOLV>
1.35566

>  <SCORE.INTRA.SOLV.lig_0>
-120.37

>  <SCORE.INTRA.VDW>
6.89056

>  <SCORE.INTRA.VDW.0>
-1.75542

>  <SCORE.INTRA.norm>
0.190618

>  <SCORE.RESTR>
4.38296

>  <SCORE.RESTR.CAVITY>
4.38296

>  <SCORE.RESTR.norm>
0.141386

>  <SCORE.SYSTEM>
0

>  <SCORE.SYSTEM.CONST>
0

>  <SCORE.SYSTEM.DIHEDRAL>
0

>  <SCORE.SYSTEM.SOLV>
0

>  <SCORE.SYSTEM.norm>
0

>  <SCORE.heavy>
31

>  <SCORE.norm>
-0.618648

>  <RMSD>
13.303

$$$$
1byj cryst
 OpenBabel11021811383D
libRbt.so/2013.1/901 2013/11/27
 31 33  0  0  0  0  0  0  0  0999 V2000
   -5.8106   -3.4647   -6.5396 C   0  0  1  0  0  0  0  0  0  0  0  0
   -4.7101   -2.6312   -7.0256 O   0  0  0  0  0  0  0  0  0  0  0  0
   -3.7961   -2.0421   -6.0529 C   0  0  2  0  0  0  0  0  0  0  0  0
   -2.9825   -3.0661   -5.4000 O   0  0  0  0  0  0  0  0  0  0  0  0
   -4.6136   -1.2257   -5.0063 C   0  0  2  0  0  0  0  0  0  0  0  0
   -3.7695   -0.5893   -3.9760 N   0  3  0  0  0  0  0  0  0  0  0  0
   -5.6844   -2.1308   -4.3442 C   0  0  0  0  0  0  0  0  0  0  0  0
   -6.6019   -2.7636   -5.4011 C   0  0  0  0  0  0  0  0  0  0  0  0
   -6.7669   -3.7781   -7.7038 C   0  0  0  0  0  0  0  0  0  0  0  0
   -6.1270   -4.4769   -8.8260 N   0  3  0  0  0  0  0  0  0  0  0  0
   -1.5985   -5.0757   -5.7411 C   0  0  1  0  0  0  0  0  0  0  0  0
   -0.2861   -5.6341   -6.3431 C   0  0  0  0  0  0  0  0  0  0  0  0
    0.9391   -4.8578   -5.7899 C   0  0  1  0  0  0  0  0  0  0  0  0
    2.1859   -5.4500   -6.3109 N   0  3  0  0  0  0  0  0  0  0  0  0
    0.8228   -3.3463   -6.1414 C   0  0  1  0  0  0  0  0  0  0  0  0
   -0.5212   -2.7485   -5.6552 C   0  0  1  0  0  0  0  0  0  0  0  0
   -0.5898   -1.4289   -6.1748 O   0  0  0  0  0  0  0  0  0  0  0  0
   -1.7879   -3.5612   -6.0823 C   0  0  2  0  0  0  0  0  0  0  0  0
   -2.7454   -5.8839   -6.1914 N   0  3  0  0  0  0  0  0  0  0  0  0
    2.7270   -3.5184   -8.2831 C   0  0  0  0  0  0  0  0  0  0  0  0
    2.1704   -2.4524   -9.2585 C   0  0  2  0  0  0  0  0  0  0  0  0
    3.2901   -1.8764   -9.9296 O   0  0  0  0  0  0  0  0  0  0  0  0
    1.3796   -1.3594   -8.4451 C   0  0  1  0  0  0  0  0  0  0  0  0
    2.1777   -0.8243   -7.2079 C   0  0  2  0  0  0  0  0  0  0  0  0
    2.8505   -1.9450   -6.3752 C   0  0  1  0  0  0  0  0  0  0  0  0
    1.8872   -2.5876   -5.4996 O   0  0  0  0  0  0  0  0  0  0  0  0
    3.5261   -2.9034   -7.2377 O   0  0  0  0  0  0  0  0  0  0  0  0
    1.3476   -0.0477   -6.3482 O   0  0  0  0  0  0  0  0  0  0  0  0
    0.9948   -0.2336   -9.3522 N   0  3  0  0  0  0  0  0  0  0  0  0
    1.9001    0.9327   -9.3949 C   0  0  0  0  0  0  0  0  0  0  0  0
    1.3078   -3.1639  -10.3298 C   0  0  0  0  0  0  0  0  0  0  0  0
  1  8  1  0  0  0  0
  1  9  1  6  0  0  0
  1  2  1  0  0  0  0
  2  3  1  0  0  0  0
  3  5  1  0  0  0  0
  3  4  1  1  0  0  0
  5  7  1  0  0  0  0
  5  6  1  1  0  0  0
  7  8  1  0  0  0  0
  9 10  1  0  0  0  0
 11 12  1  0  0  0  0
 11 18  1  0  0  0  0
 11 19  1  6  0  0  0
 12 13  1  0  0  0  0
 13 15  1  0  0  0  0
 13 14  1  6  0  0  0
 15 16  1  0  0  0  0
 15 26  1  1  0  0  0
 16 18  1  0  0  0  0
 16 17  1  6  0  0  0
 18  4  1  1  0  0  0
 20 21  1  0  0  0  0
 20 27  1  0  0  0  0
 21 31  1  6  0  0  0
 21 23  1  0  0  0  0
 21 22  1  0  0  0  0
 23 24  1  0  0  0  0
 23 29  1  6  0  0  0
 24 25  1  0  0  0  0
 24 28  1  1  0  0  0
 25 27  1  0  0  0  0
 25 26  1  6  0  0  0
 29 30  1  0  0  0  0
M  CHG  5   6   1  10   1  14   1  19   1  29   1
M  END
>  <CHROM.1>
58.98553590,82.11774970,-145.97078194,60.94108351,-114.06439837,-34.64987047
163.91327444,115.38377978,-171.91074047,-85.10463294,26.16671707,71.31022749
66.14249296,-0.92176602,-2.70354979,-6.86710375,2.97230020,-0.22200054,2.95437578

>  <Name>
1byj cryst

>  <RI>
0

>  <Rbt.Current_Directory>
/home/itssahil/PROJECTS/Mol_Feturizer/New_Systems/rnas/1byj

>  <Rbt.Executable>
rbdock ($Id: //depot/dev/client3/rdock/2013.1/src/exe/rbdock.cxx#4 $)

>  <Rbt.Library>
libRbt.so (2013.1, Build901 2013/11/27)

>  <Rbt.Parameter_File>
/export/apps/rDock/src/rDock_2013.1_src/data/scripts/dock_solv.prm

>  <Rbt.Receptor>
prm/blind_docking_40.prm

>  <SCORE>
-16.5699

>  <SCORE.INTER>
-26.9273

>  <SCORE.INTER.CONST>
1

>  <SCORE.INTER.POLAR>
-4.82799

>  <SCORE.INTER.ROT>
6

>  <SCORE.INTER.SOLV>
33.1408

>  <SCORE.INTER.VDW>
-20.5051

>  <SCORE.INTER.norm>
-0.868622

>  <SCORE.INTRA>
5.16529

>  <SCORE.INTRA.DIHEDRAL>
6.84069

>  <SCORE.INTRA.DIHEDRAL.0>
18.4149

>  <SCORE.INTRA.POLAR>
-0.744685

>  <SCORE.INTRA.POLAR.0>
0

>  <SCORE.INTRA.REPUL>
-0.092687

>  <SCORE.INTRA.REPUL.0>
0.092687

>  <SCORE.INTRA.SOLV>
2.06659

>  <SCORE.INTRA.SOLV.lig_0>
-120.37

>  <SCORE.INTRA.VDW>
3.70702

>  <SCORE.INTRA.VDW.0>
-1.75542

>  <SCORE.INTRA.norm>
0.166622

>  <SCORE.RESTR>
5.19212

>  <SCORE.RESTR.CAVITY>
5.19212

>  <SCORE.RESTR.norm>
0.167488

>  <SCORE.SYSTEM>
0

>  <SCORE.SYSTEM.CONST>
0

>  <SCORE.SYSTEM.DIHEDRAL>
0

>  <SCORE.SYSTEM.SOLV>
0

>  <SCORE.SYSTEM.norm>
0

>  <SCORE.heavy>
31

>  <SCORE.norm>
-0.534512

>  <RMSD>
13.310

$$$$
1byj cryst
 OpenBabel11021811383D
libRbt.so/2013.1/901 2013/11/27
 31 33  0  0  0  0  0  0  0  0999 V2000
    1.1111   -1.3110   -7.9593 C   0  0  1  0  0  0  0  0  0  0  0  0
    0.8388   -2.7435   -8.0858 O   0  0  0  0  0  0  0  0  0  0  0  0
    0.2274   -3.4416   -6.9600 C   0  0  2  0  0  0  0  0  0  0  0  0
   -1.1519   -3.0056   -6.7497 O   0  0  0  0  0  0  0  0  0  0  0  0
    1.0885   -3.2100   -5.6812 C   0  0  2  0  0  0  0  0  0  0  0  0
    0.5454   -3.8817   -4.4841 N   0  3  0  0  0  0  0  0  0  0  0  0
    1.2548   -1.6908   -5.4196 C   0  0  0  0  0  0  0  0  0  0  0  0
    1.8638   -0.9843   -6.6401 C   0  0  0  0  0  0  0  0  0  0  0  0
    1.9587   -0.8444   -9.1560 C   0  0  0  0  0  0  0  0  0  0  0  0
    2.1343    0.6120   -9.2272 N   0  3  0  0  0  0  0  0  0  0  0  0
   -2.5113   -3.2307   -8.7922 C   0  0  1  0  0  0  0  0  0  0  0  0
   -3.7268   -3.9329   -9.4450 C   0  0  0  0  0  0  0  0  0  0  0  0
   -5.0051   -3.7109   -8.5927 C   0  0  1  0  0  0  0  0  0  0  0  0
   -6.1691   -4.3184   -9.2656 N   0  3  0  0  0  0  0  0  0  0  0  0
   -4.8016   -4.2789   -7.1583 C   0  0  1  0  0  0  0  0  0  0  0  0
   -3.5360   -3.6910   -6.4853 C   0  0  1  0  0  0  0  0  0  0  0  0
   -3.3579   -4.3993   -5.2676 O   0  0  0  0  0  0  0  0  0  0  0  0
   -2.2371   -3.7778   -7.3529 C   0  0  2  0  0  0  0  0  0  0  0  0
   -1.3270   -3.3595   -9.6595 N   0  3  0  0  0  0  0  0  0  0  0  0
   -6.0015   -1.8897   -4.0497 C   0  0  0  0  0  0  0  0  0  0  0  0
   -7.3031   -2.1843   -3.2644 C   0  0  2  0  0  0  0  0  0  0  0  0
   -6.9185   -2.5286   -1.9342 O   0  0  0  0  0  0  0  0  0  0  0  0
   -8.0728   -3.3740   -3.9526 C   0  0  1  0  0  0  0  0  0  0  0  0
   -7.1492   -4.6019   -4.2581 C   0  0  2  0  0  0  0  0  0  0  0  0
   -5.7890   -4.2096   -4.8889 C   0  0  1  0  0  0  0  0  0  0  0  0
   -5.9352   -3.9425   -6.3084 O   0  0  0  0  0  0  0  0  0  0  0  0
   -5.1895   -3.0867   -4.1828 O   0  0  0  0  0  0  0  0  0  0  0  0
   -7.7974   -5.5425   -5.1103 O   0  0  0  0  0  0  0  0  0  0  0  0
   -9.2332   -3.7849   -3.1023 N   0  3  0  0  0  0  0  0  0  0  0  0
  -10.3233   -4.5266   -3.7682 C   0  0  0  0  0  0  0  0  0  0  0  0
   -8.1359   -0.8815   -3.1801 C   0  0  0  0  0  0  0  0  0  0  0  0
  1  8  1  0  0  0  0
  1  9  1  6  0  0  0
  1  2  1  0  0  0  0
  2  3  1  0  0  0  0
  3  5  1  0  0  0  0
  3  4  1  1  0  0  0
  5  7  1  0  0  0  0
  5  6  1  1  0  0  0
  7  8  1  0  0  0  0
  9 10  1  0  0  0  0
 11 12  1  0  0  0  0
 11 18  1  0  0  0  0
 11 19  1  6  0  0  0
 12 13  1  0  0  0  0
 13 15  1  0  0  0  0
 13 14  1  6  0  0  0
 15 16  1  0  0  0  0
 15 26  1  1  0  0  0
 16 18  1  0  0  0  0
 16 17  1  1  0  0  0
 18  4  1  1  0  0  0
 20 21  1  0  0  0  0
 20 27  1  0  0  0  0
 21 31  1  1  0  0  0
 21 23  1  0  0  0  0
 21 22  1  0  0  0  0
 23 24  1  0  0  0  0
 23 29  1  1  0  0  0
 24 25  1  0  0  0  0
 24 28  1  6  0  0  0
 25 27  1  0  0  0  0
 25 26  1  6  0  0  0
 29 30  1  0  0  0  0
M  CHG  5   6   1  10   1  14   1  19   1  29   1
M  END
>  <CHROM.1>
172.01121976,94.89405147,-88.63024581,83.74995257,91.95500572,-174.43126591
-155.21022319,-170.00526854,-103.63152375,-40.45908550,-79.84257682,-66.54958661
-147.27732169,-3.58310135,-3.09718847,-6.13098136,-0.33028766,0.29297417
1.29044329

>  <Name>
1byj cryst

>  <RI>
0

>  <Rbt.Current_Directory>
/home/itssahil/PROJECTS/Mol_Feturizer/New_Systems/rnas/1byj

>  <Rbt.Executable>
rbdock ($Id: //depot/dev/client3/rdock/2013.1/src/exe/rbdock.cxx#4 $)

>  <Rbt.Library>
libRbt.so (2013.1, Build901 2013/11/27)

>  <Rbt.Parameter_File>
/export/apps/rDock/src/rDock_2013.1_src/data/scripts/dock_solv.prm

>  <Rbt.Receptor>
prm/blind_docking_100.prm

>  <SCORE>
-10.1183

>  <SCORE.INTER>
-22.7804

>  <SCORE.INTER.CONST>
1

>  <SCORE.INTER.POLAR>
-4.06828

>  <SCORE.INTER.ROT>
6

>  <SCORE.INTER.SOLV>
21.9971

>  <SCORE.INTER.VDW>
-16.5584

>  <SCORE.INTER.norm>
-0.734852

>  <SCORE.INTRA>
4.31372

>  <SCORE.INTRA.DIHEDRAL>
8.02733

>  <SCORE.INTRA.DIHEDRAL.0>
18.4149

>  <SCORE.INTRA.POLAR>
-1.64148

>  <SCORE.INTRA.POLAR.0>
0

>  <SCORE.INTRA.REPUL>
-0.092687

>  <SCORE.INTRA.REPUL.0>
0.092687

>  <SCORE.INTRA.SOLV>
-0.72856

>  <SCORE.INTRA.SOLV.lig_0>
-120.37

>  <SCORE.INTRA.VDW>
6.70881

>  <SCORE.INTRA.VDW.0>
-1.75542

>  <SCORE.INTRA.norm>
0.139152

>  <SCORE.RESTR>
8.34842

>  <SCORE.RESTR.CAVITY>
8.34842

>  <SCORE.RESTR.norm>
0.269304

>  <SCORE.SYSTEM>
0

>  <SCORE.SYSTEM.CONST>
0

>  <SCORE.SYSTEM.DIHEDRAL>
0

>  <SCORE.SYSTEM.SOLV>
0

>  <SCORE.SYSTEM.norm>
0

>  <SCORE.heavy>
31

>  <SCORE.norm>
-0.326396

>  <RMSD>
13.323

$$$$
1byj cryst
 OpenBabel11021811383D
libRbt.so/2013.1/901 2013/11/27
 31 33  0  0  0  0  0  0  0  0999 V2000
   -5.3348   -3.2498   -7.3320 C   0  0  1  0  0  0  0  0  0  0  0  0
   -4.2648   -2.2605   -7.1958 O   0  0  0  0  0  0  0  0  0  0  0  0
   -3.7449   -1.9711   -5.8636 C   0  0  2  0  0  0  0  0  0  0  0  0
   -3.0153   -3.1141   -5.3179 O   0  0  0  0  0  0  0  0  0  0  0  0
   -4.9231   -1.5613   -4.9286 C   0  0  2  0  0  0  0  0  0  0  0  0
   -4.4922   -1.2481   -3.5519 N   0  3  0  0  0  0  0  0  0  0  0  0
   -6.0042   -2.6726   -4.9167 C   0  0  0  0  0  0  0  0  0  0  0  0
   -6.4982   -2.9772   -6.3389 C   0  0  0  0  0  0  0  0  0  0  0  0
   -5.8787   -3.2192   -8.7713 C   0  0  0  0  0  0  0  0  0  0  0  0
   -6.8774   -4.2592   -9.0508 N   0  3  0  0  0  0  0  0  0  0  0  0
   -1.5865   -5.0905   -5.6679 C   0  0  1  0  0  0  0  0  0  0  0  0
   -0.2655   -5.6180   -6.2790 C   0  0  0  0  0  0  0  0  0  0  0  0
    0.9448   -4.8126   -5.7349 C   0  0  1  0  0  0  0  0  0  0  0  0
    2.2016   -5.3754   -6.2645 N   0  3  0  0  0  0  0  0  0  0  0  0
    0.7903   -3.3045   -6.0862 C   0  0  1  0  0  0  0  0  0  0  0  0
   -0.5641   -2.7384   -5.5907 C   0  0  1  0  0  0  0  0  0  0  0  0
   -0.6676   -1.4211   -6.1103 O   0  0  0  0  0  0  0  0  0  0  0  0
   -1.8141   -3.5812   -6.0085 C   0  0  2  0  0  0  0  0  0  0  0  0
   -2.7171   -5.9260   -6.1097 N   0  3  0  0  0  0  0  0  0  0  0  0
    2.6710   -3.4868   -8.2265 C   0  0  0  0  0  0  0  0  0  0  0  0
    2.1283   -2.4230   -9.2120 C   0  0  2  0  0  0  0  0  0  0  0  0
    3.2555   -1.8669   -9.8875 O   0  0  0  0  0  0  0  0  0  0  0  0
    1.3504   -1.3130   -8.4092 C   0  0  1  0  0  0  0  0  0  0  0  0
    2.1543   -0.7764   -7.1764 C   0  0  2  0  0  0  0  0  0  0  0  0
    2.8126   -1.8976   -6.3330 C   0  0  1  0  0  0  0  0  0  0  0  0
    1.8409   -2.5204   -5.4522 O   0  0  0  0  0  0  0  0  0  0  0  0
    3.4770   -2.8722   -7.1860 O   0  0  0  0  0  0  0  0  0  0  0  0
    1.3332    0.0181   -6.3244 O   0  0  0  0  0  0  0  0  0  0  0  0
    0.9801   -0.1909   -9.3269 N   0  3  0  0  0  0  0  0  0  0  0  0
    1.9197    0.9458   -9.4095 C   0  0  0  0  0  0  0  0  0  0  0  0
    1.2577   -3.1336  -10.2775 C   0  0  0  0  0  0  0  0  0  0  0  0
  1  8  1  0  0  0  0
  1  9  1  6  0  0  0
  1  2  1  0  0  0  0
  2  3  1  0  0  0  0
  3  5  1  0  0  0  0
  3  4  1  1  0  0  0
  5  7  1  0  0  0  0
  5  6  1  1  0  0  0
  7  8  1  0  0  0  0
  9 10  1  0  0  0  0
 11 12  1  0  0  0  0
 11 18  1  0  0  0  0
 11 19  1  6  0  0  0
 12 13  1  0  0  0  0
 13 15  1  0  0  0  0
 13 14  1  6  0  0  0
 15 16  1  0  0  0  0
 15 26  1  1  0  0  0
 16 18  1  0  0  0  0
 16 17  1  6  0  0  0
 18  4  1  1  0  0  0
 20 21  1  0  0  0  0
 20 27  1  0  0  0  0
 21 31  1  6  0  0  0
 21 23  1  0  0  0  0
 21 22  1  0  0  0  0
 23 24  1  0  0  0  0
 23 29  1  6  0  0  0
 24 25  1  0  0  0  0
 24 28  1  1  0  0  0
 25 27  1  0  0  0  0
 25 26  1  6  0  0  0
 29 30  1  0  0  0  0
M  CHG  5   6   1  10   1  14   1  19   1  29   1
M  END
>  <CHROM.1>
174.81451083,62.40251460,-155.19459010,-78.86460459,-158.00079848,86.13317205
-73.79548057,113.09497629,-57.89895684,-90.80798490,27.91862659,-56.96829497
67.89455339,-0.94995947,-2.69515861,-6.92528416,2.91024631,-0.08052673,2.48036922

>  <Name>
1byj cryst

>  <RI>
0

>  <Rbt.Current_Directory>
/home/itssahil/PROJECTS/Mol_Feturizer/New_Systems/rnas/1byj

>  <Rbt.Executable>
rbdock ($Id: //depot/dev/client3/rdock/2013.1/src/exe/rbdock.cxx#4 $)

>  <Rbt.Library>
libRbt.so (2013.1, Build901 2013/11/27)

>  <Rbt.Parameter_File>
/export/apps/rDock/src/rDock_2013.1_src/data/scripts/dock_solv.prm

>  <Rbt.Receptor>
prm/blind_docking_40.prm

>  <SCORE>
-18.8823

>  <SCORE.INTER>
-25.5841

>  <SCORE.INTER.CONST>
1

>  <SCORE.INTER.POLAR>
-4.82358

>  <SCORE.INTER.ROT>
6

>  <SCORE.INTER.SOLV>
32.2309

>  <SCORE.INTER.VDW>
-19.3211

>  <SCORE.INTER.norm>
-0.825295

>  <SCORE.INTRA>
1.63319

>  <SCORE.INTRA.DIHEDRAL>
1.41261

>  <SCORE.INTRA.DIHEDRAL.0>
18.4149

>  <SCORE.INTRA.POLAR>
-0.999184

>  <SCORE.INTRA.POLAR.0>
0

>  <SCORE.INTRA.REPUL>
-0.092687

>  <SCORE.INTRA.REPUL.0>
0.092687

>  <SCORE.INTRA.SOLV>
0.725776

>  <SCORE.INTRA.SOLV.lig_0>
-120.37

>  <SCORE.INTRA.VDW>
4.42465

>  <SCORE.INTRA.VDW.0>
-1.75542

>  <SCORE.INTRA.norm>
0.0526834

>  <SCORE.RESTR>
5.0687

>  <SCORE.RESTR.CAVITY>
5.0687

>  <SCORE.RESTR.norm>
0.163506

>  <SCORE.SYSTEM>
0

>  <SCORE.SYSTEM.CONST>
0

>  <SCORE.SYSTEM.DIHEDRAL>
0

>  <SCORE.SYSTEM.SOLV>
0

>  <SCORE.SYSTEM.norm>
0

>  <SCORE.heavy>
31

>  <SCORE.norm>
-0.609105

>  <RMSD>
13.337

$$$$
1byj cryst
 OpenBabel11021811383D
libRbt.so/2013.1/901 2013/11/27
 31 33  0  0  0  0  0  0  0  0999 V2000
   -6.5453   -3.6604   -4.9059 C   0  0  1  0  0  0  0  0  0  0  0  0
   -5.7652   -3.3598   -6.1072 O   0  0  0  0  0  0  0  0  0  0  0  0
   -4.5148   -2.6220   -5.9632 C   0  0  2  0  0  0  0  0  0  0  0  0
   -3.5020   -3.4215   -5.2763 O   0  0  0  0  0  0  0  0  0  0  0  0
   -4.7875   -1.2898   -5.2009 C   0  0  2  0  0  0  0  0  0  0  0  0
   -3.5744   -0.4714   -5.0063 N   0  3  0  0  0  0  0  0  0  0  0  0
   -5.4640   -1.5857   -3.8375 C   0  0  0  0  0  0  0  0  0  0  0  0
   -6.7547   -2.3968   -4.0265 C   0  0  0  0  0  0  0  0  0  0  0  0
   -7.9164   -4.2266   -5.3154 C   0  0  0  0  0  0  0  0  0  0  0  0
   -8.6999   -4.7558   -4.1914 N   0  3  0  0  0  0  0  0  0  0  0  0
   -2.1458   -5.2851   -6.1472 C   0  0  1  0  0  0  0  0  0  0  0  0
   -0.7927   -5.6916   -6.7801 C   0  0  0  0  0  0  0  0  0  0  0  0
    0.3876   -5.2208   -5.8885 C   0  0  1  0  0  0  0  0  0  0  0  0
    1.6660   -5.6821   -6.4628 N   0  3  0  0  0  0  0  0  0  0  0  0
    0.3514   -3.6743   -5.7191 C   0  0  1  0  0  0  0  0  0  0  0  0
   -1.0197   -3.1902   -5.1844 C   0  0  1  0  0  0  0  0  0  0  0  0
   -0.9959   -1.7713   -5.2328 O   0  0  0  0  0  0  0  0  0  0  0  0
   -2.2557   -3.7346   -5.9738 C   0  0  2  0  0  0  0  0  0  0  0  0
   -3.2602   -5.8250   -6.9460 N   0  3  0  0  0  0  0  0  0  0  0  0
    2.3433   -3.1850   -7.6553 C   0  0  0  0  0  0  0  0  0  0  0  0
    1.9935   -1.7714   -8.1817 C   0  0  2  0  0  0  0  0  0  0  0  0
    3.2240   -1.1431   -8.5383 O   0  0  0  0  0  0  0  0  0  0  0  0
    1.2545   -0.9593   -7.0523 C   0  0  1  0  0  0  0  0  0  0  0  0
    1.9912   -1.0271   -5.6715 C   0  0  2  0  0  0  0  0  0  0  0  0
    2.4630   -2.4539   -5.2926 C   0  0  1  0  0  0  0  0  0  0  0  0
    1.3620   -3.2395   -4.7650 O   0  0  0  0  0  0  0  0  0  0  0  0
    3.1068   -3.1090   -6.4219 O   0  0  0  0  0  0  0  0  0  0  0  0
    1.1752   -0.5180   -4.6197 O   0  0  0  0  0  0  0  0  0  0  0  0
    1.0750    0.4613   -7.4857 N   0  3  0  0  0  0  0  0  0  0  0  0
    1.3077    0.7616   -8.9131 C   0  0  0  0  0  0  0  0  0  0  0  0
    1.1593   -1.9184   -9.4781 C   0  0  0  0  0  0  0  0  0  0  0  0
  1  8  1  0  0  0  0
  1  9  1  6  0  0  0
  1  2  1  0  0  0  0
  2  3  1  0  0  0  0
  3  5  1  0  0  0  0
  3  4  1  1  0  0  0
  5  7  1  0  0  0  0
  5  6  1  1  0  0  0
  7  8  1  0  0  0  0
  9 10  1  0  0  0  0
 11 12  1  0  0  0  0
 11 18  1  0  0  0  0
 11 19  1  6  0  0  0
 12 13  1  0  0  0  0
 13 15  1  0  0  0  0
 13 14  1  6  0  0  0
 15 16  1  0  0  0  0
 15 26  1  1  0  0  0
 16 18  1  0  0  0  0
 16 17  1  6  0  0  0
 18  4  1  1  0  0  0
 20 21  1  0  0  0  0
 20 27  1  0  0  0  0
 21 31  1  6  0  0  0
 21 23  1  0  0  0  0
 21 22  1  0  0  0  0
 23 24  1  0  0  0  0
 23 29  1  6  0  0  0
 24 25  1  0  0  0  0
 24 28  1  1  0  0  0
 25 27  1  0  0  0  0
 25 26  1  6  0  0  0
 29 30  1  0  0  0  0
M  CHG  5   6   1  10   1  14   1  19   1  29   1
M  END
>  <CHROM.1>
171.04083574,119.32480473,-117.45492910,-170.93304586,-55.29960529,-47.72269788
151.36336813,112.67581415,78.30453344,-122.44526347,134.51146269,58.76690493
72.08338384,-1.38859284,-2.75981191,-6.07319473,2.95941441,-0.25337415,3.13442681

>  <Name>
1byj cryst

>  <RI>
0

>  <Rbt.Current_Directory>
/home/itssahil/PROJECTS/Mol_Feturizer/New_Systems/rnas/1byj

>  <Rbt.Executable>
rbdock ($Id: //depot/dev/client3/rdock/2013.1/src/exe/rbdock.cxx#4 $)

>  <Rbt.Library>
libRbt.so (2013.1, Build901 2013/11/27)

>  <Rbt.Parameter_File>
/export/apps/rDock/src/rDock_2013.1_src/data/scripts/dock_solv.prm

>  <Rbt.Receptor>
prm/blind_docking_100.prm

>  <SCORE>
-5.79597

>  <SCORE.INTER>
-25.9874

>  <SCORE.INTER.CONST>
1

>  <SCORE.INTER.POLAR>
-4.11731

>  <SCORE.INTER.ROT>
6

>  <SCORE.INTER.SOLV>
26.8046

>  <SCORE.INTER.VDW>
-20.1355

>  <SCORE.INTER.norm>
-0.838304

>  <SCORE.INTRA>
16.9797

>  <SCORE.INTRA.DIHEDRAL>
18.2535

>  <SCORE.INTRA.DIHEDRAL.0>
18.4149

>  <SCORE.INTRA.POLAR>
-1.96725

>  <SCORE.INTRA.POLAR.0>
0

>  <SCORE.INTRA.REPUL>
-0.092687

>  <SCORE.INTRA.REPUL.0>
0.092687

>  <SCORE.INTRA.SOLV>
3.4303

>  <SCORE.INTRA.SOLV.lig_0>
-120.37

>  <SCORE.INTRA.VDW>
13.2899

>  <SCORE.INTRA.VDW.0>
-1.75542

>  <SCORE.INTRA.norm>
0.547734

>  <SCORE.RESTR>
3.2117

>  <SCORE.RESTR.CAVITY>
3.2117

>  <SCORE.RESTR.norm>
0.103603

>  <SCORE.SYSTEM>
0

>  <SCORE.SYSTEM.CONST>
0

>  <SCORE.SYSTEM.DIHEDRAL>
0

>  <SCORE.SYSTEM.SOLV>
0

>  <SCORE.SYSTEM.norm>
0

>  <SCORE.heavy>
31

>  <SCORE.norm>
-0.186967

>  <RMSD>
13.356

$$$$
1byj cryst
 OpenBabel11021811383D
libRbt.so/2013.1/901 2013/11/27
 31 33  0  0  0  0  0  0  0  0999 V2000
   -6.0624   -0.9871   -8.0683 C   0  0  1  0  0  0  0  0  0  0  0  0
   -5.8683   -0.5354   -6.6897 O   0  0  0  0  0  0  0  0  0  0  0  0
   -5.1305   -1.3940   -5.7694 C   0  0  2  0  0  0  0  0  0  0  0  0
   -3.7190   -1.4811   -6.1395 O   0  0  0  0  0  0  0  0  0  0  0  0
   -5.7898   -2.8064   -5.7417 C   0  0  2  0  0  0  0  0  0  0  0  0
   -5.1083   -3.7495   -4.8333 N   0  3  0  0  0  0  0  0  0  0  0  0
   -5.8564   -3.3907   -7.1764 C   0  0  0  0  0  0  0  0  0  0  0  0
   -6.6051   -2.4418   -8.1244 C   0  0  0  0  0  0  0  0  0  0  0  0
   -7.0532   -0.0482   -8.7789 C   0  0  0  0  0  0  0  0  0  0  0  0
   -6.8231    1.3761   -8.5036 N   0  3  0  0  0  0  0  0  0  0  0  0
   -2.2152   -1.0885   -4.2277 C   0  0  1  0  0  0  0  0  0  0  0  0
   -1.1366   -1.7062   -3.3049 C   0  0  0  0  0  0  0  0  0  0  0  0
    0.0428   -2.2650   -4.1456 C   0  0  1  0  0  0  0  0  0  0  0  0
    1.0975   -2.7797   -3.2514 N   0  3  0  0  0  0  0  0  0  0  0  0
   -0.4674   -3.3565   -5.1305 C   0  0  1  0  0  0  0  0  0  0  0  0
   -1.6245   -2.8308   -6.0164 C   0  0  1  0  0  0  0  0  0  0  0  0
   -2.1177   -3.9462   -6.7435 O   0  0  0  0  0  0  0  0  0  0  0  0
   -2.7888   -2.1454   -5.2277 C   0  0  2  0  0  0  0  0  0  0  0  0
   -3.2795   -0.4699   -3.4179 N   0  3  0  0  0  0  0  0  0  0  0  0
    2.7441   -3.9060   -8.1959 C   0  0  0  0  0  0  0  0  0  0  0  0
    2.4693   -2.6920   -9.1170 C   0  0  2  0  0  0  0  0  0  0  0  0
    3.6283   -1.8611   -9.0683 O   0  0  0  0  0  0  0  0  0  0  0  0
    1.1999   -1.9169   -8.5982 C   0  0  1  0  0  0  0  0  0  0  0  0
    1.2489   -1.6282   -7.0593 C   0  0  2  0  0  0  0  0  0  0  0  0
    1.6990   -2.8482   -6.2161 C   0  0  1  0  0  0  0  0  0  0  0  0
    0.6009   -3.7786   -6.0257 O   0  0  0  0  0  0  0  0  0  0  0  0
    2.8619   -3.4929   -6.8084 O   0  0  0  0  0  0  0  0  0  0  0  0
   -0.0115   -1.1733   -6.5738 O   0  0  0  0  0  0  0  0  0  0  0  0
    1.0337   -0.6454   -9.3688 N   0  3  0  0  0  0  0  0  0  0  0  0
    1.8879    0.4937   -8.9757 C   0  0  0  0  0  0  0  0  0  0  0  0
    2.3268   -3.1981  -10.5736 C   0  0  0  0  0  0  0  0  0  0  0  0
  1  8  1  0  0  0  0
  1  9  1  1  0  0  0
  1  2  1  0  0  0  0
  2  3  1  0  0  0  0
  3  5  1  0  0  0  0
  3  4  1  6  0  0  0
  5  7  1  0  0  0  0
  5  6  1  1  0  0  0
  7  8  1  0  0  0  0
  9 10  1  0  0  0  0
 11 12  1  0  0  0  0
 11 18  1  0  0  0  0
 11 19  1  1  0  0  0
 12 13  1  0  0  0  0
 13 15  1  0  0  0  0
 13 14  1  1  0  0  0
 15 16  1  0  0  0  0
 15 26  1  6  0  0  0
 16 18  1  0  0  0  0
 16 17  1  1  0  0  0
 18  4  1  6  0  0  0
 20 21  1  0  0  0  0
 20 27  1  0  0  0  0
 21 31  1  6  0  0  0
 21 23  1  0  0  0  0
 21 22  1  0  0  0  0
 23 24  1  0  0  0  0
 23 29  1  6  0  0  0
 24 25  1  0  0  0  0
 24 28  1  1  0  0  0
 25 27  1  0  0  0  0
 25 26  1  6  0  0  0
 29 30  1  0  0  0  0
M  CHG  5   6   1  10   1  14   1  19   1  29   1
M  END
>  <CHROM.1>
43.01845281,171.58266502,-89.64080193,-81.82496741,-67.81999465,58.90010043
174.93384469,-22.45046361,62.23691529,170.01098931,41.54697164,-58.16867372
-71.34530838,-1.57107224,-2.00008699,-6.70043431,3.06024619,-0.17320890,1.86911105

>  <Name>
1byj cryst

>  <RI>
0

>  <Rbt.Current_Directory>
/home/itssahil/PROJECTS/Mol_Feturizer/New_Systems/rnas/1byj

>  <Rbt.Executable>
rbdock ($Id: //depot/dev/client3/rdock/2013.1/src/exe/rbdock.cxx#4 $)

>  <Rbt.Library>
libRbt.so (2013.1, Build901 2013/11/27)

>  <Rbt.Parameter_File>
/export/apps/rDock/src/rDock_2013.1_src/data/scripts/dock_solv.prm

>  <Rbt.Receptor>
prm/blind_docking_20.prm

>  <SCORE>
-14.6815

>  <SCORE.INTER>
-26.2337

>  <SCORE.INTER.CONST>
1

>  <SCORE.INTER.POLAR>
-3.82954

>  <SCORE.INTER.ROT>
6

>  <SCORE.INTER.SOLV>
32.4759

>  <SCORE.INTER.VDW>
-23.1493

>  <SCORE.INTER.norm>
-0.846249

>  <SCORE.INTRA>
7.3477

>  <SCORE.INTRA.DIHEDRAL>
-5.01808

>  <SCORE.INTRA.DIHEDRAL.0>
18.4149

>  <SCORE.INTRA.POLAR>
0

>  <SCORE.INTRA.POLAR.0>
0

>  <SCORE.INTRA.REPUL>
-0.092687

>  <SCORE.INTRA.REPUL.0>
0.092687

>  <SCORE.INTRA.SOLV>
3.4551

>  <SCORE.INTRA.SOLV.lig_0>
-120.37

>  <SCORE.INTRA.VDW>
8.59263

>  <SCORE.INTRA.VDW.0>
-1.75542

>  <SCORE.INTRA.norm>
0.237023

>  <SCORE.RESTR>
4.20455

>  <SCORE.RESTR.CAVITY>
4.20455

>  <SCORE.RESTR.norm>
0.135631

>  <SCORE.SYSTEM>
0

>  <SCORE.SYSTEM.CONST>
0

>  <SCORE.SYSTEM.DIHEDRAL>
0

>  <SCORE.SYSTEM.SOLV>
0

>  <SCORE.SYSTEM.norm>
0

>  <SCORE.heavy>
31

>  <SCORE.norm>
-0.473595

>  <RMSD>
13.383

$$$$
1byj cryst
 OpenBabel11021811383D
libRbt.so/2013.1/901 2013/11/27
 31 33  0  0  0  0  0  0  0  0999 V2000
   -3.7932   -0.0145   -1.3274 C   0  0  1  0  0  0  0  0  0  0  0  0
   -4.0919   -1.2791   -2.0009 O   0  0  0  0  0  0  0  0  0  0  0  0
   -5.4463   -1.5070   -2.4930 C   0  0  2  0  0  0  0  0  0  0  0  0
   -5.7622   -0.6193   -3.6106 O   0  0  0  0  0  0  0  0  0  0  0  0
   -6.4587   -1.3154   -1.3231 C   0  0  2  0  0  0  0  0  0  0  0  0
   -7.8626   -1.5264   -1.7274 N   0  3  0  0  0  0  0  0  0  0  0  0
   -6.2835    0.0903   -0.6927 C   0  0  0  0  0  0  0  0  0  0  0  0
   -4.8373    0.3079   -0.2229 C   0  0  0  0  0  0  0  0  0  0  0  0
   -2.3925   -0.0910   -0.6947 C   0  0  0  0  0  0  0  0  0  0  0  0
   -2.2091   -1.2373    0.2050 N   0  3  0  0  0  0  0  0  0  0  0  0
   -6.2755   -1.2352   -5.9404 C   0  0  1  0  0  0  0  0  0  0  0  0
   -5.6844   -1.6307   -7.3154 C   0  0  0  0  0  0  0  0  0  0  0  0
   -4.7524   -2.8638   -7.1720 C   0  0  1  0  0  0  0  0  0  0  0  0
   -4.2584   -3.2771   -8.4995 N   0  3  0  0  0  0  0  0  0  0  0  0
   -3.5865   -2.5468   -6.1913 C   0  0  1  0  0  0  0  0  0  0  0  0
   -4.1116   -2.0436   -4.8233 C   0  0  1  0  0  0  0  0  0  0  0  0
   -2.9751   -1.6278   -4.0807 O   0  0  0  0  0  0  0  0  0  0  0  0
   -5.1511   -0.8781   -4.9135 C   0  0  2  0  0  0  0  0  0  0  0  0
   -7.2373   -0.1306   -6.1022 N   0  3  0  0  0  0  0  0  0  0  0  0
   -0.5558   -2.0562   -7.1463 C   0  0  0  0  0  0  0  0  0  0  0  0
    0.7608   -2.7243   -6.6795 C   0  0  2  0  0  0  0  0  0  0  0  0
    1.4550   -3.1429   -7.8538 O   0  0  0  0  0  0  0  0  0  0  0  0
    0.4252   -3.9557   -5.7561 C   0  0  1  0  0  0  0  0  0  0  0  0
   -0.6574   -4.9041   -6.3746 C   0  0  2  0  0  0  0  0  0  0  0  0
   -1.8693   -4.1483   -6.9763 C   0  0  1  0  0  0  0  0  0  0  0  0
   -2.7942   -3.7412   -5.9340 O   0  0  0  0  0  0  0  0  0  0  0  0
   -1.4326   -3.0210   -7.7870 O   0  0  0  0  0  0  0  0  0  0  0  0
   -1.1325   -5.8471   -5.4174 O   0  0  0  0  0  0  0  0  0  0  0  0
    1.6778   -4.7139   -5.4490 N   0  3  0  0  0  0  0  0  0  0  0  0
    2.3257   -5.4218   -6.5720 C   0  0  0  0  0  0  0  0  0  0  0  0
    1.6382   -1.6555   -5.9825 C   0  0  0  0  0  0  0  0  0  0  0  0
  1  8  1  0  0  0  0
  1  9  1  1  0  0  0
  1  2  1  0  0  0  0
  2  3  1  0  0  0  0
  3  5  1  0  0  0  0
  3  4  1  6  0  0  0
  5  7  1  0  0  0  0
  5  6  1  6  0  0  0
  7  8  1  0  0  0  0
  9 10  1  0  0  0  0
 11 12  1  0  0  0  0
 11 18  1  0  0  0  0
 11 19  1  6  0  0  0
 12 13  1  0  0  0  0
 13 15  1  0  0  0  0
 13 14  1  6  0  0  0
 15 16  1  0  0  0  0
 15 26  1  1  0  0  0
 16 18  1  0  0  0  0
 16 17  1  1  0  0  0
 18  4  1  1  0  0  0
 20 21  1  0  0  0  0
 20 27  1  0  0  0  0
 21 31  1  1  0  0  0
 21 23  1  0  0  0  0
 21 22  1  0  0  0  0
 23 24  1  0  0  0  0
 23 29  1  6  0  0  0
 24 25  1  0  0  0  0
 24 28  1  1  0  0  0
 25 27  1  0  0  0  0
 25 26  1  1  0  0  0
 29 30  1  0  0  0  0
M  CHG  5   6   1  10   1  14   1  19   1  29   1
M  END
>  <CHROM.1>
-54.48392721,73.20984610,115.89053188,178.70364715,53.23947641,62.88377460
-156.95579783,76.82574190,-67.49287061,57.08296351,53.35794300,-53.76893018
151.55479165,-2.99397367,-2.23968035,-4.73863150,-2.43163803,0.28802126,-1.86303353

>  <Name>
1byj cryst

>  <RI>
0

>  <Rbt.Current_Directory>
/home/itssahil/PROJECTS/Mol_Feturizer/New_Systems/rnas/1byj

>  <Rbt.Executable>
rbdock ($Id: //depot/dev/client3/rdock/2013.1/src/exe/rbdock.cxx#4 $)

>  <Rbt.Library>
libRbt.so (2013.1, Build901 2013/11/27)

>  <Rbt.Parameter_File>
/export/apps/rDock/src/rDock_2013.1_src/data/scripts/dock_solv.prm

>  <Rbt.Receptor>
prm/blind_docking_20.prm

>  <SCORE>
-15.4837

>  <SCORE.INTER>
-20.2656

>  <SCORE.INTER.CONST>
1

>  <SCORE.INTER.POLAR>
-4.92506

>  <SCORE.INTER.ROT>
6

>  <SCORE.INTER.SOLV>
19.2216

>  <SCORE.INTER.VDW>
-11.1007

>  <SCORE.INTER.norm>
-0.653729

>  <SCORE.INTRA>
-0.442394

>  <SCORE.INTRA.DIHEDRAL>
-3.49195

>  <SCORE.INTRA.DIHEDRAL.0>
18.4149

>  <SCORE.INTRA.POLAR>
-0.334157

>  <SCORE.INTRA.POLAR.0>
0

>  <SCORE.INTRA.REPUL>
-0.092687

>  <SCORE.INTRA.REPUL.0>
0.092687

>  <SCORE.INTRA.SOLV>
-1.19047

>  <SCORE.INTRA.SOLV.lig_0>
-120.37

>  <SCORE.INTRA.VDW>
3.49839

>  <SCORE.INTRA.VDW.0>
-1.75542

>  <SCORE.INTRA.norm>
-0.0142708

>  <SCORE.RESTR>
5.2243

>  <SCORE.RESTR.CAVITY>
5.2243

>  <SCORE.RESTR.norm>
0.168526

>  <SCORE.SYSTEM>
0

>  <SCORE.SYSTEM.CONST>
0

>  <SCORE.SYSTEM.DIHEDRAL>
0

>  <SCORE.SYSTEM.SOLV>
0

>  <SCORE.SYSTEM.norm>
0

>  <SCORE.heavy>
31

>  <SCORE.norm>
-0.499474

>  <RMSD>
13.399

$$$$
1byj cryst
 OpenBabel11021811383D
libRbt.so/2013.1/901 2013/11/27
 31 33  0  0  0  0  0  0  0  0999 V2000
   -3.4512   -1.0765   -4.9078 C   0  0  1  0  0  0  0  0  0  0  0  0
   -4.0088   -2.4171   -5.0918 O   0  0  0  0  0  0  0  0  0  0  0  0
   -4.7563   -2.7028   -6.3117 C   0  0  2  0  0  0  0  0  0  0  0  0
   -3.8824   -2.7000   -7.4835 O   0  0  0  0  0  0  0  0  0  0  0  0
   -5.9050   -1.6606   -6.4681 C   0  0  2  0  0  0  0  0  0  0  0  0
   -6.7203   -1.8701   -7.6807 N   0  3  0  0  0  0  0  0  0  0  0  0
   -5.3252   -0.2227   -6.4486 C   0  0  0  0  0  0  0  0  0  0  0  0
   -4.5128    0.0273   -5.1692 C   0  0  0  0  0  0  0  0  0  0  0  0
   -2.9179   -0.9376   -3.4710 C   0  0  0  0  0  0  0  0  0  0  0  0
   -3.9672   -0.9604   -2.4435 N   0  3  0  0  0  0  0  0  0  0  0  0
   -3.2201   -5.0708   -7.3792 C   0  0  1  0  0  0  0  0  0  0  0  0
   -2.0343   -6.0613   -7.2816 C   0  0  0  0  0  0  0  0  0  0  0  0
   -1.1581   -5.7396   -6.0412 C   0  0  1  0  0  0  0  0  0  0  0  0
   -0.0783   -6.7373   -5.9167 N   0  3  0  0  0  0  0  0  0  0  0  0
   -0.6011   -4.2897   -6.1365 C   0  0  1  0  0  0  0  0  0  0  0  0
   -1.7353   -3.2543   -6.3405 C   0  0  1  0  0  0  0  0  0  0  0  0
   -1.1054   -2.0051   -6.5830 O   0  0  0  0  0  0  0  0  0  0  0  0
   -2.7246   -3.5927   -7.5041 C   0  0  2  0  0  0  0  0  0  0  0  0
   -4.1022   -5.4468   -8.4981 N   0  3  0  0  0  0  0  0  0  0  0  0
    1.8315   -4.3105   -7.3925 C   0  0  0  0  0  0  0  0  0  0  0  0
    2.2458   -2.8839   -7.8290 C   0  0  2  0  0  0  0  0  0  0  0  0
    3.6696   -2.8233   -7.7583 O   0  0  0  0  0  0  0  0  0  0  0  0
    1.5896   -1.8281   -6.8614 C   0  0  1  0  0  0  0  0  0  0  0  0
    1.7904   -2.1807   -5.3484 C   0  0  2  0  0  0  0  0  0  0  0  0
    1.5208   -3.6713   -5.0206 C   0  0  1  0  0  0  0  0  0  0  0  0
    0.0960   -3.9270   -4.9105 O   0  0  0  0  0  0  0  0  0  0  0  0
    2.1565   -4.5446   -5.9963 O   0  0  0  0  0  0  0  0  0  0  0  0
    0.9704   -1.3699   -4.5108 O   0  0  0  0  0  0  0  0  0  0  0  0
    2.1268   -0.4644   -7.1615 N   0  3  0  0  0  0  0  0  0  0  0  0
    1.4539    0.3012   -8.2305 C   0  0  0  0  0  0  0  0  0  0  0  0
    1.8499   -2.6857   -9.3130 C   0  0  0  0  0  0  0  0  0  0  0  0
  1  8  1  0  0  0  0
  1  9  1  1  0  0  0
  1  2  1  0  0  0  0
  2  3  1  0  0  0  0
  3  5  1  0  0  0  0
  3  4  1  6  0  0  0
  5  7  1  0  0  0  0
  5  6  1  6  0  0  0
  7  8  1  0  0  0  0
  9 10  1  0  0  0  0
 11 12  1  0  0  0  0
 11 18  1  0  0  0  0
 11 19  1  6  0  0  0
 12 13  1  0  0  0  0
 13 15  1  0  0  0  0
 13 14  1  6  0  0  0
 15 16  1  0  0  0  0
 15 26  1  1  0  0  0
 16 18  1  0  0  0  0
 16 17  1  6  0  0  0
 18  4  1  1  0  0  0
 20 21  1  0  0  0  0
 20 27  1  0  0  0  0
 21 31  1  6  0  0  0
 21 23  1  0  0  0  0
 21 22  1  0  0  0  0
 23 24  1  0  0  0  0
 23 29  1  1  0  0  0
 24 25  1  0  0  0  0
 24 28  1  1  0  0  0
 25 27  1  0  0  0  0
 25 26  1  6  0  0  0
 29 30  1  0  0  0  0
M  CHG  5   6   1  10   1  14   1  19   1  29   1
M  END
>  <CHROM.1>
-67.32073057,56.48905558,60.12105087,174.34468569,-58.37324592,-84.11018566
96.21821517,115.64228176,178.99257374,61.45446054,-153.09483946,-26.39507742
88.94072043,-1.31524692,-2.80291597,-6.36873576,-2.94654681,-0.06314365,-2.75415846

>  <Name>
1byj cryst

>  <RI>
0

>  <Rbt.Current_Directory>
/home/itssahil/PROJECTS/Mol_Feturizer/New_Systems/rnas/1byj

>  <Rbt.Executable>
rbdock ($Id: //depot/dev/client3/rdock/2013.1/src/exe/rbdock.cxx#4 $)

>  <Rbt.Library>
libRbt.so (2013.1, Build901 2013/11/27)

>  <Rbt.Parameter_File>
/export/apps/rDock/src/rDock_2013.1_src/data/scripts/dock_solv.prm

>  <Rbt.Receptor>
prm/blind_docking_20.prm

>  <SCORE>
-24.7444

>  <SCORE.INTER>
-30.9589

>  <SCORE.INTER.CONST>
1

>  <SCORE.INTER.POLAR>
-4.96191

>  <SCORE.INTER.ROT>
6

>  <SCORE.INTER.SOLV>
26.5953

>  <SCORE.INTER.VDW>
-20.5647

>  <SCORE.INTER.norm>
-0.998674

>  <SCORE.INTRA>
2.79142

>  <SCORE.INTRA.DIHEDRAL>
1.92714

>  <SCORE.INTRA.DIHEDRAL.0>
18.4149

>  <SCORE.INTRA.POLAR>
-0.294672

>  <SCORE.INTRA.POLAR.0>
0

>  <SCORE.INTRA.REPUL>
-0.092687

>  <SCORE.INTRA.REPUL.0>
0.092687

>  <SCORE.INTRA.SOLV>
1.55021

>  <SCORE.INTRA.SOLV.lig_0>
-120.37

>  <SCORE.INTRA.VDW>
2.51806

>  <SCORE.INTRA.VDW.0>
-1.75542

>  <SCORE.INTRA.norm>
0.0900459

>  <SCORE.RESTR>
3.42305

>  <SCORE.RESTR.CAVITY>
3.42305

>  <SCORE.RESTR.norm>
0.110421

>  <SCORE.SYSTEM>
0

>  <SCORE.SYSTEM.CONST>
0

>  <SCORE.SYSTEM.DIHEDRAL>
0

>  <SCORE.SYSTEM.SOLV>
0

>  <SCORE.SYSTEM.norm>
0

>  <SCORE.heavy>
31

>  <SCORE.norm>
-0.798208

>  <RMSD>
13.408

$$$$
1byj cryst
 OpenBabel11021811383D
libRbt.so/2013.1/901 2013/11/27
 31 33  0  0  0  0  0  0  0  0999 V2000
    0.8677   -1.2764   -7.1858 C   0  0  1  0  0  0  0  0  0  0  0  0
    0.4475   -2.4247   -7.9902 O   0  0  0  0  0  0  0  0  0  0  0  0
   -0.2918   -3.5014   -7.3401 C   0  0  2  0  0  0  0  0  0  0  0  0
   -1.6242   -3.0602   -6.9315 O   0  0  0  0  0  0  0  0  0  0  0  0
    0.5242   -4.0221   -6.1180 C   0  0  2  0  0  0  0  0  0  0  0  0
   -0.1480   -5.1185   -5.3934 N   0  3  0  0  0  0  0  0  0  0  0  0
    0.8419   -2.8512   -5.1525 C   0  0  0  0  0  0  0  0  0  0  0  0
    1.5846   -1.7212   -5.8812 C   0  0  0  0  0  0  0  0  0  0  0  0
    1.8199   -0.3944   -8.0126 C   0  0  0  0  0  0  0  0  0  0  0  0
    1.1988    0.1917   -9.2076 N   0  3  0  0  0  0  0  0  0  0  0  0
   -3.1093   -3.3372   -8.8778 C   0  0  1  0  0  0  0  0  0  0  0  0
   -4.4046   -3.9964   -9.4108 C   0  0  0  0  0  0  0  0  0  0  0  0
   -5.6146   -3.6206   -8.5138 C   0  0  1  0  0  0  0  0  0  0  0  0
   -6.8534   -4.1908   -9.0767 N   0  3  0  0  0  0  0  0  0  0  0  0
   -5.3691   -4.0941   -7.0519 C   0  0  1  0  0  0  0  0  0  0  0  0
   -4.0305   -3.5508   -6.4925 C   0  0  1  0  0  0  0  0  0  0  0  0
   -3.8322   -4.1781   -5.2343 O   0  0  0  0  0  0  0  0  0  0  0  0
   -2.7917   -3.7947   -7.4163 C   0  0  2  0  0  0  0  0  0  0  0  0
   -1.9875   -3.6147   -9.7921 N   0  3  0  0  0  0  0  0  0  0  0  0
   -5.6997   -2.4259   -3.4578 C   0  0  0  0  0  0  0  0  0  0  0  0
   -7.0460   -2.2430   -2.7150 C   0  0  2  0  0  0  0  0  0  0  0  0
   -6.9871   -3.0509   -1.5403 O   0  0  0  0  0  0  0  0  0  0  0  0
   -8.2278   -2.6985   -3.6516 C   0  0  1  0  0  0  0  0  0  0  0  0
   -7.9788   -4.0979   -4.3102 C   0  0  2  0  0  0  0  0  0  0  0  0
   -6.5479   -4.2657   -4.8814 C   0  0  1  0  0  0  0  0  0  0  0  0
   -6.4274   -3.6152   -6.1737 O   0  0  0  0  0  0  0  0  0  0  0  0
   -5.5484   -3.7888   -3.9367 O   0  0  0  0  0  0  0  0  0  0  0  0
   -8.9215   -4.3617   -5.3461 O   0  0  0  0  0  0  0  0  0  0  0  0
   -9.5115   -2.6976   -2.8832 N   0  3  0  0  0  0  0  0  0  0  0  0
  -10.2087   -1.4029   -2.7435 C   0  0  0  0  0  0  0  0  0  0  0  0
   -7.1610   -0.7690   -2.2544 C   0  0  0  0  0  0  0  0  0  0  0  0
  1  8  1  0  0  0  0
  1  9  1  6  0  0  0
  1  2  1  0  0  0  0
  2  3  1  0  0  0  0
  3  5  1  0  0  0  0
  3  4  1  1  0  0  0
  5  7  1  0  0  0  0
  5  6  1  1  0  0  0
  7  8  1  0  0  0  0
  9 10  1  0  0  0  0
 11 12  1  0  0  0  0
 11 18  1  0  0  0  0
 11 19  1  6  0  0  0
 12 13  1  0  0  0  0
 13 15  1  0  0  0  0
 13 14  1  6  0  0  0
 15 16  1  0  0  0  0
 15 26  1  1  0  0  0
 16 18  1  0  0  0  0
 16 17  1  1  0  0  0
 18  4  1  1  0  0  0
 20 21  1  0  0  0  0
 20 27  1  0  0  0  0
 21 31  1  1  0  0  0
 21 23  1  0  0  0  0
 21 22  1  0  0  0  0
 23 24  1  0  0  0  0
 23 29  1  1  0  0  0
 24 25  1  0  0  0  0
 24 28  1  6  0  0  0
 25 27  1  0  0  0  0
 25 26  1  6  0  0  0
 29 30  1  0  0  0  0
M  CHG  5   6   1  10   1  14   1  19   1  29   1
M  END
>  <CHROM.1>
63.15604609,123.64997537,-79.91188376,-60.84981755,-83.95694063,176.90465612
-52.09085329,163.40462800,-166.54870392,44.55198900,-156.40444115,-175.40385776
-157.07158901,-3.98842906,-3.04250280,-5.96989174,-0.39738300,0.19725364
1.29367007

>  <Name>
1byj cryst

>  <RI>
0

>  <Rbt.Current_Directory>
/home/itssahil/PROJECTS/Mol_Feturizer/New_Systems/rnas/1byj

>  <Rbt.Executable>
rbdock ($Id: //depot/dev/client3/rdock/2013.1/src/exe/rbdock.cxx#4 $)

>  <Rbt.Library>
libRbt.so (2013.1, Build901 2013/11/27)

>  <Rbt.Parameter_File>
/export/apps/rDock/src/rDock_2013.1_src/data/scripts/dock_solv.prm

>  <Rbt.Receptor>
prm/blind_docking_40.prm

>  <SCORE>
-21.1509

>  <SCORE.INTER>
-28.2134

>  <SCORE.INTER.CONST>
1

>  <SCORE.INTER.POLAR>
-4.74708

>  <SCORE.INTER.ROT>
6

>  <SCORE.INTER.SOLV>
20.2764

>  <SCORE.INTER.VDW>
-17.3441

>  <SCORE.INTER.norm>
-0.91011

>  <SCORE.INTRA>
0.431788

>  <SCORE.INTRA.DIHEDRAL>
-1.09865

>  <SCORE.INTRA.DIHEDRAL.0>
18.4149

>  <SCORE.INTRA.POLAR>
-0.776555

>  <SCORE.INTRA.POLAR.0>
0

>  <SCORE.INTRA.REPUL>
-0.092687

>  <SCORE.INTRA.REPUL.0>
0.092687

>  <SCORE.INTRA.SOLV>
-1.86879

>  <SCORE.INTRA.SOLV.lig_0>
-120.37

>  <SCORE.INTRA.VDW>
5.01923

>  <SCORE.INTRA.VDW.0>
-1.75542

>  <SCORE.INTRA.norm>
0.0139287

>  <SCORE.RESTR>
6.63071

>  <SCORE.RESTR.CAVITY>
6.63071

>  <SCORE.RESTR.norm>
0.213894

>  <SCORE.SYSTEM>
0

>  <SCORE.SYSTEM.CONST>
0

>  <SCORE.SYSTEM.DIHEDRAL>
0

>  <SCORE.SYSTEM.SOLV>
0

>  <SCORE.SYSTEM.norm>
0

>  <SCORE.heavy>
31

>  <SCORE.norm>
-0.682288

>  <RMSD>
13.418

$$$$
1byj cryst
 OpenBabel11021811383D
libRbt.so/2013.1/901 2013/11/27
 31 33  0  0  0  0  0  0  0  0999 V2000
    0.7187   -2.1060   -7.3061 C   0  0  1  0  0  0  0  0  0  0  0  0
   -0.5213   -2.7991   -7.6584 O   0  0  0  0  0  0  0  0  0  0  0  0
   -1.1809   -3.6129   -6.6428 C   0  0  2  0  0  0  0  0  0  0  0  0
   -1.7268   -2.7841   -5.5696 O   0  0  0  0  0  0  0  0  0  0  0  0
   -0.1688   -4.6581   -6.0828 C   0  0  2  0  0  0  0  0  0  0  0  0
   -0.7488   -5.5315   -5.0437 N   0  3  0  0  0  0  0  0  0  0  0  0
    1.0937   -3.9391   -5.5413 C   0  0  0  0  0  0  0  0  0  0  0  0
    1.7371   -3.0621   -6.6259 C   0  0  0  0  0  0  0  0  0  0  0  0
    1.3510   -1.5123   -8.5772 C   0  0  0  0  0  0  0  0  0  0  0  0
    0.3713   -1.1022   -9.5918 N   0  3  0  0  0  0  0  0  0  0  0  0
   -3.0534   -0.8854   -4.7295 C   0  0  1  0  0  0  0  0  0  0  0  0
   -4.3651   -0.0779   -4.8838 C   0  0  0  0  0  0  0  0  0  0  0  0
   -5.5971   -1.0159   -4.7725 C   0  0  1  0  0  0  0  0  0  0  0  0
   -6.8397   -0.2235   -4.8431 N   0  3  0  0  0  0  0  0  0  0  0  0
   -5.5425   -2.1104   -5.8773 C   0  0  1  0  0  0  0  0  0  0  0  0
   -4.2042   -2.8900   -5.8435 C   0  0  1  0  0  0  0  0  0  0  0  0
   -4.1963   -3.7322   -6.9866 O   0  0  0  0  0  0  0  0  0  0  0  0
   -2.9256   -1.9887   -5.8306 C   0  0  2  0  0  0  0  0  0  0  0  0
   -1.8953    0.0257   -4.7333 N   0  3  0  0  0  0  0  0  0  0  0  0
   -6.6770   -3.2045   -2.6393 C   0  0  0  0  0  0  0  0  0  0  0  0
   -7.8624   -4.1379   -2.2909 C   0  0  2  0  0  0  0  0  0  0  0  0
   -7.3219   -5.2499   -1.5786 O   0  0  0  0  0  0  0  0  0  0  0  0
   -8.5662   -4.6095   -3.6189 C   0  0  1  0  0  0  0  0  0  0  0  0
   -7.5535   -5.1382   -4.6908 C   0  0  2  0  0  0  0  0  0  0  0  0
   -6.3058   -4.2347   -4.8601 C   0  0  1  0  0  0  0  0  0  0  0  0
   -6.6104   -3.0823   -5.6889 O   0  0  0  0  0  0  0  0  0  0  0  0
   -5.7619   -3.8463   -3.5669 O   0  0  0  0  0  0  0  0  0  0  0  0
   -8.1778   -5.3031   -5.9613 O   0  0  0  0  0  0  0  0  0  0  0  0
   -9.5936   -5.6507   -3.3046 N   0  3  0  0  0  0  0  0  0  0  0  0
   -9.1012   -7.0124   -3.0128 C   0  0  0  0  0  0  0  0  0  0  0  0
   -8.8135   -3.3903   -1.3242 C   0  0  0  0  0  0  0  0  0  0  0  0
  1  8  1  0  0  0  0
  1  9  1  6  0  0  0
  1  2  1  0  0  0  0
  2  3  1  0  0  0  0
  3  5  1  0  0  0  0
  3  4  1  1  0  0  0
  5  7  1  0  0  0  0
  5  6  1  1  0  0  0
  7  8  1  0  0  0  0
  9 10  1  0  0  0  0
 11 12  1  0  0  0  0
 11 18  1  0  0  0  0
 11 19  1  6  0  0  0
 12 13  1  0  0  0  0
 13 15  1  0  0  0  0
 13 14  1  6  0  0  0
 15 16  1  0  0  0  0
 15 26  1  1  0  0  0
 16 18  1  0  0  0  0
 16 17  1  6  0  0  0
 18  4  1  1  0  0  0
 20 21  1  0  0  0  0
 20 27  1  0  0  0  0
 21 31  1  1  0  0  0
 21 23  1  0  0  0  0
 21 22  1  0  0  0  0
 23 24  1  0  0  0  0
 23 29  1  1  0  0  0
 24 25  1  0  0  0  0
 24 28  1  6  0  0  0
 25 27  1  0  0  0  0
 25 26  1  1  0  0  0
 29 30  1  0  0  0  0
M  CHG  5   6   1  10   1  14   1  19   1  29   1
M  END
>  <CHROM.1>
31.78049193,73.40668666,-162.67364491,-173.20156560,81.74478353,47.37036136
67.00785235,-90.13948152,-159.56996757,-47.11085791,44.37919878,-62.17717500
177.04230834,-4.21730448,-3.20087856,-5.16082292,-0.29149804,-0.39186924
2.99029528

>  <Name>
1byj cryst

>  <RI>
0

>  <Rbt.Current_Directory>
/home/itssahil/PROJECTS/Mol_Feturizer/New_Systems/rnas/1byj

>  <Rbt.Executable>
rbdock ($Id: //depot/dev/client3/rdock/2013.1/src/exe/rbdock.cxx#4 $)

>  <Rbt.Library>
libRbt.so (2013.1, Build901 2013/11/27)

>  <Rbt.Parameter_File>
/export/apps/rDock/src/rDock_2013.1_src/data/scripts/dock_solv.prm

>  <Rbt.Receptor>
prm/blind_docking_100.prm

>  <SCORE>
-31.7675

>  <SCORE.INTER>
-31.9489

>  <SCORE.INTER.CONST>
1

>  <SCORE.INTER.POLAR>
-5.66275

>  <SCORE.INTER.ROT>
6

>  <SCORE.INTER.SOLV>
27.0489

>  <SCORE.INTER.VDW>
-19.0397

>  <SCORE.INTER.norm>
-1.03061

>  <SCORE.INTRA>
-3.75319

>  <SCORE.INTRA.DIHEDRAL>
-4.6595

>  <SCORE.INTRA.DIHEDRAL.0>
18.4149

>  <SCORE.INTRA.POLAR>
-0.180462

>  <SCORE.INTRA.POLAR.0>
0

>  <SCORE.INTRA.REPUL>
-0.092687

>  <SCORE.INTRA.REPUL.0>
0.092687

>  <SCORE.INTRA.SOLV>
-4.40426

>  <SCORE.INTRA.SOLV.lig_0>
-120.37

>  <SCORE.INTRA.VDW>
1.8557

>  <SCORE.INTRA.VDW.0>
-1.75542

>  <SCORE.INTRA.norm>
-0.12107

>  <SCORE.RESTR>
3.93459

>  <SCORE.RESTR.CAVITY>
3.93459

>  <SCORE.RESTR.norm>
0.126922

>  <SCORE.SYSTEM>
0

>  <SCORE.SYSTEM.CONST>
0

>  <SCORE.SYSTEM.DIHEDRAL>
0

>  <SCORE.SYSTEM.SOLV>
0

>  <SCORE.SYSTEM.norm>
0

>  <SCORE.heavy>
31

>  <SCORE.norm>
-1.02476

>  <RMSD>
13.425

$$$$
1byj cryst
 OpenBabel11021811383D
libRbt.so/2013.1/901 2013/11/27
 31 33  0  0  0  0  0  0  0  0999 V2000
    0.5439   -6.1334   -6.1514 C   0  0  1  0  0  0  0  0  0  0  0  0
    0.1352   -5.1320   -7.1375 O   0  0  0  0  0  0  0  0  0  0  0  0
   -0.6856   -4.0095   -6.6959 C   0  0  2  0  0  0  0  0  0  0  0  0
    0.0661   -3.1140   -5.8185 O   0  0  0  0  0  0  0  0  0  0  0  0
   -1.9601   -4.5529   -5.9814 C   0  0  2  0  0  0  0  0  0  0  0  0
   -2.8563   -3.4846   -5.4971 N   0  3  0  0  0  0  0  0  0  0  0  0
   -1.5568   -5.4903   -4.8141 C   0  0  0  0  0  0  0  0  0  0  0  0
   -0.6619   -6.6359   -5.3104 C   0  0  0  0  0  0  0  0  0  0  0  0
    1.1912   -7.3278   -6.8744 C   0  0  0  0  0  0  0  0  0  0  0  0
    1.1050   -7.2531   -8.3387 N   0  3  0  0  0  0  0  0  0  0  0  0
    0.2680   -0.8423   -6.7508 C   0  0  1  0  0  0  0  0  0  0  0  0
    1.1927    0.1571   -7.4874 C   0  0  0  0  0  0  0  0  0  0  0  0
    1.7081   -0.4575   -8.8165 C   0  0  1  0  0  0  0  0  0  0  0  0
    2.5239    0.5329   -9.5448 N   0  3  0  0  0  0  0  0  0  0  0  0
    2.5000   -1.7668   -8.5333 C   0  0  1  0  0  0  0  0  0  0  0  0
    1.6623   -2.7733   -7.7053 C   0  0  1  0  0  0  0  0  0  0  0  0
    2.5328   -3.8421   -7.3648 O   0  0  0  0  0  0  0  0  0  0  0  0
    1.0153   -2.1741   -6.4131 C   0  0  2  0  0  0  0  0  0  0  0  0
   -0.2974   -0.2131   -5.5442 N   0  3  0  0  0  0  0  0  0  0  0  0
    3.9785   -5.2636   -9.9513 C   0  0  0  0  0  0  0  0  0  0  0  0
    4.4849   -5.4182  -11.4064 C   0  0  2  0  0  0  0  0  0  0  0  0
    5.8877   -5.6694  -11.3350 O   0  0  0  0  0  0  0  0  0  0  0  0
    4.1911   -4.0940  -12.2073 C   0  0  1  0  0  0  0  0  0  0  0  0
    4.6479   -2.8053  -11.4428 C   0  0  2  0  0  0  0  0  0  0  0  0
    4.2507   -2.8025   -9.9448 C   0  0  1  0  0  0  0  0  0  0  0  0
    2.8574   -2.4292   -9.7799 O   0  0  0  0  0  0  0  0  0  0  0  0
    4.5479   -4.0844   -9.3226 O   0  0  0  0  0  0  0  0  0  0  0  0
    4.1353   -1.6257  -12.0568 O   0  0  0  0  0  0  0  0  0  0  0  0
    4.8361   -4.1646  -13.5554 N   0  3  0  0  0  0  0  0  0  0  0  0
    3.9640   -4.5002  -14.6994 C   0  0  0  0  0  0  0  0  0  0  0  0
    3.8240   -6.6722  -12.0299 C   0  0  0  0  0  0  0  0  0  0  0  0
  1  8  1  0  0  0  0
  1  9  1  6  0  0  0
  1  2  1  0  0  0  0
  2  3  1  0  0  0  0
  3  5  1  0  0  0  0
  3  4  1  1  0  0  0
  5  7  1  0  0  0  0
  5  6  1  1  0  0  0
  7  8  1  0  0  0  0
  9 10  1  0  0  0  0
 11 12  1  0  0  0  0
 11 18  1  0  0  0  0
 11 19  1  1  0  0  0
 12 13  1  0  0  0  0
 13 15  1  0  0  0  0
 13 14  1  1  0  0  0
 15 16  1  0  0  0  0
 15 26  1  6  0  0  0
 16 18  1  0  0  0  0
 16 17  1  1  0  0  0
 18  4  1  6  0  0  0
 20 21  1  0  0  0  0
 20 27  1  0  0  0  0
 21 31  1  6  0  0  0
 21 23  1  0  0  0  0
 21 22  1  0  0  0  0
 23 24  1  0  0  0  0
 23 29  1  6  0  0  0
 24 25  1  0  0  0  0
 24 28  1  6  0  0  0
 25 27  1  0  0  0  0
 25 26  1  6  0  0  0
 29 30  1  0  0  0  0
M  CHG  5   6   1  10   1  14   1  19   1  29   1
M  END
>  <CHROM.1>
-6.61246448,78.00015559,89.25311157,-85.56055149,51.00407858,-44.82993790
176.76787131,128.96608789,-52.13354612,-58.95696680,-137.96832875,-63.63781654
-151.14869807,1.95334893,-3.66626254,-8.68817766,3.08084478,0.86930301,0.02611784

>  <Name>
1byj cryst

>  <RI>
0

>  <Rbt.Current_Directory>
/home/itssahil/PROJECTS/Mol_Feturizer/New_Systems/rnas/1byj

>  <Rbt.Executable>
rbdock ($Id: //depot/dev/client3/rdock/2013.1/src/exe/rbdock.cxx#4 $)

>  <Rbt.Library>
libRbt.so (2013.1, Build901 2013/11/27)

>  <Rbt.Parameter_File>
/export/apps/rDock/src/rDock_2013.1_src/data/scripts/dock_solv.prm

>  <Rbt.Receptor>
prm/blind_docking_20.prm

>  <SCORE>
14.5756

>  <SCORE.INTER>
0.336695

>  <SCORE.INTER.CONST>
1

>  <SCORE.INTER.POLAR>
-4.61691

>  <SCORE.INTER.ROT>
6

>  <SCORE.INTER.SOLV>
25.95

>  <SCORE.INTER.VDW>
-0.635868

>  <SCORE.INTER.norm>
0.0108611

>  <SCORE.INTRA>
2.63543

>  <SCORE.INTRA.DIHEDRAL>
7.35326

>  <SCORE.INTRA.DIHEDRAL.0>
18.4149

>  <SCORE.INTRA.POLAR>
-0.295555

>  <SCORE.INTRA.POLAR.0>
0

>  <SCORE.INTRA.REPUL>
-0.092687

>  <SCORE.INTRA.REPUL.0>
0.092687

>  <SCORE.INTRA.SOLV>
1.41073

>  <SCORE.INTRA.SOLV.lig_0>
-120.37

>  <SCORE.INTRA.VDW>
-0.278238

>  <SCORE.INTRA.VDW.0>
-1.75542

>  <SCORE.INTRA.norm>
0.0850139

>  <SCORE.RESTR>
11.6035

>  <SCORE.RESTR.CAVITY>
11.6035

>  <SCORE.RESTR.norm>
0.374307

>  <SCORE.SYSTEM>
0

>  <SCORE.SYSTEM.CONST>
0

>  <SCORE.SYSTEM.DIHEDRAL>
0

>  <SCORE.SYSTEM.SOLV>
0

>  <SCORE.SYSTEM.norm>
0

>  <SCORE.heavy>
31

>  <SCORE.norm>
0.470182

>  <RMSD>
13.450

$$$$
1byj cryst
 OpenBabel11021811383D
libRbt.so/2013.1/901 2013/11/27
 31 33  0  0  0  0  0  0  0  0999 V2000
   -1.8611   -1.9833   -4.6418 C   0  0  1  0  0  0  0  0  0  0  0  0
   -1.6072   -2.2814   -6.0520 O   0  0  0  0  0  0  0  0  0  0  0  0
   -0.8929   -3.5078   -6.3904 C   0  0  2  0  0  0  0  0  0  0  0  0
   -1.6964   -4.6912   -6.0894 O   0  0  0  0  0  0  0  0  0  0  0  0
    0.4635   -3.5424   -5.6227 C   0  0  2  0  0  0  0  0  0  0  0  0
    1.2605   -4.7529   -5.9030 N   0  3  0  0  0  0  0  0  0  0  0  0
    0.2162   -3.3992   -4.0988 C   0  0  0  0  0  0  0  0  0  0  0  0
   -0.5717   -2.1184   -3.7856 C   0  0  0  0  0  0  0  0  0  0  0  0
   -2.4080   -0.5506   -4.5129 C   0  0  0  0  0  0  0  0  0  0  0  0
   -3.0880   -0.2872   -3.2380 N   0  3  0  0  0  0  0  0  0  0  0  0
   -2.9293   -5.0119   -8.1983 C   0  0  1  0  0  0  0  0  0  0  0  0
   -4.3223   -5.0174   -8.8738 C   0  0  0  0  0  0  0  0  0  0  0  0
   -5.0512   -3.6692   -8.6274 C   0  0  1  0  0  0  0  0  0  0  0  0
   -6.3426   -3.6587   -9.3408 N   0  3  0  0  0  0  0  0  0  0  0  0
   -5.2289   -3.4238   -7.1010 C   0  0  1  0  0  0  0  0  0  0  0  0
   -3.8778   -3.5087   -6.3477 C   0  0  1  0  0  0  0  0  0  0  0  0
   -4.1809   -3.4414   -4.9622 O   0  0  0  0  0  0  0  0  0  0  0  0
   -3.0413   -4.7948   -6.6535 C   0  0  2  0  0  0  0  0  0  0  0  0
   -2.2046   -6.2530   -8.5236 N   0  3  0  0  0  0  0  0  0  0  0  0
   -7.3812   -4.3257   -5.5262 C   0  0  0  0  0  0  0  0  0  0  0  0
   -7.6299   -3.8446   -4.0756 C   0  0  2  0  0  0  0  0  0  0  0  0
   -9.0432   -3.7444   -3.9063 O   0  0  0  0  0  0  0  0  0  0  0  0
   -6.9377   -2.4460   -3.8611 C   0  0  1  0  0  0  0  0  0  0  0  0
   -7.2647   -1.4228   -5.0013 C   0  0  2  0  0  0  0  0  0  0  0  0
   -7.1590   -2.0288   -6.4238 C   0  0  1  0  0  0  0  0  0  0  0  0
   -5.7745   -2.0961   -6.8556 O   0  0  0  0  0  0  0  0  0  0  0  0
   -7.8131   -3.3275   -6.4890 O   0  0  0  0  0  0  0  0  0  0  0  0
   -6.4249   -0.2737   -4.9273 O   0  0  0  0  0  0  0  0  0  0  0  0
   -7.3230   -1.8902   -2.5266 N   0  3  0  0  0  0  0  0  0  0  0  0
   -6.2982   -1.1096   -1.8038 C   0  0  0  0  0  0  0  0  0  0  0  0
   -7.1256   -4.9354   -3.0989 C   0  0  0  0  0  0  0  0  0  0  0  0
  1  8  1  0  0  0  0
  1  9  1  6  0  0  0
  1  2  1  0  0  0  0
  2  3  1  0  0  0  0
  3  5  1  0  0  0  0
  3  4  1  1  0  0  0
  5  7  1  0  0  0  0
  5  6  1  1  0  0  0
  7  8  1  0  0  0  0
  9 10  1  0  0  0  0
 11 12  1  0  0  0  0
 11 18  1  0  0  0  0
 11 19  1  1  0  0  0
 12 13  1  0  0  0  0
 13 15  1  0  0  0  0
 13 14  1  6  0  0  0
 15 16  1  0  0  0  0
 15 26  1  6  0  0  0
 16 18  1  0  0  0  0
 16 17  1  1  0  0  0
 18  4  1  6  0  0  0
 20 21  1  0  0  0  0
 20 27  1  0  0  0  0
 21 31  1  1  0  0  0
 21 23  1  0  0  0  0
 21 22  1  0  0  0  0
 23 24  1  0  0  0  0
 23 29  1  1  0  0  0
 24 25  1  0  0  0  0
 24 28  1  6  0  0  0
 25 27  1  0  0  0  0
 25 26  1  1  0  0  0
 29 30  1  0  0  0  0
M  CHG  5   6   1  10   1  14   1  19   1  29   1
M  END
>  <CHROM.1>
161.67600327,54.18099595,69.67555648,34.21341227,-8.11562595,66.08961595
-54.62898892,107.37516415,63.65871661,-178.36530877,-93.88740252,67.55299663
116.81936383,-4.32479633,-3.13650254,-5.57992824,-0.29075201,-0.02721714
0.99555603

>  <Name>
1byj cryst

>  <RI>
0

>  <Rbt.Current_Directory>
/home/itssahil/PROJECTS/Mol_Feturizer/New_Systems/rnas/1byj

>  <Rbt.Executable>
rbdock ($Id: //depot/dev/client3/rdock/2013.1/src/exe/rbdock.cxx#4 $)

>  <Rbt.Library>
libRbt.so (2013.1, Build901 2013/11/27)

>  <Rbt.Parameter_File>
/export/apps/rDock/src/rDock_2013.1_src/data/scripts/dock_solv.prm

>  <Rbt.Receptor>
prm/blind_docking_40.prm

>  <SCORE>
-8.95311

>  <SCORE.INTER>
-19.2399

>  <SCORE.INTER.CONST>
1

>  <SCORE.INTER.POLAR>
-2.70904

>  <SCORE.INTER.ROT>
6

>  <SCORE.INTER.SOLV>
14.881

>  <SCORE.INTER.VDW>
-16.3568

>  <SCORE.INTER.norm>
-0.620641

>  <SCORE.INTRA>
3.02556

>  <SCORE.INTRA.DIHEDRAL>
4.76578

>  <SCORE.INTRA.DIHEDRAL.0>
18.4149

>  <SCORE.INTRA.POLAR>
-0.0270295

>  <SCORE.INTRA.POLAR.0>
0

>  <SCORE.INTRA.REPUL>
-0.092687

>  <SCORE.INTRA.REPUL.0>
0.092687

>  <SCORE.INTRA.SOLV>
2.27079

>  <SCORE.INTRA.SOLV.lig_0>
-120.37

>  <SCORE.INTRA.VDW>
0.0626067

>  <SCORE.INTRA.VDW.0>
-1.75542

>  <SCORE.INTRA.norm>
0.0975987

>  <SCORE.RESTR>
7.2612

>  <SCORE.RESTR.CAVITY>
7.2612

>  <SCORE.RESTR.norm>
0.234232

>  <SCORE.SYSTEM>
0

>  <SCORE.SYSTEM.CONST>
0

>  <SCORE.SYSTEM.DIHEDRAL>
0

>  <SCORE.SYSTEM.SOLV>
0

>  <SCORE.SYSTEM.norm>
0

>  <SCORE.heavy>
31

>  <SCORE.norm>
-0.28881

>  <RMSD>
13.479

$$$$
1byj cryst
 OpenBabel11021811383D
libRbt.so/2013.1/901 2013/11/27
 31 33  0  0  0  0  0  0  0  0999 V2000
   -6.3309   -3.5750   -4.3064 C   0  0  1  0  0  0  0  0  0  0  0  0
   -5.7726   -3.6622   -5.6565 O   0  0  0  0  0  0  0  0  0  0  0  0
   -4.7959   -2.6627   -6.0757 C   0  0  2  0  0  0  0  0  0  0  0  0
   -3.5395   -2.8072   -5.3427 O   0  0  0  0  0  0  0  0  0  0  0  0
   -5.3986   -1.2387   -5.8777 C   0  0  2  0  0  0  0  0  0  0  0  0
   -4.4779   -0.1561   -6.2768 N   0  3  0  0  0  0  0  0  0  0  0  0
   -5.8475   -1.0508   -4.4055 C   0  0  0  0  0  0  0  0  0  0  0  0
   -6.8438   -2.1432   -3.9888 C   0  0  0  0  0  0  0  0  0  0  0  0
   -7.4944   -4.5728   -4.1692 C   0  0  0  0  0  0  0  0  0  0  0  0
   -7.4586   -5.3599   -2.9297 N   0  3  0  0  0  0  0  0  0  0  0  0
   -2.5047   -4.9173   -6.0822 C   0  0  1  0  0  0  0  0  0  0  0  0
   -1.2479   -5.5726   -6.7048 C   0  0  0  0  0  0  0  0  0  0  0  0
    0.0167   -5.2172   -5.8777 C   0  0  1  0  0  0  0  0  0  0  0  0
    1.1933   -5.9105   -6.4361 N   0  3  0  0  0  0  0  0  0  0  0  0
    0.2172   -3.6745   -5.8359 C   0  0  1  0  0  0  0  0  0  0  0  0
   -1.0488   -2.9478   -5.3172 C   0  0  1  0  0  0  0  0  0  0  0  0
   -0.8149   -1.5572   -5.4830 O   0  0  0  0  0  0  0  0  0  0  0  0
   -2.3763   -3.3593   -6.0354 C   0  0  2  0  0  0  0  0  0  0  0  0
   -3.7116   -5.3435   -6.8124 N   0  3  0  0  0  0  0  0  0  0  0  0
    2.0692   -3.6573   -7.8786 C   0  0  0  0  0  0  0  0  0  0  0  0
    2.1472   -2.2198   -8.4488 C   0  0  2  0  0  0  0  0  0  0  0  0
    3.4868   -2.0220   -8.8988 O   0  0  0  0  0  0  0  0  0  0  0  0
    1.7755   -1.1868   -7.3191 C   0  0  1  0  0  0  0  0  0  0  0  0
    2.5421   -1.4481   -5.9782 C   0  0  2  0  0  0  0  0  0  0  0  0
    2.5658   -2.9405   -5.5612 C   0  0  1  0  0  0  0  0  0  0  0  0
    1.3107   -3.3240   -4.9404 O   0  0  0  0  0  0  0  0  0  0  0  0
    2.8965   -3.7945   -6.6926 O   0  0  0  0  0  0  0  0  0  0  0  0
    1.9974   -0.6801   -4.9082 O   0  0  0  0  0  0  0  0  0  0  0  0
    2.0232    0.2061   -7.8060 N   0  3  0  0  0  0  0  0  0  0  0  0
    1.2433    0.6558   -8.9770 C   0  0  0  0  0  0  0  0  0  0  0  0
    1.2264   -2.1292   -9.6906 C   0  0  0  0  0  0  0  0  0  0  0  0
  1  8  1  0  0  0  0
  1  9  1  6  0  0  0
  1  2  1  0  0  0  0
  2  3  1  0  0  0  0
  3  5  1  0  0  0  0
  3  4  1  1  0  0  0
  5  7  1  0  0  0  0
  5  6  1  1  0  0  0
  7  8  1  0  0  0  0
  9 10  1  0  0  0  0
 11 12  1  0  0  0  0
 11 18  1  0  0  0  0
 11 19  1  6  0  0  0
 12 13  1  0  0  0  0
 13 15  1  0  0  0  0
 13 14  1  6  0  0  0
 15 16  1  0  0  0  0
 15 26  1  1  0  0  0
 16 18  1  0  0  0  0
 16 17  1  6  0  0  0
 18  4  1  1  0  0  0
 20 21  1  0  0  0  0
 20 27  1  0  0  0  0
 21 31  1  6  0  0  0
 21 23  1  0  0  0  0
 21 22  1  0  0  0  0
 23 24  1  0  0  0  0
 23 29  1  6  0  0  0
 24 25  1  0  0  0  0
 24 28  1  1  0  0  0
 25 27  1  0  0  0  0
 25 26  1  6  0  0  0
 29 30  1  0  0  0  0
M  CHG  5   6   1  10   1  14   1  19   1  29   1
M  END
>  <CHROM.1>
134.34579863,106.69083552,-79.96097632,108.53912188,80.87123928,48.99064872
155.27079303,104.08762769,-71.12999823,61.01264115,-177.24862657,-12.94602644
82.74716782,-1.36984222,-2.83931530,-6.15387805,2.93859496,-0.28166963,2.94895337

>  <Name>
1byj cryst

>  <RI>
0

>  <Rbt.Current_Directory>
/home/itssahil/PROJECTS/Mol_Feturizer/New_Systems/rnas/1byj

>  <Rbt.Executable>
rbdock ($Id: //depot/dev/client3/rdock/2013.1/src/exe/rbdock.cxx#4 $)

>  <Rbt.Library>
libRbt.so (2013.1, Build901 2013/11/27)

>  <Rbt.Parameter_File>
/export/apps/rDock/src/rDock_2013.1_src/data/scripts/dock_solv.prm

>  <Rbt.Receptor>
prm/blind_docking_100.prm

>  <SCORE>
-6.43875

>  <SCORE.INTER>
-18.1419

>  <SCORE.INTER.CONST>
1

>  <SCORE.INTER.POLAR>
-3.71337

>  <SCORE.INTER.ROT>
6

>  <SCORE.INTER.SOLV>
33.0425

>  <SCORE.INTER.VDW>
-18.3309

>  <SCORE.INTER.norm>
-0.585222

>  <SCORE.INTRA>
9.52924

>  <SCORE.INTRA.DIHEDRAL>
15.5375

>  <SCORE.INTRA.DIHEDRAL.0>
18.4149

>  <SCORE.INTRA.POLAR>
-1.78746

>  <SCORE.INTRA.POLAR.0>
0

>  <SCORE.INTRA.REPUL>
-0.092687

>  <SCORE.INTRA.REPUL.0>
0.092687

>  <SCORE.INTRA.SOLV>
2.59521

>  <SCORE.INTRA.SOLV.lig_0>
-120.37

>  <SCORE.INTRA.VDW>
7.0037

>  <SCORE.INTRA.VDW.0>
-1.75542

>  <SCORE.INTRA.norm>
0.307395

>  <SCORE.RESTR>
2.17389

>  <SCORE.RESTR.CAVITY>
2.17389

>  <SCORE.RESTR.norm>
0.0701255

>  <SCORE.SYSTEM>
0

>  <SCORE.SYSTEM.CONST>
0

>  <SCORE.SYSTEM.DIHEDRAL>
0

>  <SCORE.SYSTEM.SOLV>
0

>  <SCORE.SYSTEM.norm>
0

>  <SCORE.heavy>
31

>  <SCORE.norm>
-0.207702

>  <RMSD>
13.494

$$$$
1byj cryst
 OpenBabel11021811383D
libRbt.so/2013.1/901 2013/11/27
 31 33  0  0  0  0  0  0  0  0999 V2000
   -5.1247   -3.8732   -8.1587 C   0  0  1  0  0  0  0  0  0  0  0  0
   -4.3005   -2.6794   -7.9646 O   0  0  0  0  0  0  0  0  0  0  0  0
   -4.7336   -1.6804   -6.9935 C   0  0  2  0  0  0  0  0  0  0  0  0
   -4.6460   -2.1938   -5.6277 O   0  0  0  0  0  0  0  0  0  0  0  0
   -6.1881   -1.2313   -7.3301 C   0  0  2  0  0  0  0  0  0  0  0  0
   -6.7149   -0.2164   -6.3966 N   0  3  0  0  0  0  0  0  0  0  0  0
   -7.1283   -2.4634   -7.3756 C   0  0  0  0  0  0  0  0  0  0  0  0
   -6.6190   -3.5093   -8.3788 C   0  0  0  0  0  0  0  0  0  0  0  0
   -4.6086   -4.6577   -9.3778 C   0  0  0  0  0  0  0  0  0  0  0  0
   -3.4210   -5.4755   -9.0983 N   0  3  0  0  0  0  0  0  0  0  0  0
   -2.8586   -1.0366   -4.3880 C   0  0  1  0  0  0  0  0  0  0  0  0
   -1.4174   -1.1411   -3.8324 C   0  0  0  0  0  0  0  0  0  0  0  0
   -0.4230   -1.5079   -4.9666 C   0  0  1  0  0  0  0  0  0  0  0  0
    0.9549   -1.5275   -4.4395 N   0  3  0  0  0  0  0  0  0  0  0  0
   -0.8180   -2.8684   -5.6104 C   0  0  1  0  0  0  0  0  0  0  0  0
   -2.2892   -2.8648   -6.0959 C   0  0  1  0  0  0  0  0  0  0  0  0
   -2.5856   -4.1927   -6.5021 O   0  0  0  0  0  0  0  0  0  0  0  0
   -3.3264   -2.3850   -5.0276 C   0  0  2  0  0  0  0  0  0  0  0  0
   -3.7781   -0.5880   -3.3274 N   0  3  0  0  0  0  0  0  0  0  0  0
    2.2548   -4.2954   -8.5004 C   0  0  0  0  0  0  0  0  0  0  0  0
    2.8253   -3.0902   -9.2876 C   0  0  2  0  0  0  0  0  0  0  0  0
    4.1962   -2.9595   -8.9139 O   0  0  0  0  0  0  0  0  0  0  0  0
    2.0154   -1.7910   -8.9169 C   0  0  1  0  0  0  0  0  0  0  0  0
    1.8468   -1.5981   -7.3714 C   0  0  2  0  0  0  0  0  0  0  0  0
    1.4388   -2.8954   -6.6281 C   0  0  1  0  0  0  0  0  0  0  0  0
    0.0163   -3.1476   -6.7709 O   0  0  0  0  0  0  0  0  0  0  0  0
    2.2394   -4.0269   -7.0730 O   0  0  0  0  0  0  0  0  0  0  0  0
    0.8959   -0.5791   -7.0739 O   0  0  0  0  0  0  0  0  0  0  0  0
    2.6712   -0.5940   -9.5298 N   0  3  0  0  0  0  0  0  0  0  0  0
    2.0053    0.7098   -9.3331 C   0  0  0  0  0  0  0  0  0  0  0  0
    2.7902   -3.4250  -10.7992 C   0  0  0  0  0  0  0  0  0  0  0  0
  1  8  1  0  0  0  0
  1  9  1  6  0  0  0
  1  2  1  0  0  0  0
  2  3  1  0  0  0  0
  3  5  1  0  0  0  0
  3  4  1  1  0  0  0
  5  7  1  0  0  0  0
  5  6  1  1  0  0  0
  7  8  1  0  0  0  0
  9 10  1  0  0  0  0
 11 12  1  0  0  0  0
 11 18  1  0  0  0  0
 11 19  1  1  0  0  0
 12 13  1  0  0  0  0
 13 15  1  0  0  0  0
 13 14  1  1  0  0  0
 15 16  1  0  0  0  0
 15 26  1  6  0  0  0
 16 18  1  0  0  0  0
 16 17  1  1  0  0  0
 18  4  1  6  0  0  0
 20 21  1  0  0  0  0
 20 27  1  0  0  0  0
 21 31  1  6  0  0  0
 21 23  1  0  0  0  0
 21 22  1  0  0  0  0
 23 24  1  0  0  0  0
 23 29  1  1  0  0  0
 24 25  1  0  0  0  0
 24 28  1  6  0  0  0
 25 27  1  0  0  0  0
 25 26  1  6  0  0  0
 29 30  1  0  0  0  0
M  CHG  5   6   1  10   1  14   1  19   1  29   1
M  END
>  <CHROM.1>
79.26979594,71.39749534,85.85474690,55.90775286,82.26897881,43.33082151,-136.75160090
44.18294839,162.77537176,65.94659219,-61.62309209,58.57160275,-104.73927317
-1.42537026,-2.37531905,-7.12775563,2.95401754,0.11027364,1.01736841

>  <Name>
1byj cryst

>  <RI>
0

>  <Rbt.Current_Directory>
/home/itssahil/PROJECTS/Mol_Feturizer/New_Systems/rnas/1byj

>  <Rbt.Executable>
rbdock ($Id: //depot/dev/client3/rdock/2013.1/src/exe/rbdock.cxx#4 $)

>  <Rbt.Library>
libRbt.so (2013.1, Build901 2013/11/27)

>  <Rbt.Parameter_File>
/export/apps/rDock/src/rDock_2013.1_src/data/scripts/dock_solv.prm

>  <Rbt.Receptor>
prm/blind_docking_20.prm

>  <SCORE>
-7.76263

>  <SCORE.INTER>
-17.3905

>  <SCORE.INTER.CONST>
1

>  <SCORE.INTER.POLAR>
-2.89281

>  <SCORE.INTER.ROT>
6

>  <SCORE.INTER.SOLV>
22.0798

>  <SCORE.INTER.VDW>
-16.9109

>  <SCORE.INTER.norm>
-0.560983

>  <SCORE.INTRA>
3.14473

>  <SCORE.INTRA.DIHEDRAL>
0.124591

>  <SCORE.INTRA.DIHEDRAL.0>
18.4149

>  <SCORE.INTRA.POLAR>
-1.33769

>  <SCORE.INTRA.POLAR.0>
0

>  <SCORE.INTRA.REPUL>
-0.092687

>  <SCORE.INTRA.REPUL.0>
0.092687

>  <SCORE.INTRA.SOLV>
3.50321

>  <SCORE.INTRA.SOLV.lig_0>
-120.37

>  <SCORE.INTRA.VDW>
6.34241

>  <SCORE.INTRA.VDW.0>
-1.75542

>  <SCORE.INTRA.norm>
0.101443

>  <SCORE.RESTR>
6.4831

>  <SCORE.RESTR.CAVITY>
6.4831

>  <SCORE.RESTR.norm>
0.209132

>  <SCORE.SYSTEM>
0

>  <SCORE.SYSTEM.CONST>
0

>  <SCORE.SYSTEM.DIHEDRAL>
0

>  <SCORE.SYSTEM.SOLV>
0

>  <SCORE.SYSTEM.norm>
0

>  <SCORE.heavy>
31

>  <SCORE.norm>
-0.250407

>  <RMSD>
13.501

$$$$
1byj cryst
 OpenBabel11021811383D
libRbt.so/2013.1/901 2013/11/27
 31 33  0  0  0  0  0  0  0  0999 V2000
   -5.1997   -3.8895   -8.2367 C   0  0  1  0  0  0  0  0  0  0  0  0
   -5.2180   -2.5648   -7.6148 O   0  0  0  0  0  0  0  0  0  0  0  0
   -6.0823   -2.3458   -6.4599 C   0  0  2  0  0  0  0  0  0  0  0  0
   -5.6129   -3.0941   -5.2952 O   0  0  0  0  0  0  0  0  0  0  0  0
   -7.5443   -2.7428   -6.8279 C   0  0  2  0  0  0  0  0  0  0  0  0
   -8.4963   -2.5547   -5.7155 N   0  3  0  0  0  0  0  0  0  0  0  0
   -7.5866   -4.2080   -7.3332 C   0  0  0  0  0  0  0  0  0  0  0  0
   -6.6357   -4.4091   -8.5227 C   0  0  0  0  0  0  0  0  0  0  0  0
   -4.4117   -3.8233   -9.5569 C   0  0  0  0  0  0  0  0  0  0  0  0
   -3.0187   -3.3865   -9.3956 N   0  3  0  0  0  0  0  0  0  0  0  0
   -4.7175   -1.2370   -3.9463 C   0  0  1  0  0  0  0  0  0  0  0  0
   -3.4559   -0.6370   -3.2791 C   0  0  0  0  0  0  0  0  0  0  0  0
   -2.3239   -0.4516   -4.3251 C   0  0  1  0  0  0  0  0  0  0  0  0
   -1.1565    0.1921   -3.6930 N   0  3  0  0  0  0  0  0  0  0  0  0
   -1.9553   -1.8198   -4.9683 C   0  0  1  0  0  0  0  0  0  0  0  0
   -3.1993   -2.5238   -5.5658 C   0  0  1  0  0  0  0  0  0  0  0  0
   -2.7792   -3.8200   -5.9651 O   0  0  0  0  0  0  0  0  0  0  0  0
   -4.4184   -2.6300   -4.5912 C   0  0  2  0  0  0  0  0  0  0  0  0
   -5.8183   -1.3130   -2.9697 N   0  3  0  0  0  0  0  0  0  0  0  0
    1.2350   -3.4961   -6.9755 C   0  0  0  0  0  0  0  0  0  0  0  0
    2.1391   -2.6315   -7.8880 C   0  0  2  0  0  0  0  0  0  0  0  0
    3.4311   -2.5979   -7.2832 O   0  0  0  0  0  0  0  0  0  0  0  0
    1.5346   -1.1814   -8.0029 C   0  0  1  0  0  0  0  0  0  0  0  0
    1.1555   -0.5672   -6.6125 C   0  0  2  0  0  0  0  0  0  0  0  0
    0.3989   -1.5538   -5.6872 C   0  0  1  0  0  0  0  0  0  0  0  0
   -1.0033   -1.6354   -6.0546 O   0  0  0  0  0  0  0  0  0  0  0  0
    1.0375   -2.8619   -5.6837 O   0  0  0  0  0  0  0  0  0  0  0  0
    0.3743    0.6155   -6.7607 O   0  0  0  0  0  0  0  0  0  0  0  0
    2.4915   -0.2906   -8.7303 N   0  3  0  0  0  0  0  0  0  0  0  0
    1.9216    0.8845   -9.4203 C   0  0  0  0  0  0  0  0  0  0  0  0
    2.2891   -3.3441   -9.2546 C   0  0  0  0  0  0  0  0  0  0  0  0
  1  8  1  0  0  0  0
  1  9  1  6  0  0  0
  1  2  1  0  0  0  0
  2  3  1  0  0  0  0
  3  5  1  0  0  0  0
  3  4  1  1  0  0  0
  5  7  1  0  0  0  0
  5  6  1  1  0  0  0
  7  8  1  0  0  0  0
  9 10  1  0  0  0  0
 11 12  1  0  0  0  0
 11 18  1  0  0  0  0
 11 19  1  1  0  0  0
 12 13  1  0  0  0  0
 13 15  1  0  0  0  0
 13 14  1  1  0  0  0
 15 16  1  0  0  0  0
 15 26  1  6  0  0  0
 16 18  1  0  0  0  0
 16 17  1  1  0  0  0
 18  4  1  6  0  0  0
 20 21  1  0  0  0  0
 20 27  1  0  0  0  0
 21 31  1  6  0  0  0
 21 23  1  0  0  0  0
 21 22  1  0  0  0  0
 23 24  1  0  0  0  0
 23 29  1  1  0  0  0
 24 25  1  0  0  0  0
 24 28  1  6  0  0  0
 25 27  1  0  0  0  0
 25 26  1  6  0  0  0
 29 30  1  0  0  0  0
M  CHG  5   6   1  10   1  14   1  19   1  29   1
M  END
>  <CHROM.1>
59.47781839,73.54469661,65.29302153,66.85702352,-59.96187685,63.64599481
-169.47146945,84.26918768,67.90869112,57.18097785,-83.75959448,-155.88942823
-145.16002205,-2.31601564,-2.11203407,-6.52604415,3.07388043,0.23234168,1.07672920

>  <Name>
1byj cryst

>  <RI>
0

>  <Rbt.Current_Directory>
/home/itssahil/PROJECTS/Mol_Feturizer/New_Systems/rnas/1byj

>  <Rbt.Executable>
rbdock ($Id: //depot/dev/client3/rdock/2013.1/src/exe/rbdock.cxx#4 $)

>  <Rbt.Library>
libRbt.so (2013.1, Build901 2013/11/27)

>  <Rbt.Parameter_File>
/export/apps/rDock/src/rDock_2013.1_src/data/scripts/dock_solv.prm

>  <Rbt.Receptor>
prm/blind_docking_40.prm

>  <SCORE>
-9.94549

>  <SCORE.INTER>
-12.9213

>  <SCORE.INTER.CONST>
1

>  <SCORE.INTER.POLAR>
-3.05335

>  <SCORE.INTER.ROT>
6

>  <SCORE.INTER.SOLV>
17.5907

>  <SCORE.INTER.VDW>
-11.8999

>  <SCORE.INTER.norm>
-0.416817

>  <SCORE.INTRA>
-4.08294

>  <SCORE.INTRA.DIHEDRAL>
-5.58492

>  <SCORE.INTRA.DIHEDRAL.0>
18.4149

>  <SCORE.INTRA.POLAR>
0

>  <SCORE.INTRA.POLAR.0>
0

>  <SCORE.INTRA.REPUL>
-0.092687

>  <SCORE.INTRA.REPUL.0>
0.092687

>  <SCORE.INTRA.SOLV>
1.4149

>  <SCORE.INTRA.SOLV.lig_0>
-120.37

>  <SCORE.INTRA.VDW>
-1.53449

>  <SCORE.INTRA.VDW.0>
-1.75542

>  <SCORE.INTRA.norm>
-0.131708

>  <SCORE.RESTR>
7.05877

>  <SCORE.RESTR.CAVITY>
7.05877

>  <SCORE.RESTR.norm>
0.227702

>  <SCORE.SYSTEM>
0

>  <SCORE.SYSTEM.CONST>
0

>  <SCORE.SYSTEM.DIHEDRAL>
0

>  <SCORE.SYSTEM.SOLV>
0

>  <SCORE.SYSTEM.norm>
0

>  <SCORE.heavy>
31

>  <SCORE.norm>
-0.320822

>  <RMSD>
13.523

$$$$
1byj cryst
 OpenBabel11021811383D
libRbt.so/2013.1/901 2013/11/27
 31 33  0  0  0  0  0  0  0  0999 V2000
   -5.5744   -3.2091   -7.6449 C   0  0  1  0  0  0  0  0  0  0  0  0
   -4.1639   -2.8191   -7.6713 O   0  0  0  0  0  0  0  0  0  0  0  0
   -3.6432   -2.0025   -6.5801 C   0  0  2  0  0  0  0  0  0  0  0  0
   -3.6079   -2.7517   -5.3255 O   0  0  0  0  0  0  0  0  0  0  0  0
   -4.5123   -0.7160   -6.4393 C   0  0  2  0  0  0  0  0  0  0  0  0
   -4.0593    0.1769   -5.3546 N   0  3  0  0  0  0  0  0  0  0  0  0
   -6.0011   -1.0991   -6.2374 C   0  0  0  0  0  0  0  0  0  0  0  0
   -6.5019   -1.9903   -7.3839 C   0  0  0  0  0  0  0  0  0  0  0  0
   -5.9512   -3.8547   -8.9900 C   0  0  0  0  0  0  0  0  0  0  0  0
   -7.2995   -4.4369   -9.0121 N   0  3  0  0  0  0  0  0  0  0  0  0
   -1.8786   -1.6249   -3.9800 C   0  0  1  0  0  0  0  0  0  0  0  0
   -0.4679   -1.7471   -3.3542 C   0  0  0  0  0  0  0  0  0  0  0  0
    0.5803   -2.1038   -4.4422 C   0  0  1  0  0  0  0  0  0  0  0  0
    1.9297   -2.1404   -3.8468 N   0  3  0  0  0  0  0  0  0  0  0  0
    0.2102   -3.4520   -5.1256 C   0  0  1  0  0  0  0  0  0  0  0  0
   -1.2346   -3.4315   -5.6845 C   0  0  1  0  0  0  0  0  0  0  0  0
   -1.5179   -4.7513   -6.1249 O   0  0  0  0  0  0  0  0  0  0  0  0
   -2.3215   -2.9605   -4.6626 C   0  0  2  0  0  0  0  0  0  0  0  0
   -2.8478   -1.1859   -2.9605 N   0  3  0  0  0  0  0  0  0  0  0  0
    3.2591   -3.7325   -8.4052 C   0  0  0  0  0  0  0  0  0  0  0  0
    2.5365   -3.3223   -9.7118 C   0  0  2  0  0  0  0  0  0  0  0  0
    3.1453   -2.1132  -10.1628 O   0  0  0  0  0  0  0  0  0  0  0  0
    1.0044   -3.1042   -9.4174 C   0  0  1  0  0  0  0  0  0  0  0  0
    0.7472   -2.1999   -8.1644 C   0  0  2  0  0  0  0  0  0  0  0  0
    1.6337   -2.5651   -6.9468 C   0  0  1  0  0  0  0  0  0  0  0  0
    1.1003   -3.7196   -6.2466 O   0  0  0  0  0  0  0  0  0  0  0  0
    3.0184   -2.7646   -7.3491 O   0  0  0  0  0  0  0  0  0  0  0  0
   -0.6205   -2.2384   -7.7656 O   0  0  0  0  0  0  0  0  0  0  0  0
    0.3331   -2.5339  -10.6268 N   0  3  0  0  0  0  0  0  0  0  0  0
   -1.1181   -2.2763  -10.5296 C   0  0  0  0  0  0  0  0  0  0  0  0
    2.8072   -4.4029  -10.7874 C   0  0  0  0  0  0  0  0  0  0  0  0
  1  8  1  0  0  0  0
  1  9  1  6  0  0  0
  1  2  1  0  0  0  0
  2  3  1  0  0  0  0
  3  5  1  0  0  0  0
  3  4  1  1  0  0  0
  5  7  1  0  0  0  0
  5  6  1  1  0  0  0
  7  8  1  0  0  0  0
  9 10  1  0  0  0  0
 11 12  1  0  0  0  0
 11 18  1  0  0  0  0
 11 19  1  1  0  0  0
 12 13  1  0  0  0  0
 13 15  1  0  0  0  0
 13 14  1  1  0  0  0
 15 16  1  0  0  0  0
 15 26  1  6  0  0  0
 16 18  1  0  0  0  0
 16 17  1  1  0  0  0
 18  4  1  6  0  0  0
 20 21  1  0  0  0  0
 20 27  1  0  0  0  0
 21 31  1  6  0  0  0
 21 23  1  0  0  0  0
 21 22  1  0  0  0  0
 23 24  1  0  0  0  0
 23 29  1  6  0  0  0
 24 25  1  0  0  0  0
 24 28  1  1  0  0  0
 25 27  1  0  0  0  0
 25 26  1  6  0  0  0
 29 30  1  0  0  0  0
M  CHG  5   6   1  10   1  14   1  19   1  29   1
M  END
>  <CHROM.1>
172.68952862,119.15856597,75.06144348,-5.23668072,45.02036800,-41.46254146
149.75417588,-30.16949739,-174.07206517,58.63506235,-59.46551659,-155.11787486
-93.54644379,-1.32855765,-2.61122162,-7.00275412,2.88342071,-0.03619085,1.33614903

>  <Name>
1byj cryst

>  <RI>
0

>  <Rbt.Current_Directory>
/home/itssahil/PROJECTS/Mol_Feturizer/New_Systems/rnas/1byj

>  <Rbt.Executable>
rbdock ($Id: //depot/dev/client3/rdock/2013.1/src/exe/rbdock.cxx#4 $)

>  <Rbt.Library>
libRbt.so (2013.1, Build901 2013/11/27)

>  <Rbt.Parameter_File>
/export/apps/rDock/src/rDock_2013.1_src/data/scripts/dock_solv.prm

>  <Rbt.Receptor>
prm/blind_docking_20.prm

>  <SCORE>
27.9762

>  <SCORE.INTER>
4.40552

>  <SCORE.INTER.CONST>
1

>  <SCORE.INTER.POLAR>
-3.91724

>  <SCORE.INTER.ROT>
6

>  <SCORE.INTER.SOLV>
26.5032

>  <SCORE.INTER.VDW>
-0.439896

>  <SCORE.INTER.norm>
0.142114

>  <SCORE.INTRA>
13.6172

>  <SCORE.INTRA.DIHEDRAL>
7.51488

>  <SCORE.INTRA.DIHEDRAL.0>
18.4149

>  <SCORE.INTRA.POLAR>
-0.00967946

>  <SCORE.INTRA.POLAR.0>
0

>  <SCORE.INTRA.REPUL>
0.0405655

>  <SCORE.INTRA.REPUL.0>
0.092687

>  <SCORE.INTRA.SOLV>
4.98907

>  <SCORE.INTRA.SOLV.lig_0>
-120.37

>  <SCORE.INTRA.VDW>
7.19531

>  <SCORE.INTRA.VDW.0>
-1.75542

>  <SCORE.INTRA.norm>
0.439265

>  <SCORE.RESTR>
9.95345

>  <SCORE.RESTR.CAVITY>
9.95345

>  <SCORE.RESTR.norm>
0.321079

>  <SCORE.SYSTEM>
0

>  <SCORE.SYSTEM.CONST>
0

>  <SCORE.SYSTEM.DIHEDRAL>
0

>  <SCORE.SYSTEM.SOLV>
0

>  <SCORE.SYSTEM.norm>
0

>  <SCORE.heavy>
31

>  <SCORE.norm>
0.902457

>  <RMSD>
13.527

$$$$
1byj cryst
 OpenBabel11021811383D
libRbt.so/2013.1/901 2013/11/27
 31 33  0  0  0  0  0  0  0  0999 V2000
   -4.4566   -1.3419   -4.2120 C   0  0  1  0  0  0  0  0  0  0  0  0
   -4.4820   -2.7716   -4.5242 O   0  0  0  0  0  0  0  0  0  0  0  0
   -5.0191   -3.1971   -5.8123 C   0  0  2  0  0  0  0  0  0  0  0  0
   -4.1533   -2.7793   -6.9134 O   0  0  0  0  0  0  0  0  0  0  0  0
   -6.4589   -2.6247   -5.9846 C   0  0  2  0  0  0  0  0  0  0  0  0
   -7.0871   -3.0042   -7.2653 N   0  3  0  0  0  0  0  0  0  0  0  0
   -6.4406   -1.0822   -5.8280 C   0  0  0  0  0  0  0  0  0  0  0  0
   -5.8328   -0.6718   -4.4783 C   0  0  0  0  0  0  0  0  0  0  0  0
   -4.0756   -1.1485   -2.7336 C   0  0  0  0  0  0  0  0  0  0  0  0
   -2.8988   -0.2933   -2.5308 N   0  3  0  0  0  0  0  0  0  0  0  0
   -3.2591   -5.0303   -7.3649 C   0  0  1  0  0  0  0  0  0  0  0  0
   -1.9794   -5.8877   -7.5186 C   0  0  0  0  0  0  0  0  0  0  0  0
   -1.0865   -5.7629   -6.2549 C   0  0  1  0  0  0  0  0  0  0  0  0
    0.0898   -6.6445   -6.3819 N   0  3  0  0  0  0  0  0  0  0  0  0
   -0.6781   -4.2785   -6.0281 C   0  0  1  0  0  0  0  0  0  0  0  0
   -1.9156   -3.3483   -5.9687 C   0  0  1  0  0  0  0  0  0  0  0  0
   -1.4214   -2.0177   -5.9325 O   0  0  0  0  0  0  0  0  0  0  0  0
   -2.9159   -3.5183   -7.1594 C   0  0  2  0  0  0  0  0  0  0  0  0
   -4.1473   -5.2355   -8.5227 N   0  3  0  0  0  0  0  0  0  0  0  0
    1.8982   -4.5395   -7.1463 C   0  0  0  0  0  0  0  0  0  0  0  0
    2.2053   -3.1178   -7.6775 C   0  0  2  0  0  0  0  0  0  0  0  0
    3.6142   -2.9245   -7.5608 O   0  0  0  0  0  0  0  0  0  0  0  0
    1.4194   -2.0562   -6.8192 C   0  0  1  0  0  0  0  0  0  0  0  0
    1.5855   -2.2757   -5.2770 C   0  0  2  0  0  0  0  0  0  0  0  0
    1.4325   -3.7559   -4.8440 C   0  0  1  0  0  0  0  0  0  0  0  0
    0.0319   -4.1296   -4.7654 O   0  0  0  0  0  0  0  0  0  0  0  0
    2.1826   -4.6389   -5.7253 O   0  0  0  0  0  0  0  0  0  0  0  0
    0.6633   -1.4818   -4.5351 O   0  0  0  0  0  0  0  0  0  0  0  0
    1.8485   -0.6759   -7.2051 N   0  3  0  0  0  0  0  0  0  0  0  0
    1.0248    0.4457   -6.7097 C   0  0  0  0  0  0  0  0  0  0  0  0
    1.8572   -3.0670   -9.1856 C   0  0  0  0  0  0  0  0  0  0  0  0
  1  8  1  0  0  0  0
  1  9  1  1  0  0  0
  1  2  1  0  0  0  0
  2  3  1  0  0  0  0
  3  5  1  0  0  0  0
  3  4  1  6  0  0  0
  5  7  1  0  0  0  0
  5  6  1  6  0  0  0
  7  8  1  0  0  0  0
  9 10  1  0  0  0  0
 11 12  1  0  0  0  0
 11 18  1  0  0  0  0
 11 19  1  6  0  0  0
 12 13  1  0  0  0  0
 13 15  1  0  0  0  0
 13 14  1  6  0  0  0
 15 16  1  0  0  0  0
 15 26  1  1  0  0  0
 16 18  1  0  0  0  0
 16 17  1  6  0  0  0
 18  4  1  1  0  0  0
 20 21  1  0  0  0  0
 20 27  1  0  0  0  0
 21 31  1  6  0  0  0
 21 23  1  0  0  0  0
 21 22  1  0  0  0  0
 23 24  1  0  0  0  0
 23 29  1  6  0  0  0
 24 25  1  0  0  0  0
 24 28  1  1  0  0  0
 25 27  1  0  0  0  0
 25 26  1  6  0  0  0
 29 30  1  0  0  0  0
M  CHG  5   6   1  10   1  14   1  19   1  29   1
M  END
>  <CHROM.1>
123.64103403,76.41894747,55.87282802,63.22247008,-154.30463316,171.34864366
177.27903469,113.43993419,171.35377082,-60.26947449,-71.25627493,60.76557053
72.08959278,-1.54470207,-2.98206522,-6.09506350,-2.94106042,-0.06666635,-2.54506974

>  <Name>
1byj cryst

>  <RI>
0

>  <Rbt.Current_Directory>
/home/itssahil/PROJECTS/Mol_Feturizer/New_Systems/rnas/1byj

>  <Rbt.Executable>
rbdock ($Id: //depot/dev/client3/rdock/2013.1/src/exe/rbdock.cxx#4 $)

>  <Rbt.Library>
libRbt.so (2013.1, Build901 2013/11/27)

>  <Rbt.Parameter_File>
/export/apps/rDock/src/rDock_2013.1_src/data/scripts/dock_solv.prm

>  <Rbt.Receptor>
prm/blind_docking_100.prm

>  <SCORE>
-23.4528

>  <SCORE.INTER>
-26.0109

>  <SCORE.INTER.CONST>
1

>  <SCORE.INTER.POLAR>
-3.93049

>  <SCORE.INTER.ROT>
6

>  <SCORE.INTER.SOLV>
20.216

>  <SCORE.INTER.VDW>
-18.5776

>  <SCORE.INTER.norm>
-0.839062

>  <SCORE.INTRA>
-2.41107

>  <SCORE.INTRA.DIHEDRAL>
-1.45408

>  <SCORE.INTRA.DIHEDRAL.0>
18.4149

>  <SCORE.INTRA.POLAR>
-1.03396

>  <SCORE.INTRA.POLAR.0>
0

>  <SCORE.INTRA.REPUL>
-0.092687

>  <SCORE.INTRA.REPUL.0>
0.092687

>  <SCORE.INTRA.SOLV>
3.37625

>  <SCORE.INTRA.SOLV.lig_0>
-120.37

>  <SCORE.INTRA.VDW>
0.606756

>  <SCORE.INTRA.VDW.0>
-1.75542

>  <SCORE.INTRA.norm>
-0.0777766

>  <SCORE.RESTR>
4.96917

>  <SCORE.RESTR.CAVITY>
4.96917

>  <SCORE.RESTR.norm>
0.160296

>  <SCORE.SYSTEM>
0

>  <SCORE.SYSTEM.CONST>
0

>  <SCORE.SYSTEM.DIHEDRAL>
0

>  <SCORE.SYSTEM.SOLV>
0

>  <SCORE.SYSTEM.norm>
0

>  <SCORE.heavy>
31

>  <SCORE.norm>
-0.756543

>  <RMSD>
13.543

$$$$
1byj cryst
 OpenBabel11021811383D
libRbt.so/2013.1/901 2013/11/27
 31 33  0  0  0  0  0  0  0  0999 V2000
   -6.4456   -3.3514   -5.3427 C   0  0  1  0  0  0  0  0  0  0  0  0
   -5.3142   -4.2554   -5.5538 O   0  0  0  0  0  0  0  0  0  0  0  0
   -4.3669   -3.9534   -6.6216 C   0  0  2  0  0  0  0  0  0  0  0  0
   -3.5930   -2.7503   -6.3211 O   0  0  0  0  0  0  0  0  0  0  0  0
   -5.1390   -3.8003   -7.9673 C   0  0  2  0  0  0  0  0  0  0  0  0
   -4.2591   -3.4921   -9.1117 N   0  3  0  0  0  0  0  0  0  0  0  0
   -6.2424   -2.7199   -7.8277 C   0  0  0  0  0  0  0  0  0  0  0  0
   -7.1958   -3.0513   -6.6698 C   0  0  0  0  0  0  0  0  0  0  0  0
   -7.4248   -3.9842   -4.3383 C   0  0  0  0  0  0  0  0  0  0  0  0
   -6.9041   -4.0567   -2.9668 N   0  3  0  0  0  0  0  0  0  0  0  0
   -2.3694   -1.4045   -4.6591 C   0  0  1  0  0  0  0  0  0  0  0  0
   -1.1963   -1.3823   -3.6492 C   0  0  0  0  0  0  0  0  0  0  0  0
    0.1341   -1.7624   -4.3529 C   0  0  1  0  0  0  0  0  0  0  0  0
    1.2542   -1.6615   -3.3978 N   0  3  0  0  0  0  0  0  0  0  0  0
    0.0274   -3.1848   -4.9749 C   0  0  1  0  0  0  0  0  0  0  0  0
   -1.1938   -3.3046   -5.9206 C   0  0  1  0  0  0  0  0  0  0  0  0
   -1.2888   -4.6725   -6.2893 O   0  0  0  0  0  0  0  0  0  0  0  0
   -2.5464   -2.8190   -5.3024 C   0  0  2  0  0  0  0  0  0  0  0  0
   -3.6074   -0.9433   -4.0065 N   0  3  0  0  0  0  0  0  0  0  0  0
    3.1597   -3.4797   -8.1155 C   0  0  0  0  0  0  0  0  0  0  0  0
    2.4904   -2.6001   -9.1998 C   0  0  2  0  0  0  0  0  0  0  0  0
    3.3634   -1.4969   -9.4390 O   0  0  0  0  0  0  0  0  0  0  0  0
    1.0879   -2.1047   -8.6811 C   0  0  1  0  0  0  0  0  0  0  0  0
    1.1502   -1.5037   -7.2358 C   0  0  2  0  0  0  0  0  0  0  0  0
    1.9838   -2.3580   -6.2473 C   0  0  1  0  0  0  0  0  0  0  0  0
    1.2129   -3.4892   -5.7640 O   0  0  0  0  0  0  0  0  0  0  0  0
    3.2425   -2.7742   -6.8484 O   0  0  0  0  0  0  0  0  0  0  0  0
   -0.1541   -1.3143   -6.6934 O   0  0  0  0  0  0  0  0  0  0  0  0
    0.5155   -1.1109   -9.6419 N   0  3  0  0  0  0  0  0  0  0  0  0
   -0.6484   -1.5446  -10.4415 C   0  0  0  0  0  0  0  0  0  0  0  0
    2.4062   -3.4138  -10.5147 C   0  0  0  0  0  0  0  0  0  0  0  0
  1  8  1  0  0  0  0
  1  9  1  1  0  0  0
  1  2  1  0  0  0  0
  2  3  1  0  0  0  0
  3  5  1  0  0  0  0
  3  4  1  1  0  0  0
  5  7  1  0  0  0  0
  5  6  1  6  0  0  0
  7  8  1  0  0  0  0
  9 10  1  0  0  0  0
 11 12  1  0  0  0  0
 11 18  1  0  0  0  0
 11 19  1  1  0  0  0
 12 13  1  0  0  0  0
 13 15  1  0  0  0  0
 13 14  1  1  0  0  0
 15 16  1  0  0  0  0
 15 26  1  6  0  0  0
 16 18  1  0  0  0  0
 16 17  1  1  0  0  0
 18  4  1  6  0  0  0
 20 21  1  0  0  0  0
 20 27  1  0  0  0  0
 21 31  1  6  0  0  0
 21 23  1  0  0  0  0
 21 22  1  0  0  0  0
 23 24  1  0  0  0  0
 23 29  1  6  0  0  0
 24 25  1  0  0  0  0
 24 28  1  1  0  0  0
 25 27  1  0  0  0  0
 25 26  1  6  0  0  0
 29 30  1  0  0  0  0
M  CHG  5   6   1  10   1  14   1  19   1  29   1
M  END
>  <CHROM.1>
69.36408736,73.56833700,-152.12185352,-61.95018754,57.81594390,-169.01073594
63.47159925,-22.23251681,64.25672827,167.85930689,-129.60719010,-54.30230351
-63.86078390,-1.53781890,-2.69186606,-6.57722229,2.83081319,0.15712108,1.50100667

>  <Name>
1byj cryst

>  <RI>
0

>  <Rbt.Current_Directory>
/home/itssahil/PROJECTS/Mol_Feturizer/New_Systems/rnas/1byj

>  <Rbt.Executable>
rbdock ($Id: //depot/dev/client3/rdock/2013.1/src/exe/rbdock.cxx#4 $)

>  <Rbt.Library>
libRbt.so (2013.1, Build901 2013/11/27)

>  <Rbt.Parameter_File>
/export/apps/rDock/src/rDock_2013.1_src/data/scripts/dock_solv.prm

>  <Rbt.Receptor>
prm/blind_docking_40.prm

>  <SCORE>
-10.3486

>  <SCORE.INTER>
-24.8689

>  <SCORE.INTER.CONST>
1

>  <SCORE.INTER.POLAR>
-5.00148

>  <SCORE.INTER.ROT>
6

>  <SCORE.INTER.SOLV>
23.9363

>  <SCORE.INTER.VDW>
-15.4865

>  <SCORE.INTER.norm>
-0.802223

>  <SCORE.INTRA>
8.11734

>  <SCORE.INTRA.DIHEDRAL>
-4.11325

>  <SCORE.INTRA.DIHEDRAL.0>
18.4149

>  <SCORE.INTRA.POLAR>
-0.00290407

>  <SCORE.INTRA.POLAR.0>
0

>  <SCORE.INTRA.REPUL>
-0.092687

>  <SCORE.INTRA.REPUL.0>
0.092687

>  <SCORE.INTRA.SOLV>
0.0563959

>  <SCORE.INTRA.SOLV.lig_0>
-120.37

>  <SCORE.INTRA.VDW>
10.6191

>  <SCORE.INTRA.VDW.0>
-1.75542

>  <SCORE.INTRA.norm>
0.26185

>  <SCORE.RESTR>
6.40293

>  <SCORE.RESTR.CAVITY>
6.40293

>  <SCORE.RESTR.norm>
0.206546

>  <SCORE.SYSTEM>
0

>  <SCORE.SYSTEM.CONST>
0

>  <SCORE.SYSTEM.DIHEDRAL>
0

>  <SCORE.SYSTEM.SOLV>
0

>  <SCORE.SYSTEM.norm>
0

>  <SCORE.heavy>
31

>  <SCORE.norm>
-0.333827

>  <RMSD>
13.550

$$$$
1byj cryst
 OpenBabel11021811383D
libRbt.so/2013.1/901 2013/11/27
 31 33  0  0  0  0  0  0  0  0999 V2000
   -6.2082   -0.8836   -7.2291 C   0  0  1  0  0  0  0  0  0  0  0  0
   -4.7537   -0.7217   -7.2205 O   0  0  0  0  0  0  0  0  0  0  0  0
   -4.0036   -1.1963   -6.0626 C   0  0  2  0  0  0  0  0  0  0  0  0
   -4.0312   -2.6551   -5.9729 O   0  0  0  0  0  0  0  0  0  0  0  0
   -4.5841   -0.5454   -4.7705 C   0  0  2  0  0  0  0  0  0  0  0  0
   -3.8853   -0.9682   -3.5409 N   0  3  0  0  0  0  0  0  0  0  0  0
   -6.1015   -0.8443   -4.6596 C   0  0  0  0  0  0  0  0  0  0  0  0
   -6.8509   -0.3666   -5.9124 C   0  0  0  0  0  0  0  0  0  0  0  0
   -6.8013   -0.1112   -8.4206 C   0  0  0  0  0  0  0  0  0  0  0  0
   -6.2450   -0.5073   -9.7210 N   0  3  0  0  0  0  0  0  0  0  0  0
   -3.2921   -4.9225   -6.5920 C   0  0  1  0  0  0  0  0  0  0  0  0
   -2.0898   -5.8022   -7.0128 C   0  0  0  0  0  0  0  0  0  0  0  0
   -0.9430   -5.6890   -5.9726 C   0  0  1  0  0  0  0  0  0  0  0  0
    0.1636   -6.5910   -6.3449 N   0  3  0  0  0  0  0  0  0  0  0  0
   -0.4714   -4.2111   -5.8493 C   0  0  1  0  0  0  0  0  0  0  0  0
   -1.6516   -3.2596   -5.5301 C   0  0  1  0  0  0  0  0  0  0  0  0
   -1.1399   -1.9376   -5.6104 O   0  0  0  0  0  0  0  0  0  0  0  0
   -2.8882   -3.4160   -6.4754 C   0  0  2  0  0  0  0  0  0  0  0  0
   -4.4127   -5.1159   -7.5291 N   0  3  0  0  0  0  0  0  0  0  0  0
    1.7533   -4.1144   -7.5528 C   0  0  0  0  0  0  0  0  0  0  0  0
    1.8430   -2.6307   -7.9868 C   0  0  2  0  0  0  0  0  0  0  0  0
    3.2254   -2.3370   -8.1840 O   0  0  0  0  0  0  0  0  0  0  0  0
    1.2295   -1.7167   -6.8601 C   0  0  1  0  0  0  0  0  0  0  0  0
    1.7750   -2.0603   -5.4323 C   0  0  2  0  0  0  0  0  0  0  0  0
    1.8141   -3.5809   -5.1356 C   0  0  1  0  0  0  0  0  0  0  0  0
    0.4970   -4.0706   -4.7708 O   0  0  0  0  0  0  0  0  0  0  0  0
    2.3774   -4.3183   -6.2572 O   0  0  0  0  0  0  0  0  0  0  0  0
    1.0163   -1.4124   -4.4146 O   0  0  0  0  0  0  0  0  0  0  0  0
    1.4749   -0.2775   -7.1867 N   0  3  0  0  0  0  0  0  0  0  0  0
    2.8593    0.2167   -7.0414 C   0  0  0  0  0  0  0  0  0  0  0  0
    1.1389   -2.4723   -9.3569 C   0  0  0  0  0  0  0  0  0  0  0  0
  1  8  1  0  0  0  0
  1  9  1  6  0  0  0
  1  2  1  0  0  0  0
  2  3  1  0  0  0  0
  3  5  1  0  0  0  0
  3  4  1  1  0  0  0
  5  7  1  0  0  0  0
  5  6  1  1  0  0  0
  7  8  1  0  0  0  0
  9 10  1  0  0  0  0
 11 12  1  0  0  0  0
 11 18  1  0  0  0  0
 11 19  1  6  0  0  0
 12 13  1  0  0  0  0
 13 15  1  0  0  0  0
 13 14  1  6  0  0  0
 15 16  1  0  0  0  0
 15 26  1  1  0  0  0
 16 18  1  0  0  0  0
 16 17  1  6  0  0  0
 18  4  1  1  0  0  0
 20 21  1  0  0  0  0
 20 27  1  0  0  0  0
 21 31  1  6  0  0  0
 21 23  1  0  0  0  0
 21 22  1  0  0  0  0
 23 24  1  0  0  0  0
 23 29  1  6  0  0  0
 24 25  1  0  0  0  0
 24 28  1  1  0  0  0
 25 27  1  0  0  0  0
 25 26  1  6  0  0  0
 29 30  1  0  0  0  0
M  CHG  5   6   1  10   1  14   1  19   1  29   1
M  END
>  <CHROM.1>
56.54903469,98.64650881,-166.33245243,83.85030939,76.59878977,148.63278040
74.07875235,119.92942784,-165.84275694,59.66721311,48.71411052,50.08695535
74.42484668,-1.57092000,-2.52465136,-6.48390855,-2.89397748,-0.02138587,3.04576421

>  <Name>
1byj cryst

>  <RI>
0

>  <Rbt.Current_Directory>
/home/itssahil/PROJECTS/Mol_Feturizer/New_Systems/rnas/1byj

>  <Rbt.Executable>
rbdock ($Id: //depot/dev/client3/rdock/2013.1/src/exe/rbdock.cxx#4 $)

>  <Rbt.Library>
libRbt.so (2013.1, Build901 2013/11/27)

>  <Rbt.Parameter_File>
/export/apps/rDock/src/rDock_2013.1_src/data/scripts/dock_solv.prm

>  <Rbt.Receptor>
prm/blind_docking_20.prm

>  <SCORE>
-30.2825

>  <SCORE.INTER>
-34.8346

>  <SCORE.INTER.CONST>
1

>  <SCORE.INTER.POLAR>
-5.03809

>  <SCORE.INTER.ROT>
6

>  <SCORE.INTER.SOLV>
24.6663

>  <SCORE.INTER.VDW>
-22.2515

>  <SCORE.INTER.norm>
-1.1237

>  <SCORE.INTRA>
1.38485

>  <SCORE.INTRA.DIHEDRAL>
2.19779

>  <SCORE.INTRA.DIHEDRAL.0>
18.4149

>  <SCORE.INTRA.POLAR>
-0.943422

>  <SCORE.INTRA.POLAR.0>
0

>  <SCORE.INTRA.REPUL>
-0.092687

>  <SCORE.INTRA.REPUL.0>
0.092687

>  <SCORE.INTRA.SOLV>
0.522718

>  <SCORE.INTRA.SOLV.lig_0>
-120.37

>  <SCORE.INTRA.VDW>
3.69567

>  <SCORE.INTRA.VDW.0>
-1.75542

>  <SCORE.INTRA.norm>
0.0446726

>  <SCORE.RESTR>
3.16723

>  <SCORE.RESTR.CAVITY>
3.16723

>  <SCORE.RESTR.norm>
0.102169

>  <SCORE.SYSTEM>
0

>  <SCORE.SYSTEM.CONST>
0

>  <SCORE.SYSTEM.DIHEDRAL>
0

>  <SCORE.SYSTEM.SOLV>
0

>  <SCORE.SYSTEM.norm>
0

>  <SCORE.heavy>
31

>  <SCORE.norm>
-0.976854

>  <RMSD>
13.576

$$$$
1byj cryst
 OpenBabel11021811383D
libRbt.so/2013.1/901 2013/11/27
 31 33  0  0  0  0  0  0  0  0999 V2000
    1.1453   -1.8111   -7.3950 C   0  0  1  0  0  0  0  0  0  0  0  0
   -0.1307   -2.3851   -7.8246 O   0  0  0  0  0  0  0  0  0  0  0  0
   -0.7983   -3.3412   -6.9479 C   0  0  2  0  0  0  0  0  0  0  0  0
   -1.2829   -2.6963   -5.7289 O   0  0  0  0  0  0  0  0  0  0  0  0
    0.1830   -4.5053   -6.6128 C   0  0  2  0  0  0  0  0  0  0  0  0
   -0.4071   -5.5273   -5.7259 N   0  3  0  0  0  0  0  0  0  0  0  0
    1.4871   -3.9402   -5.9931 C   0  0  0  0  0  0  0  0  0  0  0  0
    2.1395   -2.9091   -6.9262 C   0  0  0  0  0  0  0  0  0  0  0  0
    1.7703   -1.0250   -8.5610 C   0  0  0  0  0  0  0  0  0  0  0  0
    1.2595    0.3456   -8.6943 N   0  3  0  0  0  0  0  0  0  0  0  0
   -2.7542   -1.1234   -4.5323 C   0  0  1  0  0  0  0  0  0  0  0  0
   -4.1985   -0.5850   -4.3885 C   0  0  0  0  0  0  0  0  0  0  0  0
   -5.1884   -1.7500   -4.1187 C   0  0  1  0  0  0  0  0  0  0  0  0
   -6.5472   -1.2155   -3.9066 N   0  3  0  0  0  0  0  0  0  0  0  0
   -5.1439   -2.7765   -5.2874 C   0  0  1  0  0  0  0  0  0  0  0  0
   -3.7023   -3.2785   -5.5523 C   0  0  1  0  0  0  0  0  0  0  0  0
   -3.7573   -4.0657   -6.7327 O   0  0  0  0  0  0  0  0  0  0  0  0
   -2.6367   -2.1442   -5.7113 C   0  0  2  0  0  0  0  0  0  0  0  0
   -1.8097   -0.0027   -4.6850 N   0  3  0  0  0  0  0  0  0  0  0  0
   -8.2911   -5.8302   -5.5277 C   0  0  0  0  0  0  0  0  0  0  0  0
   -8.7824   -6.2959   -4.1351 C   0  0  2  0  0  0  0  0  0  0  0  0
  -10.1356   -5.8625   -4.0042 O   0  0  0  0  0  0  0  0  0  0  0  0
   -7.8762   -5.6542   -3.0177 C   0  0  1  0  0  0  0  0  0  0  0  0
   -7.6754   -4.1122   -3.2070 C   0  0  2  0  0  0  0  0  0  0  0  0
   -7.3533   -3.7061   -4.6676 C   0  0  1  0  0  0  0  0  0  0  0  0
   -5.9546   -3.9450   -4.9743 O   0  0  0  0  0  0  0  0  0  0  0  0
   -8.2389   -4.3807   -5.6054 O   0  0  0  0  0  0  0  0  0  0  0  0
   -6.6497   -3.6114   -2.3535 O   0  0  0  0  0  0  0  0  0  0  0  0
   -8.4511   -5.9500   -1.6685 N   0  3  0  0  0  0  0  0  0  0  0  0
   -7.5125   -5.9641   -0.5280 C   0  0  0  0  0  0  0  0  0  0  0  0
   -8.7901   -7.8442   -4.1051 C   0  0  0  0  0  0  0  0  0  0  0  0
  1  8  1  0  0  0  0
  1  9  1  6  0  0  0
  1  2  1  0  0  0  0
  2  3  1  0  0  0  0
  3  5  1  0  0  0  0
  3  4  1  1  0  0  0
  5  7  1  0  0  0  0
  5  6  1  1  0  0  0
  7  8  1  0  0  0  0
  9 10  1  0  0  0  0
 11 12  1  0  0  0  0
 11 18  1  0  0  0  0
 11 19  1  6  0  0  0
 12 13  1  0  0  0  0
 13 15  1  0  0  0  0
 13 14  1  6  0  0  0
 15 16  1  0  0  0  0
 15 26  1  1  0  0  0
 16 18  1  0  0  0  0
 16 17  1  6  0  0  0
 18  4  1  1  0  0  0
 20 21  1  0  0  0  0
 20 27  1  0  0  0  0
 21 31  1  1  0  0  0
 21 23  1  0  0  0  0
 21 22  1  0  0  0  0
 23 24  1  0  0  0  0
 23 29  1  1  0  0  0
 24 25  1  0  0  0  0
 24 28  1  1  0  0  0
 25 27  1  0  0  0  0
 25 26  1  6  0  0  0
 29 30  1  0  0  0  0
M  CHG  5   6   1  10   1  14   1  19   1  29   1
M  END
>  <CHROM.1>
83.47468308,90.53839230,-161.36254426,-1.05843989,54.26582776,-73.89983957
-147.47191976,57.18858414,64.46846112,57.22101529,-84.59114342,39.66875860
-116.19484687,-4.08898183,-3.46976580,-5.12681758,-0.29850944,-0.41990839
-3.05043796

>  <Name>
1byj cryst

>  <RI>
0

>  <Rbt.Current_Directory>
/home/itssahil/PROJECTS/Mol_Feturizer/New_Systems/rnas/1byj

>  <Rbt.Executable>
rbdock ($Id: //depot/dev/client3/rdock/2013.1/src/exe/rbdock.cxx#4 $)

>  <Rbt.Library>
libRbt.so (2013.1, Build901 2013/11/27)

>  <Rbt.Parameter_File>
/export/apps/rDock/src/rDock_2013.1_src/data/scripts/dock_solv.prm

>  <Rbt.Receptor>
prm/blind_docking_100.prm

>  <SCORE>
-26.2997

>  <SCORE.INTER>
-33.5858

>  <SCORE.INTER.CONST>
1

>  <SCORE.INTER.POLAR>
-4.72627

>  <SCORE.INTER.ROT>
6

>  <SCORE.INTER.SOLV>
23.0333

>  <SCORE.INTER.VDW>
-21.9141

>  <SCORE.INTER.norm>
-1.08341

>  <SCORE.INTRA>
1.89959

>  <SCORE.INTRA.DIHEDRAL>
5.42262

>  <SCORE.INTRA.DIHEDRAL.0>
18.4149

>  <SCORE.INTRA.POLAR>
-0.689141

>  <SCORE.INTRA.POLAR.0>
0

>  <SCORE.INTRA.REPUL>
-0.092687

>  <SCORE.INTRA.REPUL.0>
0.092687

>  <SCORE.INTRA.SOLV>
-0.262736

>  <SCORE.INTRA.SOLV.lig_0>
-120.37

>  <SCORE.INTRA.VDW>
2.12617

>  <SCORE.INTRA.VDW.0>
-1.75542

>  <SCORE.INTRA.norm>
0.0612771

>  <SCORE.RESTR>
5.38646

>  <SCORE.RESTR.CAVITY>
5.38646

>  <SCORE.RESTR.norm>
0.173757

>  <SCORE.SYSTEM>
0

>  <SCORE.SYSTEM.CONST>
0

>  <SCORE.SYSTEM.DIHEDRAL>
0

>  <SCORE.SYSTEM.SOLV>
0

>  <SCORE.SYSTEM.norm>
0

>  <SCORE.heavy>
31

>  <SCORE.norm>
-0.848379

>  <RMSD>
13.617

$$$$
1byj cryst
 OpenBabel11021811383D
libRbt.so/2013.1/901 2013/11/27
 31 33  0  0  0  0  0  0  0  0999 V2000
   -6.7286   -2.9694   -3.9980 C   0  0  1  0  0  0  0  0  0  0  0  0
   -6.3007   -3.4412   -5.3157 O   0  0  0  0  0  0  0  0  0  0  0  0
   -5.4253   -2.5893   -6.1137 C   0  0  2  0  0  0  0  0  0  0  0  0
   -4.0974   -2.4803   -5.5124 O   0  0  0  0  0  0  0  0  0  0  0  0
   -6.0823   -1.1851   -6.2774 C   0  0  2  0  0  0  0  0  0  0  0  0
   -5.2652   -0.2492   -7.0746 N   0  3  0  0  0  0  0  0  0  0  0  0
   -6.3951   -0.5784   -4.8852 C   0  0  0  0  0  0  0  0  0  0  0  0
   -7.2851   -1.5202   -4.0603 C   0  0  0  0  0  0  0  0  0  0  0  0
   -7.8172   -3.9078   -3.4481 C   0  0  0  0  0  0  0  0  0  0  0  0
   -7.3433   -5.2708   -3.1744 N   0  3  0  0  0  0  0  0  0  0  0  0
   -3.3491   -4.7154   -6.2299 C   0  0  1  0  0  0  0  0  0  0  0  0
   -2.1635   -5.5516   -6.7701 C   0  0  0  0  0  0  0  0  0  0  0  0
   -0.9318   -5.4155   -5.8352 C   0  0  1  0  0  0  0  0  0  0  0  0
    0.1636   -6.2776   -6.3188 N   0  3  0  0  0  0  0  0  0  0  0  0
   -0.4957   -3.9253   -5.7319 C   0  0  1  0  0  0  0  0  0  0  0  0
   -1.6705   -3.0153   -5.2938 C   0  0  1  0  0  0  0  0  0  0  0  0
   -1.2082   -1.6770   -5.3992 O   0  0  0  0  0  0  0  0  0  0  0  0
   -2.9819   -3.1986   -6.1269 C   0  0  2  0  0  0  0  0  0  0  0  0
   -4.5431   -4.9320   -7.0657 N   0  3  0  0  0  0  0  0  0  0  0  0
    1.5126   -3.6084   -7.6388 C   0  0  0  0  0  0  0  0  0  0  0  0
    1.5202   -2.0996   -7.9866 C   0  0  2  0  0  0  0  0  0  0  0  0
    2.8661   -1.7531   -8.3099 O   0  0  0  0  0  0  0  0  0  0  0  0
    1.0095   -1.2731   -6.7466 C   0  0  1  0  0  0  0  0  0  0  0  0
    1.7129   -1.6843   -5.4086 C   0  0  2  0  0  0  0  0  0  0  0  0
    1.8196   -3.2180   -5.2131 C   0  0  1  0  0  0  0  0  0  0  0  0
    0.5611   -3.7680   -4.7425 O   0  0  0  0  0  0  0  0  0  0  0  0
    2.2767   -3.8701   -6.4315 O   0  0  0  0  0  0  0  0  0  0  0  0
    1.0526   -1.1212   -4.2781 O   0  0  0  0  0  0  0  0  0  0  0  0
    1.1844    0.1898   -7.0070 N   0  3  0  0  0  0  0  0  0  0  0  0
    2.5537    0.7321   -6.8942 C   0  0  0  0  0  0  0  0  0  0  0  0
    0.6697   -1.8813   -9.2622 C   0  0  0  0  0  0  0  0  0  0  0  0
  1  8  1  0  0  0  0
  1  9  1  6  0  0  0
  1  2  1  0  0  0  0
  2  3  1  0  0  0  0
  3  5  1  0  0  0  0
  3  4  1  1  0  0  0
  5  7  1  0  0  0  0
  5  6  1  1  0  0  0
  7  8  1  0  0  0  0
  9 10  1  0  0  0  0
 11 12  1  0  0  0  0
 11 18  1  0  0  0  0
 11 19  1  6  0  0  0
 12 13  1  0  0  0  0
 13 15  1  0  0  0  0
 13 14  1  6  0  0  0
 15 16  1  0  0  0  0
 15 26  1  1  0  0  0
 16 18  1  0  0  0  0
 16 17  1  6  0  0  0
 18  4  1  1  0  0  0
 20 21  1  0  0  0  0
 20 27  1  0  0  0  0
 21 31  1  6  0  0  0
 21 23  1  0  0  0  0
 21 22  1  0  0  0  0
 23 24  1  0  0  0  0
 23 29  1  6  0  0  0
 24 25  1  0  0  0  0
 24 28  1  1  0  0  0
 25 27  1  0  0  0  0
 25 26  1  6  0  0  0
 29 30  1  0  0  0  0
M  CHG  5   6   1  10   1  14   1  19   1  29   1
M  END
>  <CHROM.1>
65.34249072,106.01223096,-55.41692824,-70.54640202,40.03382185,33.32427583
-42.84259524,120.63023393,179.38130349,62.33484740,44.96258831,49.57675601
76.91003644,-1.96144784,-2.78049245,-5.96033058,3.00410328,-0.22508962,3.00876343

>  <Name>
1byj cryst

>  <RI>
0

>  <Rbt.Current_Directory>
/home/itssahil/PROJECTS/Mol_Feturizer/New_Systems/rnas/1byj

>  <Rbt.Executable>
rbdock ($Id: //depot/dev/client3/rdock/2013.1/src/exe/rbdock.cxx#4 $)

>  <Rbt.Library>
libRbt.so (2013.1, Build901 2013/11/27)

>  <Rbt.Parameter_File>
/export/apps/rDock/src/rDock_2013.1_src/data/scripts/dock_solv.prm

>  <Rbt.Receptor>
prm/blind_docking_100.prm

>  <SCORE>
-25.4909

>  <SCORE.INTER>
-29.3616

>  <SCORE.INTER.CONST>
1

>  <SCORE.INTER.POLAR>
-4.44514

>  <SCORE.INTER.ROT>
6

>  <SCORE.INTER.SOLV>
29.7577

>  <SCORE.INTER.VDW>
-22.2765

>  <SCORE.INTER.norm>
-0.947147

>  <SCORE.INTRA>
0.288579

>  <SCORE.INTRA.DIHEDRAL>
1.40226

>  <SCORE.INTRA.DIHEDRAL.0>
18.4149

>  <SCORE.INTRA.POLAR>
-1.92985

>  <SCORE.INTRA.POLAR.0>
0

>  <SCORE.INTRA.REPUL>
-0.092687

>  <SCORE.INTRA.REPUL.0>
0.092687

>  <SCORE.INTRA.SOLV>
2.05888

>  <SCORE.INTRA.SOLV.lig_0>
-120.37

>  <SCORE.INTRA.VDW>
5.58292

>  <SCORE.INTRA.VDW.0>
-1.75542

>  <SCORE.INTRA.norm>
0.00930901

>  <SCORE.RESTR>
3.58203

>  <SCORE.RESTR.CAVITY>
3.58203

>  <SCORE.RESTR.norm>
0.115549

>  <SCORE.SYSTEM>
0

>  <SCORE.SYSTEM.CONST>
0

>  <SCORE.SYSTEM.DIHEDRAL>
0

>  <SCORE.SYSTEM.SOLV>
0

>  <SCORE.SYSTEM.norm>
0

>  <SCORE.heavy>
31

>  <SCORE.norm>
-0.822289

>  <RMSD>
13.668

$$$$
1byj cryst
 OpenBabel11021811383D
libRbt.so/2013.1/901 2013/11/27
 31 33  0  0  0  0  0  0  0  0999 V2000
   -2.2855   -4.3743   -6.5611 C   0  0  1  0  0  0  0  0  0  0  0  0
   -1.8089   -3.0827   -6.0643 O   0  0  0  0  0  0  0  0  0  0  0  0
   -0.5407   -3.0345   -5.3445 C   0  0  2  0  0  0  0  0  0  0  0  0
    0.5851   -3.3223   -6.2313 O   0  0  0  0  0  0  0  0  0  0  0  0
   -0.5858   -4.0395   -4.1535 C   0  0  2  0  0  0  0  0  0  0  0  0
    0.6603   -4.0614   -3.3626 N   0  3  0  0  0  0  0  0  0  0  0  0
   -0.9229   -5.4620   -4.6702 C   0  0  0  0  0  0  0  0  0  0  0  0
   -2.2429   -5.4653   -5.4557 C   0  0  0  0  0  0  0  0  0  0  0  0
   -3.7297   -4.2243   -7.0707 C   0  0  0  0  0  0  0  0  0  0  0  0
   -3.8412   -3.4688   -8.3253 N   0  3  0  0  0  0  0  0  0  0  0  0
    0.3600   -1.2541   -7.5512 C   0  0  1  0  0  0  0  0  0  0  0  0
    1.1163   -0.1097   -8.2688 C   0  0  0  0  0  0  0  0  0  0  0  0
    2.1198   -0.6863   -9.3033 C   0  0  1  0  0  0  0  0  0  0  0  0
    2.7763    0.4147  -10.0339 N   0  3  0  0  0  0  0  0  0  0  0  0
    3.1523   -1.6105   -8.5952 C   0  0  1  0  0  0  0  0  0  0  0  0
    2.4540   -2.7207   -7.7706 C   0  0  1  0  0  0  0  0  0  0  0  0
    3.4740   -3.3866   -7.0411 O   0  0  0  0  0  0  0  0  0  0  0  0
    1.3435   -2.2069   -6.7957 C   0  0  2  0  0  0  0  0  0  0  0  0
   -0.6614   -0.6963   -6.6473 N   0  3  0  0  0  0  0  0  0  0  0  0
    4.6367   -2.8666  -12.5008 C   0  0  0  0  0  0  0  0  0  0  0  0
    5.2892   -4.2708  -12.5037 C   0  0  2  0  0  0  0  0  0  0  0  0
    4.4521   -5.1178  -13.2898 O   0  0  0  0  0  0  0  0  0  0  0  0
    5.3961   -4.8024  -11.0247 C   0  0  1  0  0  0  0  0  0  0  0  0
    4.0559   -4.6574  -10.2266 C   0  0  2  0  0  0  0  0  0  0  0  0
    3.3732   -3.2785  -10.4115 C   0  0  1  0  0  0  0  0  0  0  0  0
    4.0026   -2.2734   -9.5740 O   0  0  0  0  0  0  0  0  0  0  0  0
    3.3573   -2.8865  -11.8133 O   0  0  0  0  0  0  0  0  0  0  0  0
    4.2504   -4.8914   -8.8342 O   0  0  0  0  0  0  0  0  0  0  0  0
    5.8554   -6.2263  -11.0309 N   0  3  0  0  0  0  0  0  0  0  0  0
    7.3138   -6.4605  -11.0384 C   0  0  0  0  0  0  0  0  0  0  0  0
    6.6572   -4.1795  -13.2235 C   0  0  0  0  0  0  0  0  0  0  0  0
  1  8  1  0  0  0  0
  1  9  1  1  0  0  0
  1  2  1  0  0  0  0
  2  3  1  0  0  0  0
  3  5  1  0  0  0  0
  3  4  1  6  0  0  0
  5  7  1  0  0  0  0
  5  6  1  6  0  0  0
  7  8  1  0  0  0  0
  9 10  1  0  0  0  0
 11 12  1  0  0  0  0
 11 18  1  0  0  0  0
 11 19  1  1  0  0  0
 12 13  1  0  0  0  0
 13 15  1  0  0  0  0
 13 14  1  1  0  0  0
 15 16  1  0  0  0  0
 15 26  1  6  0  0  0
 16 18  1  0  0  0  0
 16 17  1  1  0  0  0
 18  4  1  6  0  0  0
 20 21  1  0  0  0  0
 20 27  1  0  0  0  0
 21 31  1  6  0  0  0
 21 23  1  0  0  0  0
 21 22  1  0  0  0  0
 23 24  1  0  0  0  0
 23 29  1  6  0  0  0
 24 25  1  0  0  0  0
 24 28  1  1  0  0  0
 25 27  1  0  0  0  0
 25 26  1  1  0  0  0
 29 30  1  0  0  0  0
M  CHG  5   6   1  10   1  14   1  19   1  29   1
M  END
>  <CHROM.1>
71.51824381,97.73409223,-55.54053846,-98.62891127,-55.69061425,-101.86334437
-36.63334191,-69.17290941,-179.74035281,-59.48894486,-151.50865332,-164.26173209
-120.36393656,1.93893862,-3.38018732,-8.54272807,-2.94120052,0.69683159,-0.44611751

>  <Name>
1byj cryst

>  <RI>
0

>  <Rbt.Current_Directory>
/home/itssahil/PROJECTS/Mol_Feturizer/New_Systems/rnas/1byj

>  <Rbt.Executable>
rbdock ($Id: //depot/dev/client3/rdock/2013.1/src/exe/rbdock.cxx#4 $)

>  <Rbt.Library>
libRbt.so (2013.1, Build901 2013/11/27)

>  <Rbt.Parameter_File>
/export/apps/rDock/src/rDock_2013.1_src/data/scripts/dock_solv.prm

>  <Rbt.Receptor>
prm/blind_docking_20.prm

>  <SCORE>
70.828

>  <SCORE.INTER>
64.3934

>  <SCORE.INTER.CONST>
1

>  <SCORE.INTER.POLAR>
-4.50935

>  <SCORE.INTER.ROT>
6

>  <SCORE.INTER.SOLV>
35.7325

>  <SCORE.INTER.VDW>
38.4493

>  <SCORE.INTER.norm>
2.07721

>  <SCORE.INTRA>
2.7566

>  <SCORE.INTRA.DIHEDRAL>
4.26396

>  <SCORE.INTRA.DIHEDRAL.0>
18.4149

>  <SCORE.INTRA.POLAR>
-0.645178

>  <SCORE.INTRA.POLAR.0>
0

>  <SCORE.INTRA.REPUL>
-0.092687

>  <SCORE.INTRA.REPUL.0>
0.092687

>  <SCORE.INTRA.SOLV>
0.498797

>  <SCORE.INTRA.SOLV.lig_0>
-120.37

>  <SCORE.INTRA.VDW>
3.03226

>  <SCORE.INTRA.VDW.0>
-1.75542

>  <SCORE.INTRA.norm>
0.0889225

>  <SCORE.RESTR>
3.67798

>  <SCORE.RESTR.CAVITY>
3.67798

>  <SCORE.RESTR.norm>
0.118645

>  <SCORE.SYSTEM>
0

>  <SCORE.SYSTEM.CONST>
0

>  <SCORE.SYSTEM.DIHEDRAL>
0

>  <SCORE.SYSTEM.SOLV>
0

>  <SCORE.SYSTEM.norm>
0

>  <SCORE.heavy>
31

>  <SCORE.norm>
2.28477

>  <RMSD>
13.686

$$$$
1byj cryst
 OpenBabel11021811383D
libRbt.so/2013.1/901 2013/11/27
 31 33  0  0  0  0  0  0  0  0999 V2000
   -6.8664   -2.4195   -3.4945 C   0  0  1  0  0  0  0  0  0  0  0  0
   -6.0333   -3.5682   -3.8530 O   0  0  0  0  0  0  0  0  0  0  0  0
   -5.3988   -3.5896   -5.1666 C   0  0  2  0  0  0  0  0  0  0  0  0
   -4.3620   -2.5646   -5.2730 O   0  0  0  0  0  0  0  0  0  0  0  0
   -6.4866   -3.4013   -6.2674 C   0  0  2  0  0  0  0  0  0  0  0  0
   -5.9364   -3.4092   -7.6371 N   0  3  0  0  0  0  0  0  0  0  0  0
   -7.2815   -2.0948   -6.0119 C   0  0  0  0  0  0  0  0  0  0  0  0
   -7.9009   -2.0917   -4.6063 C   0  0  0  0  0  0  0  0  0  0  0  0
   -7.6105   -2.7182   -2.1810 C   0  0  0  0  0  0  0  0  0  0  0  0
   -7.0164   -2.0739   -1.0023 N   0  3  0  0  0  0  0  0  0  0  0  0
   -2.5033   -1.4725   -4.0801 C   0  0  1  0  0  0  0  0  0  0  0  0
   -1.0708   -1.6447   -3.5191 C   0  0  0  0  0  0  0  0  0  0  0  0
   -0.1032   -2.1202   -4.6359 C   0  0  1  0  0  0  0  0  0  0  0  0
    1.2715   -2.2051   -4.1069 N   0  3  0  0  0  0  0  0  0  0  0  0
   -0.5844   -3.4785   -5.2234 C   0  0  1  0  0  0  0  0  0  0  0  0
   -2.0531   -3.4021   -5.7104 C   0  0  1  0  0  0  0  0  0  0  0  0
   -2.4334   -4.7242   -6.0616 O   0  0  0  0  0  0  0  0  0  0  0  0
   -3.0563   -2.8138   -4.6640 C   0  0  2  0  0  0  0  0  0  0  0  0
   -3.3911   -0.9232   -3.0401 N   0  3  0  0  0  0  0  0  0  0  0  0
    0.4689   -0.9347   -7.2182 C   0  0  0  0  0  0  0  0  0  0  0  0
    1.5644   -0.9125   -8.3122 C   0  0  2  0  0  0  0  0  0  0  0  0
    0.9506   -0.4313   -9.5071 O   0  0  0  0  0  0  0  0  0  0  0  0
    2.1297   -2.3684   -8.5179 C   0  0  1  0  0  0  0  0  0  0  0  0
    1.0014   -3.4427   -8.6820 C   0  0  2  0  0  0  0  0  0  0  0  0
   -0.1482   -3.2928   -7.6535 C   0  0  1  0  0  0  0  0  0  0  0  0
    0.2289   -3.8576   -6.3704 O   0  0  0  0  0  0  0  0  0  0  0  0
   -0.5660   -1.9035   -7.5349 O   0  0  0  0  0  0  0  0  0  0  0  0
    1.5249   -4.7656   -8.5972 O   0  0  0  0  0  0  0  0  0  0  0  0
    3.0547   -2.3906   -9.6936 N   0  3  0  0  0  0  0  0  0  0  0  0
    3.9017   -3.5895   -9.8581 C   0  0  0  0  0  0  0  0  0  0  0  0
    2.6491    0.1154   -7.9059 C   0  0  0  0  0  0  0  0  0  0  0  0
  1  8  1  0  0  0  0
  1  9  1  1  0  0  0
  1  2  1  0  0  0  0
  2  3  1  0  0  0  0
  3  5  1  0  0  0  0
  3  4  1  1  0  0  0
  5  7  1  0  0  0  0
  5  6  1  6  0  0  0
  7  8  1  0  0  0  0
  9 10  1  0  0  0  0
 11 12  1  0  0  0  0
 11 18  1  0  0  0  0
 11 19  1  1  0  0  0
 12 13  1  0  0  0  0
 13 15  1  0  0  0  0
 13 14  1  1  0  0  0
 15 16  1  0  0  0  0
 15 26  1  6  0  0  0
 16 18  1  0  0  0  0
 16 17  1  1  0  0  0
 18  4  1  6  0  0  0
 20 21  1  0  0  0  0
 20 27  1  0  0  0  0
 21 31  1  1  0  0  0
 21 23  1  0  0  0  0
 21 22  1  0  0  0  0
 23 24  1  0  0  0  0
 23 29  1  6  0  0  0
 24 25  1  0  0  0  0
 24 28  1  1  0  0  0
 25 27  1  0  0  0  0
 25 26  1  1  0  0  0
 29 30  1  0  0  0  0
M  CHG  5   6   1  10   1  14   1  19   1  29   1
M  END
>  <CHROM.1>
101.79647609,78.68517108,-143.78338595,-177.17628555,-177.66741220,29.78210884
61.21279071,-84.24729042,-59.24648688,42.15784832,-71.94781885,-82.79220762
163.92162994,-1.98296524,-2.53511589,-6.01934331,2.67868738,0.19734581,1.25207715

>  <Name>
1byj cryst

>  <RI>
0

>  <Rbt.Current_Directory>
/home/itssahil/PROJECTS/Mol_Feturizer/New_Systems/rnas/1byj

>  <Rbt.Executable>
rbdock ($Id: //depot/dev/client3/rdock/2013.1/src/exe/rbdock.cxx#4 $)

>  <Rbt.Library>
libRbt.so (2013.1, Build901 2013/11/27)

>  <Rbt.Parameter_File>
/export/apps/rDock/src/rDock_2013.1_src/data/scripts/dock_solv.prm

>  <Rbt.Receptor>
prm/blind_docking_40.prm

>  <SCORE>
14.5656

>  <SCORE.INTER>
5.55219

>  <SCORE.INTER.CONST>
1

>  <SCORE.INTER.POLAR>
-3.09821

>  <SCORE.INTER.ROT>
6

>  <SCORE.INTER.SOLV>
18.4466

>  <SCORE.INTER.VDW>
0.279989

>  <SCORE.INTER.norm>
0.179103

>  <SCORE.INTRA>
2.03253

>  <SCORE.INTRA.DIHEDRAL>
1.92138

>  <SCORE.INTRA.DIHEDRAL.0>
18.4149

>  <SCORE.INTRA.POLAR>
0

>  <SCORE.INTRA.POLAR.0>
0

>  <SCORE.INTRA.REPUL>
-0.092687

>  <SCORE.INTRA.REPUL.0>
0.092687

>  <SCORE.INTRA.SOLV>
-2.1704

>  <SCORE.INTRA.SOLV.lig_0>
-120.37

>  <SCORE.INTRA.VDW>
2.62048

>  <SCORE.INTRA.VDW.0>
-1.75542

>  <SCORE.INTRA.norm>
0.0655656

>  <SCORE.RESTR>
6.98085

>  <SCORE.RESTR.CAVITY>
6.98085

>  <SCORE.RESTR.norm>
0.225189

>  <SCORE.SYSTEM>
0

>  <SCORE.SYSTEM.CONST>
0

>  <SCORE.SYSTEM.DIHEDRAL>
0

>  <SCORE.SYSTEM.SOLV>
0

>  <SCORE.SYSTEM.norm>
0

>  <SCORE.heavy>
31

>  <SCORE.norm>
0.469857

>  <RMSD>
13.696

$$$$
1byj cryst
 OpenBabel11021811383D
libRbt.so/2013.1/901 2013/11/27
 31 33  0  0  0  0  0  0  0  0999 V2000
   -4.6158   -1.3664   -5.0087 C   0  0  1  0  0  0  0  0  0  0  0  0
   -5.0415   -2.6357   -5.6000 O   0  0  0  0  0  0  0  0  0  0  0  0
   -5.2489   -2.7009   -7.0427 C   0  0  2  0  0  0  0  0  0  0  0  0
   -3.9864   -2.5694   -7.7677 O   0  0  0  0  0  0  0  0  0  0  0  0
   -6.2570   -1.5907   -7.4690 C   0  0  2  0  0  0  0  0  0  0  0  0
   -6.5306   -1.5784   -8.9195 N   0  3  0  0  0  0  0  0  0  0  0  0
   -5.7477   -0.2023   -7.0033 C   0  0  0  0  0  0  0  0  0  0  0  0
   -5.5034   -0.1843   -5.4869 C   0  0  0  0  0  0  0  0  0  0  0  0
   -4.6887   -1.4675   -3.4748 C   0  0  0  0  0  0  0  0  0  0  0  0
   -5.9785   -1.9590   -2.9728 N   0  3  0  0  0  0  0  0  0  0  0  0
   -3.4336   -4.9310   -7.3349 C   0  0  1  0  0  0  0  0  0  0  0  0
   -2.3357   -5.9210   -6.8755 C   0  0  0  0  0  0  0  0  0  0  0  0
   -1.7859   -5.5145   -5.4818 C   0  0  1  0  0  0  0  0  0  0  0  0
   -0.7974   -6.5087   -5.0222 N   0  3  0  0  0  0  0  0  0  0  0  0
   -1.1845   -4.0803   -5.5373 C   0  0  1  0  0  0  0  0  0  0  0  0
   -2.2049   -3.0539   -6.0898 C   0  0  1  0  0  0  0  0  0  0  0  0
   -1.5017   -1.8315   -6.2552 O   0  0  0  0  0  0  0  0  0  0  0  0
   -2.8836   -3.4704   -7.4363 C   0  0  2  0  0  0  0  0  0  0  0  0
   -4.0206   -5.3825   -8.6089 N   0  3  0  0  0  0  0  0  0  0  0  0
    1.5441   -4.7572   -5.7997 C   0  0  0  0  0  0  0  0  0  0  0  0
    2.1381   -3.5490   -6.5645 C   0  0  2  0  0  0  0  0  0  0  0  0
    3.4842   -3.3935   -6.1173 O   0  0  0  0  0  0  0  0  0  0  0  0
    1.2889   -2.2601   -6.2495 C   0  0  1  0  0  0  0  0  0  0  0  0
    1.0328   -2.0584   -4.7173 C   0  0  2  0  0  0  0  0  0  0  0  0
    0.6048   -3.3565   -3.9867 C   0  0  1  0  0  0  0  0  0  0  0  0
   -0.8036   -3.6325   -4.2050 O   0  0  0  0  0  0  0  0  0  0  0  0
    1.4461   -4.4783   -4.3775 O   0  0  0  0  0  0  0  0  0  0  0  0
    0.0512   -1.0526   -4.4809 O   0  0  0  0  0  0  0  0  0  0  0  0
    1.9586   -1.0574   -6.8356 N   0  3  0  0  0  0  0  0  0  0  0  0
    1.7361   -0.7996   -8.2729 C   0  0  0  0  0  0  0  0  0  0  0  0
    2.1913   -3.8956   -8.0728 C   0  0  0  0  0  0  0  0  0  0  0  0
  1  8  1  0  0  0  0
  1  9  1  1  0  0  0
  1  2  1  0  0  0  0
  2  3  1  0  0  0  0
  3  5  1  0  0  0  0
  3  4  1  6  0  0  0
  5  7  1  0  0  0  0
  5  6  1  6  0  0  0
  7  8  1  0  0  0  0
  9 10  1  0  0  0  0
 11 12  1  0  0  0  0
 11 18  1  0  0  0  0
 11 19  1  6  0  0  0
 12 13  1  0  0  0  0
 13 15  1  0  0  0  0
 13 14  1  6  0  0  0
 15 16  1  0  0  0  0
 15 26  1  1  0  0  0
 16 18  1  0  0  0  0
 16 17  1  6  0  0  0
 18  4  1  1  0  0  0
 20 21  1  0  0  0  0
 20 27  1  0  0  0  0
 21 31  1  6  0  0  0
 21 23  1  0  0  0  0
 21 22  1  0  0  0  0
 23 24  1  0  0  0  0
 23 29  1  1  0  0  0
 24 25  1  0  0  0  0
 24 28  1  6  0  0  0
 25 27  1  0  0  0  0
 25 26  1  6  0  0  0
 29 30  1  0  0  0  0
M  CHG  5   6   1  10   1  14   1  19   1  29   1
M  END
>  <CHROM.1>
-51.10601608,53.96853483,45.80863143,-45.37340607,39.46849702,-84.65560217
-103.09804848,117.53924706,80.30748930,179.60203574,-157.43231001,-171.51676001
71.72058991,-1.83443122,-2.93861251,-6.10031515,-2.99255729,0.12968341,-2.73727663

>  <Name>
1byj cryst

>  <RI>
0

>  <Rbt.Current_Directory>
/home/itssahil/PROJECTS/Mol_Feturizer/New_Systems/rnas/1byj

>  <Rbt.Executable>
rbdock ($Id: //depot/dev/client3/rdock/2013.1/src/exe/rbdock.cxx#4 $)

>  <Rbt.Library>
libRbt.so (2013.1, Build901 2013/11/27)

>  <Rbt.Parameter_File>
/export/apps/rDock/src/rDock_2013.1_src/data/scripts/dock_solv.prm

>  <Rbt.Receptor>
prm/blind_docking_100.prm

>  <SCORE>
-3.12759

>  <SCORE.INTER>
-12.0345

>  <SCORE.INTER.CONST>
1

>  <SCORE.INTER.POLAR>
-2.41015

>  <SCORE.INTER.ROT>
6

>  <SCORE.INTER.SOLV>
25.2146

>  <SCORE.INTER.VDW>
-15.994

>  <SCORE.INTER.norm>
-0.388208

>  <SCORE.INTRA>
3.52548

>  <SCORE.INTRA.DIHEDRAL>
0.00213832

>  <SCORE.INTRA.DIHEDRAL.0>
18.4149

>  <SCORE.INTRA.POLAR>
-0.340682

>  <SCORE.INTRA.POLAR.0>
0

>  <SCORE.INTRA.REPUL>
0.000251624

>  <SCORE.INTRA.REPUL.0>
0.092687

>  <SCORE.INTRA.SOLV>
2.21705

>  <SCORE.INTRA.SOLV.lig_0>
-120.37

>  <SCORE.INTRA.VDW>
3.57294

>  <SCORE.INTRA.VDW.0>
-1.75542

>  <SCORE.INTRA.norm>
0.113725

>  <SCORE.RESTR>
5.38139

>  <SCORE.RESTR.CAVITY>
5.38139

>  <SCORE.RESTR.norm>
0.173593

>  <SCORE.SYSTEM>
0

>  <SCORE.SYSTEM.CONST>
0

>  <SCORE.SYSTEM.DIHEDRAL>
0

>  <SCORE.SYSTEM.SOLV>
0

>  <SCORE.SYSTEM.norm>
0

>  <SCORE.heavy>
31

>  <SCORE.norm>
-0.10089

>  <RMSD>
13.721

$$$$
1byj cryst
 OpenBabel11021811383D
libRbt.so/2013.1/901 2013/11/27
 31 33  0  0  0  0  0  0  0  0999 V2000
   -4.8598   -1.1126   -3.1759 C   0  0  1  0  0  0  0  0  0  0  0  0
   -4.6653   -2.4927   -3.6225 O   0  0  0  0  0  0  0  0  0  0  0  0
   -5.8381   -3.2861   -3.9746 C   0  0  2  0  0  0  0  0  0  0  0  0
   -6.4750   -2.7828   -5.1902 O   0  0  0  0  0  0  0  0  0  0  0  0
   -6.8378   -3.2866   -2.7783 C   0  0  2  0  0  0  0  0  0  0  0  0
   -8.0619   -4.0680   -3.0428 N   0  3  0  0  0  0  0  0  0  0  0  0
   -7.2001   -1.8307   -2.3871 C   0  0  0  0  0  0  0  0  0  0  0  0
   -5.9387   -1.0165   -2.0622 C   0  0  0  0  0  0  0  0  0  0  0  0
   -3.5282   -0.5560   -2.6418 C   0  0  0  0  0  0  0  0  0  0  0  0
   -2.8559   -1.4429   -1.6833 N   0  3  0  0  0  0  0  0  0  0  0  0
   -5.7381   -4.3023   -6.9841 C   0  0  1  0  0  0  0  0  0  0  0  0
   -4.8728   -4.4456   -8.2598 C   0  0  0  0  0  0  0  0  0  0  0  0
   -3.4024   -4.0429   -7.9673 C   0  0  1  0  0  0  0  0  0  0  0  0
   -2.5741   -4.2581   -9.1691 N   0  3  0  0  0  0  0  0  0  0  0  0
   -3.3357   -2.5691   -7.4722 C   0  0  1  0  0  0  0  0  0  0  0  0
   -4.2640   -2.3329   -6.2545 C   0  0  1  0  0  0  0  0  0  0  0  0
   -4.2529   -0.9359   -6.0009 O   0  0  0  0  0  0  0  0  0  0  0  0
   -5.7336   -2.8326   -6.4494 C   0  0  2  0  0  0  0  0  0  0  0  0
   -7.1062   -4.7840   -7.2443 N   0  3  0  0  0  0  0  0  0  0  0  0
   -0.1687   -4.6012   -6.4150 C   0  0  0  0  0  0  0  0  0  0  0  0
    1.1309   -3.9826   -5.8440 C   0  0  2  0  0  0  0  0  0  0  0  0
    1.2750   -4.4723   -4.5115 O   0  0  0  0  0  0  0  0  0  0  0  0
    1.0131   -2.4118   -5.8558 C   0  0  1  0  0  0  0  0  0  0  0  0
   -0.3330   -1.8969   -5.2420 C   0  0  2  0  0  0  0  0  0  0  0  0
   -1.5759   -2.6810   -5.7341 C   0  0  1  0  0  0  0  0  0  0  0  0
   -1.9829   -2.2302   -7.0528 O   0  0  0  0  0  0  0  0  0  0  0  0
   -1.3362   -4.1163   -5.6997 O   0  0  0  0  0  0  0  0  0  0  0  0
   -0.5296   -0.5102   -5.5060 O   0  0  0  0  0  0  0  0  0  0  0  0
    2.1827   -1.8115   -5.1416 N   0  3  0  0  0  0  0  0  0  0  0  0
    2.9592   -0.7871   -5.8693 C   0  0  0  0  0  0  0  0  0  0  0  0
    2.3333   -4.5143   -6.6623 C   0  0  0  0  0  0  0  0  0  0  0  0
  1  8  1  0  0  0  0
  1  9  1  1  0  0  0
  1  2  1  0  0  0  0
  2  3  1  0  0  0  0
  3  5  1  0  0  0  0
  3  4  1  6  0  0  0
  5  7  1  0  0  0  0
  5  6  1  6  0  0  0
  7  8  1  0  0  0  0
  9 10  1  0  0  0  0
 11 12  1  0  0  0  0
 11 18  1  0  0  0  0
 11 19  1  6  0  0  0
 12 13  1  0  0  0  0
 13 15  1  0  0  0  0
 13 14  1  6  0  0  0
 15 16  1  0  0  0  0
 15 26  1  1  0  0  0
 16 18  1  0  0  0  0
 16 17  1  6  0  0  0
 18  4  1  1  0  0  0
 20 21  1  0  0  0  0
 20 27  1  0  0  0  0
 21 31  1  6  0  0  0
 21 23  1  0  0  0  0
 21 22  1  0  0  0  0
 23 24  1  0  0  0  0
 23 29  1  1  0  0  0
 24 25  1  0  0  0  0
 24 28  1  6  0  0  0
 25 27  1  0  0  0  0
 25 26  1  6  0  0  0
 29 30  1  0  0  0  0
M  CHG  5   6   1  10   1  14   1  19   1  29   1
M  END
>  <CHROM.1>
-49.07050458,64.02765796,76.36392834,173.56240929,-157.09182692,-65.17318546
65.91629171,-79.57313812,64.36370060,62.69675124,-112.11237143,-60.01971519
-162.05914990,-2.97133386,-2.78930774,-5.34401465,-2.94772017,-0.11380965
-2.07955366

>  <Name>
1byj cryst

>  <RI>
0

>  <Rbt.Current_Directory>
/home/itssahil/PROJECTS/Mol_Feturizer/New_Systems/rnas/1byj

>  <Rbt.Executable>
rbdock ($Id: //depot/dev/client3/rdock/2013.1/src/exe/rbdock.cxx#4 $)

>  <Rbt.Library>
libRbt.so (2013.1, Build901 2013/11/27)

>  <Rbt.Parameter_File>
/export/apps/rDock/src/rDock_2013.1_src/data/scripts/dock_solv.prm

>  <Rbt.Receptor>
prm/blind_docking_40.prm

>  <SCORE>
-10.1826

>  <SCORE.INTER>
-10.621

>  <SCORE.INTER.CONST>
1

>  <SCORE.INTER.POLAR>
-3.18645

>  <SCORE.INTER.ROT>
6

>  <SCORE.INTER.SOLV>
20.1804

>  <SCORE.INTER.VDW>
-10.786

>  <SCORE.INTER.norm>
-0.342614

>  <SCORE.INTRA>
-4.62613

>  <SCORE.INTRA.DIHEDRAL>
-8.12066

>  <SCORE.INTRA.DIHEDRAL.0>
18.4149

>  <SCORE.INTRA.POLAR>
-0.0012112

>  <SCORE.INTRA.POLAR.0>
0

>  <SCORE.INTRA.REPUL>
-0.092687

>  <SCORE.INTRA.REPUL.0>
0.092687

>  <SCORE.INTRA.SOLV>
-0.00697129

>  <SCORE.INTRA.SOLV.lig_0>
-120.37

>  <SCORE.INTRA.VDW>
-0.0947597

>  <SCORE.INTRA.VDW.0>
-1.75542

>  <SCORE.INTRA.norm>
-0.14923

>  <SCORE.RESTR>
5.06453

>  <SCORE.RESTR.CAVITY>
5.06453

>  <SCORE.RESTR.norm>
0.163372

>  <SCORE.SYSTEM>
0

>  <SCORE.SYSTEM.CONST>
0

>  <SCORE.SYSTEM.DIHEDRAL>
0

>  <SCORE.SYSTEM.SOLV>
0

>  <SCORE.SYSTEM.norm>
0

>  <SCORE.heavy>
31

>  <SCORE.norm>
-0.328472

>  <RMSD>
13.734

$$$$
1byj cryst
 OpenBabel11021811383D
libRbt.so/2013.1/901 2013/11/27
 31 33  0  0  0  0  0  0  0  0999 V2000
   -6.4157   -3.0001   -5.7141 C   0  0  1  0  0  0  0  0  0  0  0  0
   -5.4637   -2.5771   -6.7421 O   0  0  0  0  0  0  0  0  0  0  0  0
   -4.2447   -1.8911   -6.3271 C   0  0  2  0  0  0  0  0  0  0  0  0
   -3.3500   -2.7901   -5.6003 O   0  0  0  0  0  0  0  0  0  0  0  0
   -4.6208   -0.6529   -5.4577 C   0  0  2  0  0  0  0  0  0  0  0  0
   -3.4459    0.1079   -4.9890 N   0  3  0  0  0  0  0  0  0  0  0  0
   -5.4946   -1.0930   -4.2549 C   0  0  0  0  0  0  0  0  0  0  0  0
   -6.7470   -1.8454   -4.7288 C   0  0  0  0  0  0  0  0  0  0  0  0
   -7.7135   -3.4814   -6.3867 C   0  0  0  0  0  0  0  0  0  0  0  0
   -8.6046   -4.2295   -5.4903 N   0  3  0  0  0  0  0  0  0  0  0  0
   -2.8447   -5.0522   -6.4358 C   0  0  1  0  0  0  0  0  0  0  0  0
   -1.7894   -5.9523   -7.1234 C   0  0  0  0  0  0  0  0  0  0  0  0
   -0.4522   -5.9212   -6.3355 C   0  0  1  0  0  0  0  0  0  0  0  0
    0.5184   -6.8424   -6.9568 N   0  3  0  0  0  0  0  0  0  0  0  0
    0.0946   -4.4662   -6.2593 C   0  0  1  0  0  0  0  0  0  0  0  0
   -0.9568   -3.4908   -5.6733 C   0  0  1  0  0  0  0  0  0  0  0  0
   -0.4184   -2.1841   -5.8099 O   0  0  0  0  0  0  0  0  0  0  0  0
   -2.3645   -3.5661   -6.3516 C   0  0  2  0  0  0  0  0  0  0  0  0
   -4.1387   -5.1687   -7.1310 N   0  3  0  0  0  0  0  0  0  0  0  0
    1.7222   -3.8030   -8.3549 C   0  0  0  0  0  0  0  0  0  0  0  0
    1.9681   -2.2761   -8.4313 C   0  0  2  0  0  0  0  0  0  0  0  0
    3.2807   -2.0913   -8.9596 O   0  0  0  0  0  0  0  0  0  0  0  0
    1.8498   -1.6531   -6.9894 C   0  0  1  0  0  0  0  0  0  0  0  0
    2.6758   -2.4400   -5.9158 C   0  0  2  0  0  0  0  0  0  0  0  0
    2.5093   -3.9777   -6.0138 C   0  0  1  0  0  0  0  0  0  0  0  0
    1.2661   -4.4035   -5.3967 O   0  0  0  0  0  0  0  0  0  0  0  0
    2.6141   -4.4283   -7.3939 O   0  0  0  0  0  0  0  0  0  0  0  0
    2.3423   -2.0244   -4.5940 O   0  0  0  0  0  0  0  0  0  0  0  0
    2.2630   -0.2156   -7.0240 N   0  3  0  0  0  0  0  0  0  0  0  0
    1.2823    0.7515   -7.5577 C   0  0  0  0  0  0  0  0  0  0  0  0
    0.9726   -1.6647   -9.4478 C   0  0  0  0  0  0  0  0  0  0  0  0
  1  8  1  0  0  0  0
  1  9  1  6  0  0  0
  1  2  1  0  0  0  0
  2  3  1  0  0  0  0
  3  5  1  0  0  0  0
  3  4  1  1  0  0  0
  5  7  1  0  0  0  0
  5  6  1  1  0  0  0
  7  8  1  0  0  0  0
  9 10  1  0  0  0  0
 11 12  1  0  0  0  0
 11 18  1  0  0  0  0
 11 19  1  6  0  0  0
 12 13  1  0  0  0  0
 13 15  1  0  0  0  0
 13 14  1  6  0  0  0
 15 16  1  0  0  0  0
 15 26  1  1  0  0  0
 16 18  1  0  0  0  0
 16 17  1  6  0  0  0
 18  4  1  1  0  0  0
 20 21  1  0  0  0  0
 20 27  1  0  0  0  0
 21 31  1  6  0  0  0
 21 23  1  0  0  0  0
 21 22  1  0  0  0  0
 23 24  1  0  0  0  0
 23 29  1  6  0  0  0
 24 25  1  0  0  0  0
 24 28  1  1  0  0  0
 25 27  1  0  0  0  0
 25 26  1  6  0  0  0
 29 30  1  0  0  0  0
M  CHG  5   6   1  10   1  14   1  19   1  29   1
M  END
>  <CHROM.1>
165.77926357,89.41234490,-104.86924947,38.63813856,-163.99808568,160.79289503
177.60750694,118.27841843,-73.66458278,59.36567248,-161.00502245,-170.14015214
90.43552649,-1.39513941,-2.97333479,-6.44460264,-3.13682148,-0.17971676,-3.03133538

>  <Name>
1byj cryst

>  <RI>
0

>  <Rbt.Current_Directory>
/home/itssahil/PROJECTS/Mol_Feturizer/New_Systems/rnas/1byj

>  <Rbt.Executable>
rbdock ($Id: //depot/dev/client3/rdock/2013.1/src/exe/rbdock.cxx#4 $)

>  <Rbt.Library>
libRbt.so (2013.1, Build901 2013/11/27)

>  <Rbt.Parameter_File>
/export/apps/rDock/src/rDock_2013.1_src/data/scripts/dock_solv.prm

>  <Rbt.Receptor>
prm/blind_docking_40.prm

>  <SCORE>
-14.8074

>  <SCORE.INTER>
-24.8816

>  <SCORE.INTER.CONST>
1

>  <SCORE.INTER.POLAR>
-3.73544

>  <SCORE.INTER.ROT>
6

>  <SCORE.INTER.SOLV>
26.0012

>  <SCORE.INTER.VDW>
-20.4034

>  <SCORE.INTER.norm>
-0.802633

>  <SCORE.INTRA>
2.59413

>  <SCORE.INTRA.DIHEDRAL>
7.56429

>  <SCORE.INTRA.DIHEDRAL.0>
18.4149

>  <SCORE.INTRA.POLAR>
-1.11349

>  <SCORE.INTRA.POLAR.0>
0

>  <SCORE.INTRA.REPUL>
-0.092687

>  <SCORE.INTRA.REPUL.0>
0.092687

>  <SCORE.INTRA.SOLV>
2.10784

>  <SCORE.INTRA.SOLV.lig_0>
-120.37

>  <SCORE.INTRA.VDW>
2.00735

>  <SCORE.INTRA.VDW.0>
-1.75542

>  <SCORE.INTRA.norm>
0.0836816

>  <SCORE.RESTR>
7.48012

>  <SCORE.RESTR.CAVITY>
7.48012

>  <SCORE.RESTR.norm>
0.241294

>  <SCORE.SYSTEM>
0

>  <SCORE.SYSTEM.CONST>
0

>  <SCORE.SYSTEM.DIHEDRAL>
0

>  <SCORE.SYSTEM.SOLV>
0

>  <SCORE.SYSTEM.norm>
0

>  <SCORE.heavy>
31

>  <SCORE.norm>
-0.477657

>  <RMSD>
13.736

$$$$
1byj cryst
 OpenBabel11021811383D
libRbt.so/2013.1/901 2013/11/27
 31 33  0  0  0  0  0  0  0  0999 V2000
   -1.6043   -2.9803   -5.2333 C   0  0  1  0  0  0  0  0  0  0  0  0
   -1.6132   -3.0391   -6.6957 O   0  0  0  0  0  0  0  0  0  0  0  0
   -1.5665   -4.3455   -7.3438 C   0  0  2  0  0  0  0  0  0  0  0  0
   -2.8007   -5.0954   -7.1177 O   0  0  0  0  0  0  0  0  0  0  0  0
   -0.3282   -5.1356   -6.8217 C   0  0  2  0  0  0  0  0  0  0  0  0
   -0.1970   -6.4769   -7.4240 N   0  3  0  0  0  0  0  0  0  0  0  0
   -0.3768   -5.2401   -5.2755 C   0  0  0  0  0  0  0  0  0  0  0  0
   -0.4654   -3.8486   -4.6310 C   0  0  0  0  0  0  0  0  0  0  0  0
   -1.4224   -1.5205   -4.7818 C   0  0  0  0  0  0  0  0  0  0  0  0
   -2.6318   -0.6995   -4.9253 N   0  3  0  0  0  0  0  0  0  0  0  0
   -4.0693   -3.5962   -8.6055 C   0  0  1  0  0  0  0  0  0  0  0  0
   -5.3581   -2.7549   -8.7718 C   0  0  0  0  0  0  0  0  0  0  0  0
   -5.5070   -1.7507   -7.5974 C   0  0  1  0  0  0  0  0  0  0  0  0
   -6.6962   -0.9033   -7.8088 N   0  3  0  0  0  0  0  0  0  0  0  0
   -5.5702   -2.5125   -6.2419 C   0  0  1  0  0  0  0  0  0  0  0  0
   -4.3548   -3.4556   -6.0594 C   0  0  1  0  0  0  0  0  0  0  0  0
   -4.6031   -4.2150   -4.8857 O   0  0  0  0  0  0  0  0  0  0  0  0
   -4.0828   -4.4092   -7.2695 C   0  0  2  0  0  0  0  0  0  0  0  0
   -3.8830   -4.4726   -9.7754 N   0  3  0  0  0  0  0  0  0  0  0  0
   -7.9335   -3.4938   -5.1197 C   0  0  0  0  0  0  0  0  0  0  0  0
   -7.9802   -4.0853   -3.6895 C   0  0  2  0  0  0  0  0  0  0  0  0
   -9.2365   -3.7121   -3.1250 O   0  0  0  0  0  0  0  0  0  0  0  0
   -6.7876   -3.5020   -2.8417 C   0  0  1  0  0  0  0  0  0  0  0  0
   -6.6687   -1.9436   -2.9487 C   0  0  2  0  0  0  0  0  0  0  0  0
   -6.8033   -1.4122   -4.3983 C   0  0  1  0  0  0  0  0  0  0  0  0
   -5.5582   -1.5761   -5.1268 O   0  0  0  0  0  0  0  0  0  0  0  0
   -7.9221   -2.0417   -5.0844 O   0  0  0  0  0  0  0  0  0  0  0  0
   -5.4397   -1.4756   -2.3994 O   0  0  0  0  0  0  0  0  0  0  0  0
   -6.9287   -3.9237   -1.4132 N   0  3  0  0  0  0  0  0  0  0  0  0
   -8.0152   -3.2969   -0.6330 C   0  0  0  0  0  0  0  0  0  0  0  0
   -7.9624   -5.6304   -3.7920 C   0  0  0  0  0  0  0  0  0  0  0  0
  1  8  1  0  0  0  0
  1  9  1  6  0  0  0
  1  2  1  0  0  0  0
  2  3  1  0  0  0  0
  3  5  1  0  0  0  0
  3  4  1  1  0  0  0
  5  7  1  0  0  0  0
  5  6  1  6  0  0  0
  7  8  1  0  0  0  0
  9 10  1  0  0  0  0
 11 12  1  0  0  0  0
 11 18  1  0  0  0  0
 11 19  1  6  0  0  0
 12 13  1  0  0  0  0
 13 15  1  0  0  0  0
 13 14  1  6  0  0  0
 15 16  1  0  0  0  0
 15 26  1  1  0  0  0
 16 18  1  0  0  0  0
 16 17  1  1  0  0  0
 18  4  1  1  0  0  0
 20 21  1  0  0  0  0
 20 27  1  0  0  0  0
 21 31  1  6  0  0  0
 21 23  1  0  0  0  0
 21 22  1  0  0  0  0
 23 24  1  0  0  0  0
 23 29  1  1  0  0  0
 24 25  1  0  0  0  0
 24 28  1  6  0  0  0
 25 27  1  0  0  0  0
 25 26  1  6  0  0  0
 29 30  1  0  0  0  0
M  CHG  5   6   1  10   1  14   1  19   1  29   1
M  END
>  <CHROM.1>
75.61265077,44.85812637,47.12163494,28.42178757,30.20891135,61.68491997,-173.52148602
108.00328629,-162.96714569,-58.50978339,49.78216705,-35.54393567,113.76080684
-4.67216348,-3.30345187,-5.40363045,-0.54243857,-0.24861493,1.63447759

>  <Name>
1byj cryst

>  <RI>
0

>  <Rbt.Current_Directory>
/home/itssahil/PROJECTS/Mol_Feturizer/New_Systems/rnas/1byj

>  <Rbt.Executable>
rbdock ($Id: //depot/dev/client3/rdock/2013.1/src/exe/rbdock.cxx#4 $)

>  <Rbt.Library>
libRbt.so (2013.1, Build901 2013/11/27)

>  <Rbt.Parameter_File>
/export/apps/rDock/src/rDock_2013.1_src/data/scripts/dock_solv.prm

>  <Rbt.Receptor>
prm/blind_docking_100.prm

>  <SCORE>
-10.8035

>  <SCORE.INTER>
-20.7959

>  <SCORE.INTER.CONST>
1

>  <SCORE.INTER.POLAR>
-3.32683

>  <SCORE.INTER.ROT>
6

>  <SCORE.INTER.SOLV>
15.2294

>  <SCORE.INTER.VDW>
-15.451

>  <SCORE.INTER.norm>
-0.670835

>  <SCORE.INTRA>
0.704468

>  <SCORE.INTRA.DIHEDRAL>
6.00705

>  <SCORE.INTRA.DIHEDRAL.0>
18.4149

>  <SCORE.INTRA.POLAR>
-1.12952

>  <SCORE.INTRA.POLAR.0>
0

>  <SCORE.INTRA.REPUL>
-0.092687

>  <SCORE.INTRA.REPUL.0>
0.092687

>  <SCORE.INTRA.SOLV>
2.51298

>  <SCORE.INTRA.SOLV.lig_0>
-120.37

>  <SCORE.INTRA.VDW>
0.748254

>  <SCORE.INTRA.VDW.0>
-1.75542

>  <SCORE.INTRA.norm>
0.0227248

>  <SCORE.RESTR>
9.28787

>  <SCORE.RESTR.CAVITY>
9.28787

>  <SCORE.RESTR.norm>
0.299609

>  <SCORE.SYSTEM>
0

>  <SCORE.SYSTEM.CONST>
0

>  <SCORE.SYSTEM.DIHEDRAL>
0

>  <SCORE.SYSTEM.SOLV>
0

>  <SCORE.SYSTEM.norm>
0

>  <SCORE.heavy>
31

>  <SCORE.norm>
-0.348501

>  <RMSD>
13.759

$$$$
1byj cryst
 OpenBabel11021811383D
libRbt.so/2013.1/901 2013/11/27
 31 33  0  0  0  0  0  0  0  0999 V2000
   -5.5238   -3.8230   -8.2784 C   0  0  1  0  0  0  0  0  0  0  0  0
   -5.5830   -2.5766   -7.5134 O   0  0  0  0  0  0  0  0  0  0  0  0
   -6.4014   -2.5347   -6.3063 C   0  0  2  0  0  0  0  0  0  0  0  0
   -5.8374   -3.3760   -5.2523 O   0  0  0  0  0  0  0  0  0  0  0  0
   -7.8561   -2.9742   -6.6546 C   0  0  2  0  0  0  0  0  0  0  0  0
   -8.7623   -2.9634   -5.4894 N   0  3  0  0  0  0  0  0  0  0  0  0
   -7.8442   -4.3761   -7.3168 C   0  0  0  0  0  0  0  0  0  0  0  0
   -6.9420   -4.3914   -8.5599 C   0  0  0  0  0  0  0  0  0  0  0  0
   -4.8046   -3.5684   -9.6149 C   0  0  0  0  0  0  0  0  0  0  0  0
   -3.3593   -3.3458   -9.4784 N   0  3  0  0  0  0  0  0  0  0  0  0
   -4.8671   -1.5017   -3.9811 C   0  0  1  0  0  0  0  0  0  0  0  0
   -3.5822   -0.9262   -3.3373 C   0  0  0  0  0  0  0  0  0  0  0  0
   -2.4433   -0.8317   -4.3879 C   0  0  1  0  0  0  0  0  0  0  0  0
   -1.2506   -0.2101   -3.7811 N   0  3  0  0  0  0  0  0  0  0  0  0
   -2.1308   -2.2398   -4.9720 C   0  0  1  0  0  0  0  0  0  0  0  0
   -3.4024   -2.9169   -5.5418 C   0  0  1  0  0  0  0  0  0  0  0  0
   -3.0357   -4.2449   -5.8852 O   0  0  0  0  0  0  0  0  0  0  0  0
   -4.6252   -2.9318   -4.5660 C   0  0  2  0  0  0  0  0  0  0  0  0
   -5.9704   -1.4913   -3.0044 N   0  3  0  0  0  0  0  0  0  0  0  0
    1.0525   -3.5918   -7.5688 C   0  0  0  0  0  0  0  0  0  0  0  0
    1.9507   -2.4741   -8.1530 C   0  0  2  0  0  0  0  0  0  0  0  0
    3.2483   -2.6419   -7.5836 O   0  0  0  0  0  0  0  0  0  0  0  0
    1.3494   -1.0677   -7.7765 C   0  0  1  0  0  0  0  0  0  0  0  0
    0.9850   -0.9475   -6.2577 C   0  0  2  0  0  0  0  0  0  0  0  0
    0.2340   -2.1845   -5.7031 C   0  0  1  0  0  0  0  0  0  0  0  0
   -1.1717   -2.1405   -6.0632 O   0  0  0  0  0  0  0  0  0  0  0  0
    0.8688   -3.4201   -6.1381 O   0  0  0  0  0  0  0  0  0  0  0  0
    0.2059    0.2176   -5.9991 O   0  0  0  0  0  0  0  0  0  0  0  0
    2.3022    0.0137   -8.1779 N   0  3  0  0  0  0  0  0  0  0  0  0
    2.0021    0.7424   -9.4272 C   0  0  0  0  0  0  0  0  0  0  0  0
    2.0860   -2.6951   -9.6797 C   0  0  0  0  0  0  0  0  0  0  0  0
  1  8  1  0  0  0  0
  1  9  1  6  0  0  0
  1  2  1  0  0  0  0
  2  3  1  0  0  0  0
  3  5  1  0  0  0  0
  3  4  1  1  0  0  0
  5  7  1  0  0  0  0
  5  6  1  1  0  0  0
  7  8  1  0  0  0  0
  9 10  1  0  0  0  0
 11 12  1  0  0  0  0
 11 18  1  0  0  0  0
 11 19  1  1  0  0  0
 12 13  1  0  0  0  0
 13 15  1  0  0  0  0
 13 14  1  1  0  0  0
 15 16  1  0  0  0  0
 15 26  1  6  0  0  0
 16 18  1  0  0  0  0
 16 17  1  1  0  0  0
 18  4  1  6  0  0  0
 20 21  1  0  0  0  0
 20 27  1  0  0  0  0
 21 31  1  6  0  0  0
 21 23  1  0  0  0  0
 21 22  1  0  0  0  0
 23 24  1  0  0  0  0
 23 29  1  1  0  0  0
 24 25  1  0  0  0  0
 24 28  1  6  0  0  0
 25 27  1  0  0  0  0
 25 26  1  6  0  0  0
 29 30  1  0  0  0  0
M  CHG  5   6   1  10   1  14   1  19   1  29   1
M  END
>  <CHROM.1>
71.62160442,72.59822188,55.11722337,53.83829964,-74.24516325,-65.34603047
-54.06241814,87.97529738,-176.62891446,57.54384593,-137.76378006,-61.97464435
-125.23591409,-2.52629864,-2.28968274,-6.52187368,3.06217770,0.24491738,1.14478465

>  <Name>
1byj cryst

>  <RI>
0

>  <Rbt.Current_Directory>
/home/itssahil/PROJECTS/Mol_Feturizer/New_Systems/rnas/1byj

>  <Rbt.Executable>
rbdock ($Id: //depot/dev/client3/rdock/2013.1/src/exe/rbdock.cxx#4 $)

>  <Rbt.Library>
libRbt.so (2013.1, Build901 2013/11/27)

>  <Rbt.Parameter_File>
/export/apps/rDock/src/rDock_2013.1_src/data/scripts/dock_solv.prm

>  <Rbt.Receptor>
prm/blind_docking_40.prm

>  <SCORE>
-12.9458

>  <SCORE.INTER>
-12.7462

>  <SCORE.INTER.CONST>
1

>  <SCORE.INTER.POLAR>
-2.74695

>  <SCORE.INTER.ROT>
6

>  <SCORE.INTER.SOLV>
15.6071

>  <SCORE.INTER.VDW>
-12.1433

>  <SCORE.INTER.norm>
-0.411168

>  <SCORE.INTRA>
-6.79521

>  <SCORE.INTRA.DIHEDRAL>
-2.97138

>  <SCORE.INTRA.DIHEDRAL.0>
18.4149

>  <SCORE.INTRA.POLAR>
-1.26326

>  <SCORE.INTRA.POLAR.0>
0

>  <SCORE.INTRA.REPUL>
-0.092687

>  <SCORE.INTRA.REPUL.0>
0.092687

>  <SCORE.INTRA.SOLV>
2.76608

>  <SCORE.INTRA.SOLV.lig_0>
-120.37

>  <SCORE.INTRA.VDW>
-1.93405

>  <SCORE.INTRA.VDW.0>
-1.75542

>  <SCORE.INTRA.norm>
-0.2192

>  <SCORE.RESTR>
6.59564

>  <SCORE.RESTR.CAVITY>
6.59564

>  <SCORE.RESTR.norm>
0.212762

>  <SCORE.SYSTEM>
0

>  <SCORE.SYSTEM.CONST>
0

>  <SCORE.SYSTEM.DIHEDRAL>
0

>  <SCORE.SYSTEM.SOLV>
0

>  <SCORE.SYSTEM.norm>
0

>  <SCORE.heavy>
31

>  <SCORE.norm>
-0.417606

>  <RMSD>
13.763

$$$$
1byj cryst
 OpenBabel11021811383D
libRbt.so/2013.1/901 2013/11/27
 31 33  0  0  0  0  0  0  0  0999 V2000
   -4.8100   -3.6509   -8.2229 C   0  0  1  0  0  0  0  0  0  0  0  0
   -5.1420   -2.4097   -7.5220 O   0  0  0  0  0  0  0  0  0  0  0  0
   -6.1075   -2.4599   -6.4293 C   0  0  2  0  0  0  0  0  0  0  0  0
   -5.5723   -3.1877   -5.2801 O   0  0  0  0  0  0  0  0  0  0  0  0
   -7.4287   -3.1121   -6.9387 C   0  0  2  0  0  0  0  0  0  0  0  0
   -8.4706   -3.2065   -5.8973 N   0  3  0  0  0  0  0  0  0  0  0  0
   -7.1347   -4.5118   -7.5374 C   0  0  0  0  0  0  0  0  0  0  0  0
   -6.0861   -4.4241   -8.6564 C   0  0  0  0  0  0  0  0  0  0  0  0
   -3.9669   -3.3247   -9.4682 C   0  0  0  0  0  0  0  0  0  0  0  0
   -3.4359   -4.5106  -10.1530 N   0  3  0  0  0  0  0  0  0  0  0  0
   -4.4597   -1.3252   -4.1123 C   0  0  1  0  0  0  0  0  0  0  0  0
   -3.1128   -0.7708   -3.5877 C   0  0  0  0  0  0  0  0  0  0  0  0
   -2.0690   -0.7036   -4.7348 C   0  0  1  0  0  0  0  0  0  0  0  0
   -0.8164   -0.1015   -4.2394 N   0  3  0  0  0  0  0  0  0  0  0  0
   -1.8351   -2.1205   -5.3341 C   0  0  1  0  0  0  0  0  0  0  0  0
   -3.1641   -2.7764   -5.7853 C   0  0  1  0  0  0  0  0  0  0  0  0
   -2.8534   -4.1130   -6.1502 O   0  0  0  0  0  0  0  0  0  0  0  0
   -4.2964   -2.7629   -4.7060 C   0  0  2  0  0  0  0  0  0  0  0  0
   -5.4726   -1.2886   -3.0427 N   0  3  0  0  0  0  0  0  0  0  0  0
    1.5176   -3.7676   -6.1228 C   0  0  0  0  0  0  0  0  0  0  0  0
    2.3774   -3.5344   -7.3893 C   0  0  2  0  0  0  0  0  0  0  0  0
    3.6136   -2.9689   -6.9555 O   0  0  0  0  0  0  0  0  0  0  0  0
    1.6216   -2.5533   -8.3628 C   0  0  1  0  0  0  0  0  0  0  0  0
    1.0827   -1.2724   -7.6398 C   0  0  2  0  0  0  0  0  0  0  0  0
    0.3821   -1.5735   -6.2906 C   0  0  1  0  0  0  0  0  0  0  0  0
   -0.9738   -2.0454   -6.5059 O   0  0  0  0  0  0  0  0  0  0  0  0
    1.1631   -2.5077   -5.4928 O   0  0  0  0  0  0  0  0  0  0  0  0
    0.1843   -0.5432   -8.4719 O   0  0  0  0  0  0  0  0  0  0  0  0
    2.5182   -2.1794   -9.5006 N   0  3  0  0  0  0  0  0  0  0  0  0
    3.1210   -0.8314   -9.4645 C   0  0  0  0  0  0  0  0  0  0  0  0
    2.6987   -4.9075   -8.0292 C   0  0  0  0  0  0  0  0  0  0  0  0
  1  8  1  0  0  0  0
  1  9  1  6  0  0  0
  1  2  1  0  0  0  0
  2  3  1  0  0  0  0
  3  5  1  0  0  0  0
  3  4  1  1  0  0  0
  5  7  1  0  0  0  0
  5  6  1  1  0  0  0
  7  8  1  0  0  0  0
  9 10  1  0  0  0  0
 11 12  1  0  0  0  0
 11 18  1  0  0  0  0
 11 19  1  1  0  0  0
 12 13  1  0  0  0  0
 13 15  1  0  0  0  0
 13 14  1  1  0  0  0
 15 16  1  0  0  0  0
 15 26  1  6  0  0  0
 16 18  1  0  0  0  0
 16 17  1  1  0  0  0
 18  4  1  6  0  0  0
 20 21  1  0  0  0  0
 20 27  1  0  0  0  0
 21 31  1  6  0  0  0
 21 23  1  0  0  0  0
 21 22  1  0  0  0  0
 23 24  1  0  0  0  0
 23 29  1  6  0  0  0
 24 25  1  0  0  0  0
 24 28  1  6  0  0  0
 25 27  1  0  0  0  0
 25 26  1  6  0  0  0
 29 30  1  0  0  0  0
M  CHG  5   6   1  10   1  14   1  19   1  29   1
M  END
>  <CHROM.1>
172.71614583,54.87464951,64.63728974,172.37199167,-178.41780738,-179.55474473
-153.86474186,63.66132215,172.61014250,-52.80282008,16.99684596,-55.48065799
-168.46901153,-2.14367479,-2.55979949,-6.71784604,3.01799634,0.14789345,1.09338607

>  <Name>
1byj cryst

>  <RI>
0

>  <Rbt.Current_Directory>
/home/itssahil/PROJECTS/Mol_Feturizer/New_Systems/rnas/1byj

>  <Rbt.Executable>
rbdock ($Id: //depot/dev/client3/rdock/2013.1/src/exe/rbdock.cxx#4 $)

>  <Rbt.Library>
libRbt.so (2013.1, Build901 2013/11/27)

>  <Rbt.Parameter_File>
/export/apps/rDock/src/rDock_2013.1_src/data/scripts/dock_solv.prm

>  <Rbt.Receptor>
prm/blind_docking_100.prm

>  <SCORE>
-3.53637

>  <SCORE.INTER>
-10.2792

>  <SCORE.INTER.CONST>
1

>  <SCORE.INTER.POLAR>
-2.38685

>  <SCORE.INTER.ROT>
6

>  <SCORE.INTER.SOLV>
14.9125

>  <SCORE.INTER.VDW>
-11.4675

>  <SCORE.INTER.norm>
-0.331587

>  <SCORE.INTRA>
-2.92368

>  <SCORE.INTRA.DIHEDRAL>
-11.6657

>  <SCORE.INTRA.DIHEDRAL.0>
18.4149

>  <SCORE.INTRA.POLAR>
-0.00170039

>  <SCORE.INTRA.POLAR.0>
0

>  <SCORE.INTRA.REPUL>
-0.092687

>  <SCORE.INTRA.REPUL.0>
0.092687

>  <SCORE.INTRA.SOLV>
-1.73515

>  <SCORE.INTRA.SOLV.lig_0>
-120.37

>  <SCORE.INTRA.VDW>
4.24597

>  <SCORE.INTRA.VDW.0>
-1.75542

>  <SCORE.INTRA.norm>
-0.0943123

>  <SCORE.RESTR>
9.66652

>  <SCORE.RESTR.CAVITY>
9.66652

>  <SCORE.RESTR.norm>
0.311823

>  <SCORE.SYSTEM>
0

>  <SCORE.SYSTEM.CONST>
0

>  <SCORE.SYSTEM.DIHEDRAL>
0

>  <SCORE.SYSTEM.SOLV>
0

>  <SCORE.SYSTEM.norm>
0

>  <SCORE.heavy>
31

>  <SCORE.norm>
-0.114076

>  <RMSD>
13.775

$$$$
1byj cryst
 OpenBabel11021811383D
libRbt.so/2013.1/901 2013/11/27
 31 33  0  0  0  0  0  0  0  0999 V2000
   -4.8018   -1.1336   -3.2176 C   0  0  1  0  0  0  0  0  0  0  0  0
   -4.6682   -2.5217   -3.6619 O   0  0  0  0  0  0  0  0  0  0  0  0
   -5.8736   -3.2600   -4.0232 C   0  0  2  0  0  0  0  0  0  0  0  0
   -6.4763   -2.7287   -5.2444 O   0  0  0  0  0  0  0  0  0  0  0  0
   -6.8821   -3.2129   -2.8353 C   0  0  2  0  0  0  0  0  0  0  0  0
   -8.1391   -3.9367   -3.1095 N   0  3  0  0  0  0  0  0  0  0  0  0
   -7.1795   -1.7413   -2.4478 C   0  0  0  0  0  0  0  0  0  0  0  0
   -5.8843   -0.9864   -2.1129 C   0  0  0  0  0  0  0  0  0  0  0  0
   -3.4503   -0.6391   -2.6728 C   0  0  0  0  0  0  0  0  0  0  0  0
   -2.9812   -1.3752   -1.4915 N   0  3  0  0  0  0  0  0  0  0  0  0
   -5.7577   -4.3130   -6.9890 C   0  0  1  0  0  0  0  0  0  0  0  0
   -4.8927   -4.5074   -8.2581 C   0  0  0  0  0  0  0  0  0  0  0  0
   -3.4173   -4.1158   -7.9756 C   0  0  1  0  0  0  0  0  0  0  0  0
   -2.5904   -4.3793   -9.1687 N   0  3  0  0  0  0  0  0  0  0  0  0
   -3.3313   -2.6284   -7.5263 C   0  0  1  0  0  0  0  0  0  0  0  0
   -4.2580   -2.3420   -6.3182 C   0  0  1  0  0  0  0  0  0  0  0  0
   -4.2283   -0.9381   -6.1080 O   0  0  0  0  0  0  0  0  0  0  0  0
   -5.7339   -2.8276   -6.5001 C   0  0  2  0  0  0  0  0  0  0  0  0
   -7.1318   -4.7839   -7.2366 N   0  3  0  0  0  0  0  0  0  0  0  0
   -0.1199   -4.6711   -6.6319 C   0  0  0  0  0  0  0  0  0  0  0  0
    1.1823   -4.0652   -6.0533 C   0  0  2  0  0  0  0  0  0  0  0  0
    1.3572   -4.6201   -4.7503 O   0  0  0  0  0  0  0  0  0  0  0  0
    1.0451   -2.4975   -5.9827 C   0  0  1  0  0  0  0  0  0  0  0  0
   -0.2957   -2.0324   -5.3194 C   0  0  2  0  0  0  0  0  0  0  0  0
   -1.5378   -2.8068   -5.8288 C   0  0  1  0  0  0  0  0  0  0  0  0
   -1.9747   -2.2949   -7.1152 O   0  0  0  0  0  0  0  0  0  0  0  0
   -1.2798   -4.2387   -5.8720 O   0  0  0  0  0  0  0  0  0  0  0  0
   -0.5143   -0.6368   -5.5087 O   0  0  0  0  0  0  0  0  0  0  0  0
    2.2202   -1.9189   -5.2597 N   0  3  0  0  0  0  0  0  0  0  0  0
    2.9365   -0.8104   -5.9232 C   0  0  0  0  0  0  0  0  0  0  0  0
    2.3759   -4.5385   -6.9190 C   0  0  0  0  0  0  0  0  0  0  0  0
  1  8  1  0  0  0  0
  1  9  1  1  0  0  0
  1  2  1  0  0  0  0
  2  3  1  0  0  0  0
  3  5  1  0  0  0  0
  3  4  1  6  0  0  0
  5  7  1  0  0  0  0
  5  6  1  6  0  0  0
  7  8  1  0  0  0  0
  9 10  1  0  0  0  0
 11 12  1  0  0  0  0
 11 18  1  0  0  0  0
 11 19  1  6  0  0  0
 12 13  1  0  0  0  0
 13 15  1  0  0  0  0
 13 14  1  6  0  0  0
 15 16  1  0  0  0  0
 15 26  1  1  0  0  0
 16 18  1  0  0  0  0
 16 17  1  6  0  0  0
 18  4  1  1  0  0  0
 20 21  1  0  0  0  0
 20 27  1  0  0  0  0
 21 31  1  6  0  0  0
 21 23  1  0  0  0  0
 21 22  1  0  0  0  0
 23 24  1  0  0  0  0
 23 29  1  1  0  0  0
 24 25  1  0  0  0  0
 24 28  1  6  0  0  0
 25 27  1  0  0  0  0
 25 26  1  6  0  0  0
 29 30  1  0  0  0  0
M  CHG  5   6   1  10   1  14   1  19   1  29   1
M  END
>  <CHROM.1>
-62.78475511,64.70427734,73.51019432,-61.28183973,-138.53386082,171.14907886
-177.84654506,-74.54735560,-53.14296917,-178.60080487,-109.64486630,-62.30250476
-161.97357745,-2.95896781,-2.82216896,-5.40946130,-2.92049935,-0.10754531
-2.09461342

>  <Name>
1byj cryst

>  <RI>
0

>  <Rbt.Current_Directory>
/home/itssahil/PROJECTS/Mol_Feturizer/New_Systems/rnas/1byj

>  <Rbt.Executable>
rbdock ($Id: //depot/dev/client3/rdock/2013.1/src/exe/rbdock.cxx#4 $)

>  <Rbt.Library>
libRbt.so (2013.1, Build901 2013/11/27)

>  <Rbt.Parameter_File>
/export/apps/rDock/src/rDock_2013.1_src/data/scripts/dock_solv.prm

>  <Rbt.Receptor>
prm/blind_docking_40.prm

>  <SCORE>
-11.5408

>  <SCORE.INTER>
-12.4852

>  <SCORE.INTER.CONST>
1

>  <SCORE.INTER.POLAR>
-3.1935

>  <SCORE.INTER.ROT>
6

>  <SCORE.INTER.SOLV>
19.8282

>  <SCORE.INTER.VDW>
-11.8878

>  <SCORE.INTER.norm>
-0.402747

>  <SCORE.INTRA>
-4.38318

>  <SCORE.INTRA.DIHEDRAL>
-7.9202

>  <SCORE.INTRA.DIHEDRAL.0>
18.4149

>  <SCORE.INTRA.POLAR>
0

>  <SCORE.INTRA.POLAR.0>
0

>  <SCORE.INTRA.REPUL>
-0.092687

>  <SCORE.INTRA.REPUL.0>
0.092687

>  <SCORE.INTRA.SOLV>
0.73344

>  <SCORE.INTRA.SOLV.lig_0>
-120.37

>  <SCORE.INTRA.VDW>
-0.326366

>  <SCORE.INTRA.VDW.0>
-1.75542

>  <SCORE.INTRA.norm>
-0.141393

>  <SCORE.RESTR>
5.32754

>  <SCORE.RESTR.CAVITY>
5.32754

>  <SCORE.RESTR.norm>
0.171856

>  <SCORE.SYSTEM>
0

>  <SCORE.SYSTEM.CONST>
0

>  <SCORE.SYSTEM.DIHEDRAL>
0

>  <SCORE.SYSTEM.SOLV>
0

>  <SCORE.SYSTEM.norm>
0

>  <SCORE.heavy>
31

>  <SCORE.norm>
-0.372284

>  <RMSD>
13.791

$$$$
1byj cryst
 OpenBabel11021811383D
libRbt.so/2013.1/901 2013/11/27
 31 33  0  0  0  0  0  0  0  0999 V2000
    0.1413   -1.9301   -4.7688 C   0  0  1  0  0  0  0  0  0  0  0  0
    0.4169   -3.0156   -5.7110 O   0  0  0  0  0  0  0  0  0  0  0  0
   -0.4322   -3.1515   -6.8897 C   0  0  2  0  0  0  0  0  0  0  0  0
   -0.2335   -2.0407   -7.8188 O   0  0  0  0  0  0  0  0  0  0  0  0
   -1.9226   -3.2472   -6.4428 C   0  0  2  0  0  0  0  0  0  0  0  0
   -2.8616   -3.3875   -7.5731 N   0  3  0  0  0  0  0  0  0  0  0  0
   -2.2987   -2.0169   -5.5774 C   0  0  0  0  0  0  0  0  0  0  0  0
   -1.3594   -1.8842   -4.3693 C   0  0  0  0  0  0  0  0  0  0  0  0
    0.9974   -2.1215   -3.5044 C   0  0  0  0  0  0  0  0  0  0  0  0
    2.4152   -1.7865   -3.6911 N   0  3  0  0  0  0  0  0  0  0  0  0
    1.0811   -0.3809   -9.0787 C   0  0  1  0  0  0  0  0  0  0  0  0
    2.4837   -0.0052   -9.6156 C   0  0  0  0  0  0  0  0  0  0  0  0
    3.0574   -1.1538  -10.4881 C   0  0  1  0  0  0  0  0  0  0  0  0
    4.3583   -0.7515  -11.0560 N   0  3  0  0  0  0  0  0  0  0  0  0
    3.1680   -2.4617   -9.6522 C   0  0  1  0  0  0  0  0  0  0  0  0
    1.8147   -2.8384   -8.9989 C   0  0  1  0  0  0  0  0  0  0  0  0
    2.0728   -3.9347   -8.1343 O   0  0  0  0  0  0  0  0  0  0  0  0
    1.1290   -1.6775   -8.2055 C   0  0  2  0  0  0  0  0  0  0  0  0
    0.5022    0.7542   -8.3386 N   0  3  0  0  0  0  0  0  0  0  0  0
    3.8246   -6.5539   -9.8648 C   0  0  0  0  0  0  0  0  0  0  0  0
    4.6597   -7.1493  -11.0249 C   0  0  2  0  0  0  0  0  0  0  0  0
    5.8502   -7.6853  -10.4491 O   0  0  0  0  0  0  0  0  0  0  0  0
    4.9992   -6.0142  -12.0630 C   0  0  1  0  0  0  0  0  0  0  0  0
    5.5672   -4.7202  -11.3871 C   0  0  2  0  0  0  0  0  0  0  0  0
    4.7762   -4.2831  -10.1280 C   0  0  1  0  0  0  0  0  0  0  0  0
    3.5618   -3.5792  -10.4988 O   0  0  0  0  0  0  0  0  0  0  0  0
    4.5030   -5.4201   -9.2612 O   0  0  0  0  0  0  0  0  0  0  0  0
    5.6117   -3.6298  -12.3038 O   0  0  0  0  0  0  0  0  0  0  0  0
    5.9545   -6.5365  -13.0892 N   0  3  0  0  0  0  0  0  0  0  0  0
    6.2777   -5.6436  -14.2206 C   0  0  0  0  0  0  0  0  0  0  0  0
    3.8747   -8.3322  -11.6435 C   0  0  0  0  0  0  0  0  0  0  0  0
  1  8  1  0  0  0  0
  1  9  1  1  0  0  0
  1  2  1  0  0  0  0
  2  3  1  0  0  0  0
  3  5  1  0  0  0  0
  3  4  1  6  0  0  0
  5  7  1  0  0  0  0
  5  6  1  6  0  0  0
  7  8  1  0  0  0  0
  9 10  1  0  0  0  0
 11 12  1  0  0  0  0
 11 18  1  0  0  0  0
 11 19  1  1  0  0  0
 12 13  1  0  0  0  0
 13 15  1  0  0  0  0
 13 14  1  1  0  0  0
 15 16  1  0  0  0  0
 15 26  1  6  0  0  0
 16 18  1  0  0  0  0
 16 17  1  1  0  0  0
 18  4  1  6  0  0  0
 20 21  1  0  0  0  0
 20 27  1  0  0  0  0
 21 31  1  6  0  0  0
 21 23  1  0  0  0  0
 21 22  1  0  0  0  0
 23 24  1  0  0  0  0
 23 29  1  6  0  0  0
 24 25  1  0  0  0  0
 24 28  1  6  0  0  0
 25 27  1  0  0  0  0
 25 26  1  6  0  0  0
 29 30  1  0  0  0  0
M  CHG  5   6   1  10   1  14   1  19   1  29   1
M  END
>  <CHROM.1>
74.63439100,49.67783048,-174.21775570,54.26208314,-74.68621609,-31.86849013
162.10079286,122.23390847,-49.34073548,-82.00197380,-64.85409178,-152.23517418
-143.00112975,2.41989652,-3.43937781,-8.91130676,2.85518163,0.86006684,-0.21196268

>  <Name>
1byj cryst

>  <RI>
0

>  <Rbt.Current_Directory>
/home/itssahil/PROJECTS/Mol_Feturizer/New_Systems/rnas/1byj

>  <Rbt.Executable>
rbdock ($Id: //depot/dev/client3/rdock/2013.1/src/exe/rbdock.cxx#4 $)

>  <Rbt.Library>
libRbt.so (2013.1, Build901 2013/11/27)

>  <Rbt.Parameter_File>
/export/apps/rDock/src/rDock_2013.1_src/data/scripts/dock_solv.prm

>  <Rbt.Receptor>
prm/blind_docking_80.prm

>  <SCORE>
7.59176

>  <SCORE.INTER>
5.57462

>  <SCORE.INTER.CONST>
1

>  <SCORE.INTER.POLAR>
-5.03829

>  <SCORE.INTER.ROT>
6

>  <SCORE.INTER.SOLV>
34.2984

>  <SCORE.INTER.VDW>
1.47791

>  <SCORE.INTER.norm>
0.179826

>  <SCORE.INTRA>
-2.21531

>  <SCORE.INTRA.DIHEDRAL>
3.94588

>  <SCORE.INTRA.DIHEDRAL.0>
18.4149

>  <SCORE.INTRA.POLAR>
-0.469922

>  <SCORE.INTRA.POLAR.0>
0

>  <SCORE.INTRA.REPUL>
-0.092687

>  <SCORE.INTRA.REPUL.0>
0.092687

>  <SCORE.INTRA.SOLV>
-2.96071

>  <SCORE.INTRA.SOLV.lig_0>
-120.37

>  <SCORE.INTRA.VDW>
-0.646729

>  <SCORE.INTRA.VDW.0>
-1.75542

>  <SCORE.INTRA.norm>
-0.0714617

>  <SCORE.RESTR>
4.23245

>  <SCORE.RESTR.CAVITY>
4.23245

>  <SCORE.RESTR.norm>
0.136531

>  <SCORE.SYSTEM>
0

>  <SCORE.SYSTEM.CONST>
0

>  <SCORE.SYSTEM.DIHEDRAL>
0

>  <SCORE.SYSTEM.SOLV>
0

>  <SCORE.SYSTEM.norm>
0

>  <SCORE.heavy>
31

>  <SCORE.norm>
0.244895

>  <RMSD>
13.796

$$$$
1byj cryst
 OpenBabel11021811383D
libRbt.so/2013.1/901 2013/11/27
 31 33  0  0  0  0  0  0  0  0999 V2000
   -4.0020   -2.0802   -6.5769 C   0  0  1  0  0  0  0  0  0  0  0  0
   -3.1209   -2.5282   -5.4975 O   0  0  0  0  0  0  0  0  0  0  0  0
   -2.2848   -3.7031   -5.7189 C   0  0  2  0  0  0  0  0  0  0  0  0
   -1.2456   -3.4366   -6.7118 O   0  0  0  0  0  0  0  0  0  0  0  0
   -3.1831   -4.8997   -6.1567 C   0  0  2  0  0  0  0  0  0  0  0  0
   -2.4212   -6.1394   -6.4051 N   0  3  0  0  0  0  0  0  0  0  0  0
   -4.0101   -4.5135   -7.4100 C   0  0  0  0  0  0  0  0  0  0  0  0
   -4.8461   -3.2510   -7.1518 C   0  0  0  0  0  0  0  0  0  0  0  0
   -4.9460   -0.9872   -6.0455 C   0  0  0  0  0  0  0  0  0  0  0  0
   -5.3088   -1.1519   -4.6318 N   0  3  0  0  0  0  0  0  0  0  0  0
   -0.1971   -1.2953   -6.0907 C   0  0  1  0  0  0  0  0  0  0  0  0
    1.1288   -0.5794   -5.7357 C   0  0  0  0  0  0  0  0  0  0  0  0
    2.1794   -0.7929   -6.8584 C   0  0  1  0  0  0  0  0  0  0  0  0
    3.4099   -0.0419   -6.5443 N   0  3  0  0  0  0  0  0  0  0  0  0
    2.4593   -2.3114   -7.0527 C   0  0  1  0  0  0  0  0  0  0  0  0
    1.1536   -3.1046   -7.3097 C   0  0  1  0  0  0  0  0  0  0  0  0
    1.5059   -4.4800   -7.3000 O   0  0  0  0  0  0  0  0  0  0  0  0
    0.0127   -2.8343   -6.2740 C   0  0  2  0  0  0  0  0  0  0  0  0
   -1.2191   -1.0017   -5.0706 N   0  3  0  0  0  0  0  0  0  0  0  0
    4.0429   -2.2149  -11.1524 C   0  0  0  0  0  0  0  0  0  0  0  0
    4.7631   -3.5288  -11.5432 C   0  0  2  0  0  0  0  0  0  0  0  0
    3.9828   -4.1430  -12.5679 O   0  0  0  0  0  0  0  0  0  0  0  0
    4.8688   -4.4644  -10.2804 C   0  0  1  0  0  0  0  0  0  0  0  0
    3.5089   -4.6146   -9.5175 C   0  0  2  0  0  0  0  0  0  0  0  0
    2.7631   -3.2712   -9.3146 C   0  0  1  0  0  0  0  0  0  0  0  0
    3.3273   -2.5296   -8.2014 O   0  0  0  0  0  0  0  0  0  0  0  0
    2.7537   -2.4878  -10.5414 O   0  0  0  0  0  0  0  0  0  0  0  0
    3.6892   -5.2369   -8.2481 O   0  0  0  0  0  0  0  0  0  0  0  0
    5.3972   -5.8041  -10.6861 N   0  3  0  0  0  0  0  0  0  0  0  0
    6.8408   -5.8929  -10.9861 C   0  0  0  0  0  0  0  0  0  0  0  0
    6.1380   -3.1746  -12.1616 C   0  0  0  0  0  0  0  0  0  0  0  0
  1  8  1  0  0  0  0
  1  9  1  1  0  0  0
  1  2  1  0  0  0  0
  2  3  1  0  0  0  0
  3  5  1  0  0  0  0
  3  4  1  6  0  0  0
  5  7  1  0  0  0  0
  5  6  1  6  0  0  0
  7  8  1  0  0  0  0
  9 10  1  0  0  0  0
 11 12  1  0  0  0  0
 11 18  1  0  0  0  0
 11 19  1  1  0  0  0
 12 13  1  0  0  0  0
 13 15  1  0  0  0  0
 13 14  1  1  0  0  0
 15 16  1  0  0  0  0
 15 26  1  6  0  0  0
 16 18  1  0  0  0  0
 16 17  1  1  0  0  0
 18  4  1  6  0  0  0
 20 21  1  0  0  0  0
 20 27  1  0  0  0  0
 21 31  1  6  0  0  0
 21 23  1  0  0  0  0
 21 22  1  0  0  0  0
 23 24  1  0  0  0  0
 23 29  1  6  0  0  0
 24 25  1  0  0  0  0
 24 28  1  1  0  0  0
 25 27  1  0  0  0  0
 25 26  1  1  0  0  0
 29 30  1  0  0  0  0
M  CHG  5   6   1  10   1  14   1  19   1  29   1
M  END
>  <CHROM.1>
-32.24861750,85.79458092,-79.37120726,65.26711222,34.30185174,50.61011697
-150.30399360,-115.96571760,63.95434292,59.44840477,-163.78127396,-178.47538308
-115.53774062,0.88172755,-3.12904721,-7.91326705,2.75039490,0.38898555,0.53336925

>  <Name>
1byj cryst

>  <RI>
0

>  <Rbt.Current_Directory>
/home/itssahil/PROJECTS/Mol_Feturizer/New_Systems/rnas/1byj

>  <Rbt.Executable>
rbdock ($Id: //depot/dev/client3/rdock/2013.1/src/exe/rbdock.cxx#4 $)

>  <Rbt.Library>
libRbt.so (2013.1, Build901 2013/11/27)

>  <Rbt.Parameter_File>
/export/apps/rDock/src/rDock_2013.1_src/data/scripts/dock_solv.prm

>  <Rbt.Receptor>
prm/blind_docking_20.prm

>  <SCORE>
-9.81809

>  <SCORE.INTER>
-20.4771

>  <SCORE.INTER.CONST>
1

>  <SCORE.INTER.POLAR>
-4.15868

>  <SCORE.INTER.ROT>
6

>  <SCORE.INTER.SOLV>
26.2939

>  <SCORE.INTER.VDW>
-16.1538

>  <SCORE.INTER.norm>
-0.660553

>  <SCORE.INTRA>
5.43052

>  <SCORE.INTRA.DIHEDRAL>
6.93494

>  <SCORE.INTRA.DIHEDRAL.0>
18.4149

>  <SCORE.INTRA.POLAR>
-1.90113

>  <SCORE.INTRA.POLAR.0>
0

>  <SCORE.INTRA.REPUL>
-0.092687

>  <SCORE.INTRA.REPUL.0>
0.092687

>  <SCORE.INTRA.SOLV>
1.84184

>  <SCORE.INTRA.SOLV.lig_0>
-120.37

>  <SCORE.INTRA.VDW>
7.9694

>  <SCORE.INTRA.VDW.0>
-1.75542

>  <SCORE.INTRA.norm>
0.175178

>  <SCORE.RESTR>
5.22853

>  <SCORE.RESTR.CAVITY>
5.22853

>  <SCORE.RESTR.norm>
0.168662

>  <SCORE.SYSTEM>
0

>  <SCORE.SYSTEM.CONST>
0

>  <SCORE.SYSTEM.DIHEDRAL>
0

>  <SCORE.SYSTEM.SOLV>
0

>  <SCORE.SYSTEM.norm>
0

>  <SCORE.heavy>
31

>  <SCORE.norm>
-0.316713

>  <RMSD>
13.819

$$$$
1byj cryst
 OpenBabel11021811383D
libRbt.so/2013.1/901 2013/11/27
 31 33  0  0  0  0  0  0  0  0999 V2000
   -6.1039   -3.8553   -7.8650 C   0  0  1  0  0  0  0  0  0  0  0  0
   -6.1483   -2.5875   -7.1352 O   0  0  0  0  0  0  0  0  0  0  0  0
   -6.7917   -2.5557   -5.8261 C   0  0  2  0  0  0  0  0  0  0  0  0
   -6.0261   -3.3145   -4.8389 O   0  0  0  0  0  0  0  0  0  0  0  0
   -8.2442   -3.1079   -5.9525 C   0  0  2  0  0  0  0  0  0  0  0  0
   -8.9780   -3.1148   -4.6716 N   0  3  0  0  0  0  0  0  0  0  0  0
   -8.2209   -4.5301   -6.5695 C   0  0  0  0  0  0  0  0  0  0  0  0
   -7.5016   -4.5310   -7.9267 C   0  0  0  0  0  0  0  0  0  0  0  0
   -5.5984   -3.6035   -9.2964 C   0  0  0  0  0  0  0  0  0  0  0  0
   -4.1734   -3.2552   -9.3701 N   0  3  0  0  0  0  0  0  0  0  0  0
   -4.7866   -1.4228   -3.8613 C   0  0  1  0  0  0  0  0  0  0  0  0
   -3.3871   -0.8326   -3.5621 C   0  0  0  0  0  0  0  0  0  0  0  0
   -2.5472   -0.7381   -4.8642 C   0  0  1  0  0  0  0  0  0  0  0  0
   -1.2467   -0.1028   -4.5780 N   0  3  0  0  0  0  0  0  0  0  0  0
   -2.3774   -2.1485   -5.4994 C   0  0  1  0  0  0  0  0  0  0  0  0
   -3.7447   -2.8397   -5.7297 C   0  0  1  0  0  0  0  0  0  0  0  0
   -3.4630   -4.1677   -6.1459 O   0  0  0  0  0  0  0  0  0  0  0  0
   -4.6851   -2.8558   -4.4796 C   0  0  2  0  0  0  0  0  0  0  0  0
   -5.6113   -1.4127   -2.6403 N   0  3  0  0  0  0  0  0  0  0  0  0
    0.4822   -1.6308   -8.8661 C   0  0  0  0  0  0  0  0  0  0  0  0
    1.7473   -1.2654   -8.0513 C   0  0  2  0  0  0  0  0  0  0  0  0
    2.7205   -2.2744   -8.3177 O   0  0  0  0  0  0  0  0  0  0  0  0
    1.3888   -1.2211   -6.5181 C   0  0  1  0  0  0  0  0  0  0  0  0
    0.5925   -2.4832   -6.0416 C   0  0  2  0  0  0  0  0  0  0  0  0
   -0.5542   -2.8887   -7.0021 C   0  0  1  0  0  0  0  0  0  0  0  0
   -1.7219   -2.0510   -6.7961 O   0  0  0  0  0  0  0  0  0  0  0  0
   -0.1078   -2.8688   -8.3874 O   0  0  0  0  0  0  0  0  0  0  0  0
    0.0542   -2.2975   -4.7351 O   0  0  0  0  0  0  0  0  0  0  0  0
    2.6371   -1.0490   -5.7115 N   0  3  0  0  0  0  0  0  0  0  0  0
    2.5028   -1.1282   -4.2426 C   0  0  0  0  0  0  0  0  0  0  0  0
    2.3126    0.0725   -8.5885 C   0  0  0  0  0  0  0  0  0  0  0  0
  1  8  1  0  0  0  0
  1  9  1  6  0  0  0
  1  2  1  0  0  0  0
  2  3  1  0  0  0  0
  3  5  1  0  0  0  0
  3  4  1  1  0  0  0
  5  7  1  0  0  0  0
  5  6  1  1  0  0  0
  7  8  1  0  0  0  0
  9 10  1  0  0  0  0
 11 12  1  0  0  0  0
 11 18  1  0  0  0  0
 11 19  1  1  0  0  0
 12 13  1  0  0  0  0
 13 15  1  0  0  0  0
 13 14  1  1  0  0  0
 15 16  1  0  0  0  0
 15 26  1  6  0  0  0
 16 18  1  0  0  0  0
 16 17  1  1  0  0  0
 18  4  1  6  0  0  0
 20 21  1  0  0  0  0
 20 27  1  0  0  0  0
 21 31  1  6  0  0  0
 21 23  1  0  0  0  0
 21 22  1  0  0  0  0
 23 24  1  0  0  0  0
 23 29  1  1  0  0  0
 24 25  1  0  0  0  0
 24 28  1  1  0  0  0
 25 27  1  0  0  0  0
 25 26  1  6  0  0  0
 29 30  1  0  0  0  0
M  CHG  5   6   1  10   1  14   1  19   1  29   1
M  END
>  <CHROM.1>
70.69376117,64.34434849,61.11837668,-179.70032190,45.88939827,-57.45460034
-30.07221522,127.62807801,179.19054206,52.53378493,-52.71882108,-172.48464385
-64.33850076,-2.79987999,-2.32455823,-6.24793708,3.11565324,0.23148781,1.22685404

>  <Name>
1byj cryst

>  <RI>
0

>  <Rbt.Current_Directory>
/home/itssahil/PROJECTS/Mol_Feturizer/New_Systems/rnas/1byj

>  <Rbt.Executable>
rbdock ($Id: //depot/dev/client3/rdock/2013.1/src/exe/rbdock.cxx#4 $)

>  <Rbt.Library>
libRbt.so (2013.1, Build901 2013/11/27)

>  <Rbt.Parameter_File>
/export/apps/rDock/src/rDock_2013.1_src/data/scripts/dock_solv.prm

>  <Rbt.Receptor>
prm/blind_docking_40.prm

>  <SCORE>
-18.7765

>  <SCORE.INTER>
-20.6606

>  <SCORE.INTER.CONST>
1

>  <SCORE.INTER.POLAR>
-3.21072

>  <SCORE.INTER.ROT>
6

>  <SCORE.INTER.SOLV>
15.3676

>  <SCORE.INTER.VDW>
-15.7938

>  <SCORE.INTER.norm>
-0.66647

>  <SCORE.INTRA>
-4.2466

>  <SCORE.INTRA.DIHEDRAL>
-7.65816

>  <SCORE.INTRA.DIHEDRAL.0>
18.4149

>  <SCORE.INTRA.POLAR>
-1.07456

>  <SCORE.INTRA.POLAR.0>
0

>  <SCORE.INTRA.REPUL>
-0.092687

>  <SCORE.INTRA.REPUL.0>
0.092687

>  <SCORE.INTRA.SOLV>
4.6349

>  <SCORE.INTRA.SOLV.lig_0>
-120.37

>  <SCORE.INTRA.VDW>
1.38197

>  <SCORE.INTRA.VDW.0>
-1.75542

>  <SCORE.INTRA.norm>
-0.136987

>  <SCORE.RESTR>
6.13067

>  <SCORE.RESTR.CAVITY>
6.13067

>  <SCORE.RESTR.norm>
0.197764

>  <SCORE.SYSTEM>
0

>  <SCORE.SYSTEM.CONST>
0

>  <SCORE.SYSTEM.DIHEDRAL>
0

>  <SCORE.SYSTEM.SOLV>
0

>  <SCORE.SYSTEM.norm>
0

>  <SCORE.heavy>
31

>  <SCORE.norm>
-0.605694

>  <RMSD>
13.834

$$$$
1byj cryst
 OpenBabel11021811383D
libRbt.so/2013.1/901 2013/11/27
 31 33  0  0  0  0  0  0  0  0999 V2000
   -6.6911   -2.7476   -4.4126 C   0  0  1  0  0  0  0  0  0  0  0  0
   -5.9020   -3.6774   -5.2220 O   0  0  0  0  0  0  0  0  0  0  0  0
   -5.2318   -3.1715   -6.4151 C   0  0  2  0  0  0  0  0  0  0  0  0
   -4.1462   -2.2565   -6.0674 O   0  0  0  0  0  0  0  0  0  0  0  0
   -6.2778   -2.4740   -7.3369 C   0  0  2  0  0  0  0  0  0  0  0  0
   -5.6896   -1.9275   -8.5756 N   0  3  0  0  0  0  0  0  0  0  0  0
   -7.0185   -1.3598   -6.5532 C   0  0  0  0  0  0  0  0  0  0  0  0
   -7.6772   -1.9222   -5.2846 C   0  0  0  0  0  0  0  0  0  0  0  0
   -7.4855   -3.5365   -3.3569 C   0  0  0  0  0  0  0  0  0  0  0  0
   -7.2858   -3.0572   -1.9830 N   0  3  0  0  0  0  0  0  0  0  0  0
   -2.1892   -1.6805   -4.6859 C   0  0  1  0  0  0  0  0  0  0  0  0
   -0.8207   -2.1639   -4.1473 C   0  0  0  0  0  0  0  0  0  0  0  0
    0.1046   -2.5902   -5.3187 C   0  0  1  0  0  0  0  0  0  0  0  0
    1.4303   -2.9742   -4.7974 N   0  3  0  0  0  0  0  0  0  0  0  0
   -0.5541   -3.7400   -6.1346 C   0  0  1  0  0  0  0  0  0  0  0  0
   -1.9756   -3.3566   -6.6169 C   0  0  1  0  0  0  0  0  0  0  0  0
   -2.5378   -4.5263   -7.1928 O   0  0  0  0  0  0  0  0  0  0  0  0
   -2.9164   -2.8033   -5.4961 C   0  0  2  0  0  0  0  0  0  0  0  0
   -3.0215   -1.1819   -3.5768 N   0  3  0  0  0  0  0  0  0  0  0  0
    0.5318   -1.0149   -7.5648 C   0  0  0  0  0  0  0  0  0  0  0  0
    1.7246   -0.7951   -8.5273 C   0  0  2  0  0  0  0  0  0  0  0  0
    1.2217   -0.0866   -9.6592 O   0  0  0  0  0  0  0  0  0  0  0  0
    2.3169   -2.1906   -8.9555 C   0  0  1  0  0  0  0  0  0  0  0  0
    1.2165   -3.2008   -9.4274 C   0  0  2  0  0  0  0  0  0  0  0  0
   -0.0253   -3.2385   -8.5008 C   0  0  1  0  0  0  0  0  0  0  0  0
    0.2343   -4.0434   -7.3208 O   0  0  0  0  0  0  0  0  0  0  0  0
   -0.4621   -1.8933   -8.1567 O   0  0  0  0  0  0  0  0  0  0  0  0
    1.7391   -4.5210   -9.5502 O   0  0  0  0  0  0  0  0  0  0  0  0
    3.3478   -1.9967  -10.0222 N   0  3  0  0  0  0  0  0  0  0  0  0
    4.1779   -3.1670  -10.3734 C   0  0  0  0  0  0  0  0  0  0  0  0
    2.7592    0.1235   -7.8318 C   0  0  0  0  0  0  0  0  0  0  0  0
  1  8  1  0  0  0  0
  1  9  1  1  0  0  0
  1  2  1  0  0  0  0
  2  3  1  0  0  0  0
  3  5  1  0  0  0  0
  3  4  1  1  0  0  0
  5  7  1  0  0  0  0
  5  6  1  6  0  0  0
  7  8  1  0  0  0  0
  9 10  1  0  0  0  0
 11 12  1  0  0  0  0
 11 18  1  0  0  0  0
 11 19  1  1  0  0  0
 12 13  1  0  0  0  0
 13 15  1  0  0  0  0
 13 14  1  1  0  0  0
 15 16  1  0  0  0  0
 15 26  1  6  0  0  0
 16 18  1  0  0  0  0
 16 17  1  1  0  0  0
 18  4  1  6  0  0  0
 20 21  1  0  0  0  0
 20 27  1  0  0  0  0
 21 31  1  1  0  0  0
 21 23  1  0  0  0  0
 21 22  1  0  0  0  0
 23 24  1  0  0  0  0
 23 29  1  6  0  0  0
 24 25  1  0  0  0  0
 24 28  1  1  0  0  0
 25 27  1  0  0  0  0
 25 26  1  1  0  0  0
 29 30  1  0  0  0  0
M  CHG  5   6   1  10   1  14   1  19   1  29   1
M  END
>  <CHROM.1>
126.81902540,72.98276767,-156.78825307,-38.75152414,-46.86719366,56.29207376
-173.22449619,-85.47207936,65.96650582,-166.14428679,-69.51396272,54.95280244
154.85622538,-1.82404440,-2.49399870,-6.74599502,2.69256104,0.03350144,1.60549713

>  <Name>
1byj cryst

>  <RI>
0

>  <Rbt.Current_Directory>
/home/itssahil/PROJECTS/Mol_Feturizer/New_Systems/rnas/1byj

>  <Rbt.Executable>
rbdock ($Id: //depot/dev/client3/rdock/2013.1/src/exe/rbdock.cxx#4 $)

>  <Rbt.Library>
libRbt.so (2013.1, Build901 2013/11/27)

>  <Rbt.Parameter_File>
/export/apps/rDock/src/rDock_2013.1_src/data/scripts/dock_solv.prm

>  <Rbt.Receptor>
prm/blind_docking_40.prm

>  <SCORE>
-6.29131

>  <SCORE.INTER>
-14.997

>  <SCORE.INTER.CONST>
1

>  <SCORE.INTER.POLAR>
-2.84853

>  <SCORE.INTER.ROT>
6

>  <SCORE.INTER.SOLV>
21.0119

>  <SCORE.INTER.VDW>
-15.1068

>  <SCORE.INTER.norm>
-0.483773

>  <SCORE.INTRA>
1.1749

>  <SCORE.INTRA.DIHEDRAL>
-1.23285

>  <SCORE.INTRA.DIHEDRAL.0>
18.4149

>  <SCORE.INTRA.POLAR>
-0.000344207

>  <SCORE.INTRA.POLAR.0>
0

>  <SCORE.INTRA.REPUL>
-0.092687

>  <SCORE.INTRA.REPUL.0>
0.092687

>  <SCORE.INTRA.SOLV>
-2.88989

>  <SCORE.INTRA.SOLV.lig_0>
-120.37

>  <SCORE.INTRA.VDW>
3.70087

>  <SCORE.INTRA.VDW.0>
-1.75542

>  <SCORE.INTRA.norm>
0.0378999

>  <SCORE.RESTR>
7.53076

>  <SCORE.RESTR.CAVITY>
7.53076

>  <SCORE.RESTR.norm>
0.242928

>  <SCORE.SYSTEM>
0

>  <SCORE.SYSTEM.CONST>
0

>  <SCORE.SYSTEM.DIHEDRAL>
0

>  <SCORE.SYSTEM.SOLV>
0

>  <SCORE.SYSTEM.norm>
0

>  <SCORE.heavy>
31

>  <SCORE.norm>
-0.202945

>  <RMSD>
13.836

$$$$
1byj cryst
 OpenBabel11021811383D
libRbt.so/2013.1/901 2013/11/27
 31 33  0  0  0  0  0  0  0  0999 V2000
   -5.2621   -1.2912   -3.3720 C   0  0  1  0  0  0  0  0  0  0  0  0
   -5.1662   -2.6800   -3.8237 O   0  0  0  0  0  0  0  0  0  0  0  0
   -6.2468   -3.2277   -4.6367 C   0  0  2  0  0  0  0  0  0  0  0  0
   -6.2876   -2.6026   -5.9574 O   0  0  0  0  0  0  0  0  0  0  0  0
   -7.6009   -3.0409   -3.8872 C   0  0  2  0  0  0  0  0  0  0  0  0
   -8.7586   -3.5674   -4.6365 N   0  3  0  0  0  0  0  0  0  0  0  0
   -7.8160   -1.5448   -3.5418 C   0  0  0  0  0  0  0  0  0  0  0  0
   -6.6408   -0.9937   -2.7204 C   0  0  0  0  0  0  0  0  0  0  0  0
   -4.1464   -1.0077   -2.3508 C   0  0  0  0  0  0  0  0  0  0  0  0
   -2.7916   -1.1009   -2.9104 N   0  3  0  0  0  0  0  0  0  0  0  0
   -5.3980   -4.3766   -7.4175 C   0  0  1  0  0  0  0  0  0  0  0  0
   -4.2378   -4.7979   -8.3519 C   0  0  0  0  0  0  0  0  0  0  0  0
   -2.8781   -4.6968   -7.6098 C   0  0  1  0  0  0  0  0  0  0  0  0
   -1.7912   -5.1747   -8.4857 N   0  3  0  0  0  0  0  0  0  0  0  0
   -2.6354   -3.2378   -7.1262 C   0  0  1  0  0  0  0  0  0  0  0  0
   -3.8148   -2.7170   -6.2672 C   0  0  1  0  0  0  0  0  0  0  0  0
   -3.5666   -1.3393   -6.0299 O   0  0  0  0  0  0  0  0  0  0  0  0
   -5.2259   -2.9053   -6.9160 C   0  0  2  0  0  0  0  0  0  0  0  0
   -6.6910   -4.5739   -8.0961 N   0  3  0  0  0  0  0  0  0  0  0  0
    0.2638   -1.5909   -8.2881 C   0  0  0  0  0  0  0  0  0  0  0  0
    1.5671   -1.2426   -7.5280 C   0  0  2  0  0  0  0  0  0  0  0  0
    2.6410   -1.8574   -8.2386 O   0  0  0  0  0  0  0  0  0  0  0  0
    1.4788   -1.7947   -6.0553 C   0  0  1  0  0  0  0  0  0  0  0  0
    1.0118   -3.2887   -5.9915 C   0  0  2  0  0  0  0  0  0  0  0  0
   -0.1952   -3.5983   -6.9130 C   0  0  1  0  0  0  0  0  0  0  0  0
   -1.4379   -3.1641   -6.3008 O   0  0  0  0  0  0  0  0  0  0  0  0
   -0.0072   -3.0169   -8.2342 O   0  0  0  0  0  0  0  0  0  0  0  0
    0.6850   -3.6763   -4.6595 O   0  0  0  0  0  0  0  0  0  0  0  0
    2.7984   -1.6244   -5.3712 N   0  3  0  0  0  0  0  0  0  0  0  0
    3.0156   -0.3607   -4.6380 C   0  0  0  0  0  0  0  0  0  0  0  0
    1.7864    0.2888   -7.5973 C   0  0  0  0  0  0  0  0  0  0  0  0
  1  8  1  0  0  0  0
  1  9  1  1  0  0  0
  1  2  1  0  0  0  0
  2  3  1  0  0  0  0
  3  5  1  0  0  0  0
  3  4  1  6  0  0  0
  5  7  1  0  0  0  0
  5  6  1  6  0  0  0
  7  8  1  0  0  0  0
  9 10  1  0  0  0  0
 11 12  1  0  0  0  0
 11 18  1  0  0  0  0
 11 19  1  6  0  0  0
 12 13  1  0  0  0  0
 13 15  1  0  0  0  0
 13 14  1  6  0  0  0
 15 16  1  0  0  0  0
 15 26  1  1  0  0  0
 16 18  1  0  0  0  0
 16 17  1  6  0  0  0
 18  4  1  1  0  0  0
 20 21  1  0  0  0  0
 20 27  1  0  0  0  0
 21 31  1  1  0  0  0
 21 23  1  0  0  0  0
 21 22  1  0  0  0  0
 23 24  1  0  0  0  0
 23 29  1  6  0  0  0
 24 25  1  0  0  0  0
 24 28  1  1  0  0  0
 25 27  1  0  0  0  0
 25 26  1  1  0  0  0
 29 30  1  0  0  0  0
M  CHG  5   6   1  10   1  14   1  19   1  29   1
M  END
>  <CHROM.1>
64.42185697,70.61465218,71.20567656,-176.32219953,-60.54053737,-52.82938895
-133.33290422,58.54836617,-52.96804029,-59.47371991,-148.76109040,68.67252292
172.45314113,-2.66253956,-2.58310162,-5.93876397,-3.00467853,-0.21420910
-2.14505186

>  <Name>
1byj cryst

>  <RI>
0

>  <Rbt.Current_Directory>
/home/itssahil/PROJECTS/Mol_Feturizer/New_Systems/rnas/1byj

>  <Rbt.Executable>
rbdock ($Id: //depot/dev/client3/rdock/2013.1/src/exe/rbdock.cxx#4 $)

>  <Rbt.Library>
libRbt.so (2013.1, Build901 2013/11/27)

>  <Rbt.Parameter_File>
/export/apps/rDock/src/rDock_2013.1_src/data/scripts/dock_solv.prm

>  <Rbt.Receptor>
prm/blind_docking_40.prm

>  <SCORE>
-26.0818

>  <SCORE.INTER>
-23.7239

>  <SCORE.INTER.CONST>
1

>  <SCORE.INTER.POLAR>
-3.68555

>  <SCORE.INTER.ROT>
6

>  <SCORE.INTER.SOLV>
16.8241

>  <SCORE.INTER.VDW>
-16.7388

>  <SCORE.INTER.norm>
-0.765286

>  <SCORE.INTRA>
-7.84055

>  <SCORE.INTRA.DIHEDRAL>
-10.7988

>  <SCORE.INTRA.DIHEDRAL.0>
18.4149

>  <SCORE.INTRA.POLAR>
-1.10128

>  <SCORE.INTRA.POLAR.0>
0

>  <SCORE.INTRA.REPUL>
-0.092687

>  <SCORE.INTRA.REPUL.0>
0.092687

>  <SCORE.INTRA.SOLV>
2.51301

>  <SCORE.INTRA.SOLV.lig_0>
-120.37

>  <SCORE.INTRA.VDW>
0.510117

>  <SCORE.INTRA.VDW.0>
-1.75542

>  <SCORE.INTRA.norm>
-0.252921

>  <SCORE.RESTR>
5.48267

>  <SCORE.RESTR.CAVITY>
5.48267

>  <SCORE.RESTR.norm>
0.17686

>  <SCORE.SYSTEM>
0

>  <SCORE.SYSTEM.CONST>
0

>  <SCORE.SYSTEM.DIHEDRAL>
0

>  <SCORE.SYSTEM.SOLV>
0

>  <SCORE.SYSTEM.norm>
0

>  <SCORE.heavy>
31

>  <SCORE.norm>
-0.841347

>  <RMSD>
13.867

$$$$
1byj cryst
 OpenBabel11021811383D
libRbt.so/2013.1/901 2013/11/27
 31 33  0  0  0  0  0  0  0  0999 V2000
   -4.1072   -2.2812   -6.4442 C   0  0  1  0  0  0  0  0  0  0  0  0
   -3.1426   -2.7593   -5.4527 O   0  0  0  0  0  0  0  0  0  0  0  0
   -2.2790   -3.8823   -5.8015 C   0  0  2  0  0  0  0  0  0  0  0  0
   -1.3163   -3.5109   -6.8369 O   0  0  0  0  0  0  0  0  0  0  0  0
   -3.1581   -5.0852   -6.2605 C   0  0  2  0  0  0  0  0  0  0  0  0
   -2.3679   -6.2741   -6.6359 N   0  3  0  0  0  0  0  0  0  0  0  0
   -4.0776   -4.6554   -7.4326 C   0  0  0  0  0  0  0  0  0  0  0  0
   -4.9420   -3.4474   -7.0415 C   0  0  0  0  0  0  0  0  0  0  0  0
   -5.0554   -1.2638   -5.7853 C   0  0  0  0  0  0  0  0  0  0  0  0
   -5.7079   -0.3566   -6.7385 N   0  3  0  0  0  0  0  0  0  0  0  0
   -0.2542   -1.3811   -6.1995 C   0  0  1  0  0  0  0  0  0  0  0  0
    1.0818   -0.6664   -5.8819 C   0  0  0  0  0  0  0  0  0  0  0  0
    2.0833   -0.8395   -7.0553 C   0  0  1  0  0  0  0  0  0  0  0  0
    3.3219   -0.0891   -6.7733 N   0  3  0  0  0  0  0  0  0  0  0  0
    2.3633   -2.3496   -7.3062 C   0  0  1  0  0  0  0  0  0  0  0  0
    1.0523   -3.1444   -7.5292 C   0  0  1  0  0  0  0  0  0  0  0  0
    1.4129   -4.5169   -7.5754 O   0  0  0  0  0  0  0  0  0  0  0  0
   -0.0436   -2.9126   -6.4371 C   0  0  2  0  0  0  0  0  0  0  0  0
   -1.2321   -1.1248   -5.1275 N   0  3  0  0  0  0  0  0  0  0  0  0
    2.2319   -3.4454  -11.2503 C   0  0  0  0  0  0  0  0  0  0  0  0
    3.5204   -3.7993  -12.0328 C   0  0  2  0  0  0  0  0  0  0  0  0
    3.4373   -5.1837  -12.3682 O   0  0  0  0  0  0  0  0  0  0  0  0
    4.7781   -3.5147  -11.1281 C   0  0  1  0  0  0  0  0  0  0  0  0
    4.6453   -4.1234   -9.6908 C   0  0  2  0  0  0  0  0  0  0  0  0
    3.2617   -3.8725   -9.0393 C   0  0  1  0  0  0  0  0  0  0  0  0
    3.1813   -2.5279   -8.4977 O   0  0  0  0  0  0  0  0  0  0  0  0
    2.1839   -4.1460   -9.9788 O   0  0  0  0  0  0  0  0  0  0  0  0
    5.6600   -3.6302   -8.8200 O   0  0  0  0  0  0  0  0  0  0  0  0
    6.0127   -4.0218  -11.8042 N   0  3  0  0  0  0  0  0  0  0  0  0
    6.2339   -5.4822  -11.7891 C   0  0  0  0  0  0  0  0  0  0  0  0
    3.5270   -3.0035  -13.3612 C   0  0  0  0  0  0  0  0  0  0  0  0
  1  8  1  0  0  0  0
  1  9  1  1  0  0  0
  1  2  1  0  0  0  0
  2  3  1  0  0  0  0
  3  5  1  0  0  0  0
  3  4  1  6  0  0  0
  5  7  1  0  0  0  0
  5  6  1  6  0  0  0
  7  8  1  0  0  0  0
  9 10  1  0  0  0  0
 11 12  1  0  0  0  0
 11 18  1  0  0  0  0
 11 19  1  1  0  0  0
 12 13  1  0  0  0  0
 13 15  1  0  0  0  0
 13 14  1  1  0  0  0
 15 16  1  0  0  0  0
 15 26  1  6  0  0  0
 16 18  1  0  0  0  0
 16 17  1  1  0  0  0
 18  4  1  6  0  0  0
 20 21  1  0  0  0  0
 20 27  1  0  0  0  0
 21 31  1  6  0  0  0
 21 23  1  0  0  0  0
 21 22  1  0  0  0  0
 23 24  1  0  0  0  0
 23 29  1  6  0  0  0
 24 25  1  0  0  0  0
 24 28  1  1  0  0  0
 25 27  1  0  0  0  0
 25 26  1  6  0  0  0
 29 30  1  0  0  0  0
M  CHG  5   6   1  10   1  14   1  19   1  29   1
M  END
>  <CHROM.1>
158.00298689,87.12195885,-82.73579958,173.60778843,172.82466628,-24.48535326
-156.33115801,-165.82322415,68.63825372,-60.84476302,45.34452977,-65.16380288
-147.65495453,0.74018768,-3.14281685,-8.19738897,2.67747802,0.29830542,0.77760271

>  <Name>
1byj cryst

>  <RI>
0

>  <Rbt.Current_Directory>
/home/itssahil/PROJECTS/Mol_Feturizer/New_Systems/rnas/1byj

>  <Rbt.Executable>
rbdock ($Id: //depot/dev/client3/rdock/2013.1/src/exe/rbdock.cxx#4 $)

>  <Rbt.Library>
libRbt.so (2013.1, Build901 2013/11/27)

>  <Rbt.Parameter_File>
/export/apps/rDock/src/rDock_2013.1_src/data/scripts/dock_solv.prm

>  <Rbt.Receptor>
prm/blind_docking_20.prm

>  <SCORE>
-13.6413

>  <SCORE.INTER>
-23.6283

>  <SCORE.INTER.CONST>
1

>  <SCORE.INTER.POLAR>
-5.50141

>  <SCORE.INTER.ROT>
6

>  <SCORE.INTER.SOLV>
31.1006

>  <SCORE.INTER.VDW>
-15.381

>  <SCORE.INTER.norm>
-0.762204

>  <SCORE.INTRA>
2.3038

>  <SCORE.INTRA.DIHEDRAL>
-1.44122

>  <SCORE.INTRA.DIHEDRAL.0>
18.4149

>  <SCORE.INTRA.POLAR>
-1.02665

>  <SCORE.INTRA.POLAR.0>
0

>  <SCORE.INTRA.REPUL>
-0.0913302

>  <SCORE.INTRA.REPUL.0>
0.092687

>  <SCORE.INTRA.SOLV>
-1.55462

>  <SCORE.INTRA.SOLV.lig_0>
-120.37

>  <SCORE.INTRA.VDW>
7.74898

>  <SCORE.INTRA.VDW.0>
-1.75542

>  <SCORE.INTRA.norm>
0.0743162

>  <SCORE.RESTR>
7.68322

>  <SCORE.RESTR.CAVITY>
7.68322

>  <SCORE.RESTR.norm>
0.247846

>  <SCORE.SYSTEM>
0

>  <SCORE.SYSTEM.CONST>
0

>  <SCORE.SYSTEM.DIHEDRAL>
0

>  <SCORE.SYSTEM.SOLV>
0

>  <SCORE.SYSTEM.norm>
0

>  <SCORE.heavy>
31

>  <SCORE.norm>
-0.440043

>  <RMSD>
13.924

$$$$
1byj cryst
 OpenBabel11021811383D
libRbt.so/2013.1/901 2013/11/27
 31 33  0  0  0  0  0  0  0  0999 V2000
   -4.1475   -2.1841   -6.5976 C   0  0  1  0  0  0  0  0  0  0  0  0
   -3.0858   -2.5550   -5.6609 O   0  0  0  0  0  0  0  0  0  0  0  0
   -2.2456   -3.7056   -5.9754 C   0  0  2  0  0  0  0  0  0  0  0  0
   -1.3920   -3.4401   -7.1320 O   0  0  0  0  0  0  0  0  0  0  0  0
   -3.1495   -4.9517   -6.2214 C   0  0  2  0  0  0  0  0  0  0  0  0
   -2.3841   -6.1708   -6.5484 N   0  3  0  0  0  0  0  0  0  0  0  0
   -4.1832   -4.6475   -7.3363 C   0  0  0  0  0  0  0  0  0  0  0  0
   -5.0211   -3.4080   -6.9885 C   0  0  0  0  0  0  0  0  0  0  0  0
   -5.0406   -1.1070   -5.9571 C   0  0  0  0  0  0  0  0  0  0  0  0
   -5.2407   -1.2835   -4.5128 N   0  3  0  0  0  0  0  0  0  0  0  0
   -0.1840   -1.4412   -6.3475 C   0  0  1  0  0  0  0  0  0  0  0  0
    1.1997   -0.7633   -6.1983 C   0  0  0  0  0  0  0  0  0  0  0  0
    1.9172   -0.6841   -7.5726 C   0  0  1  0  0  0  0  0  0  0  0  0
    3.1988    0.0329   -7.4296 N   0  3  0  0  0  0  0  0  0  0  0  0
    2.1126   -2.1112   -8.1615 C   0  0  1  0  0  0  0  0  0  0  0  0
    0.7727   -2.8849   -8.2407 C   0  0  1  0  0  0  0  0  0  0  0  0
    1.0936   -4.2136   -8.6249 O   0  0  0  0  0  0  0  0  0  0  0  0
   -0.0537   -2.8938   -6.9125 C   0  0  2  0  0  0  0  0  0  0  0  0
   -0.8995   -1.4190   -5.0595 N   0  3  0  0  0  0  0  0  0  0  0  0
    3.3870   -4.9699   -9.9384 C   0  0  0  0  0  0  0  0  0  0  0  0
    3.8767   -5.0624  -11.4044 C   0  0  2  0  0  0  0  0  0  0  0  0
    5.2339   -5.5009  -11.3636 O   0  0  0  0  0  0  0  0  0  0  0  0
    3.7639   -3.6464  -12.0852 C   0  0  1  0  0  0  0  0  0  0  0  0
    4.3818   -2.5003  -11.2141 C   0  0  2  0  0  0  0  0  0  0  0  0
    3.9801   -2.5759   -9.7192 C   0  0  1  0  0  0  0  0  0  0  0  0
    2.6471   -2.0387   -9.5141 O   0  0  0  0  0  0  0  0  0  0  0  0
    4.1029   -3.9351   -9.2128 O   0  0  0  0  0  0  0  0  0  0  0  0
    4.0320   -1.2147  -11.7200 O   0  0  0  0  0  0  0  0  0  0  0  0
    4.4014   -3.6833  -13.4382 N   0  3  0  0  0  0  0  0  0  0  0  0
    3.5041   -3.8627  -14.5978 C   0  0  0  0  0  0  0  0  0  0  0  0
    3.0602   -6.1596  -12.1308 C   0  0  0  0  0  0  0  0  0  0  0  0
  1  8  1  0  0  0  0
  1  9  1  1  0  0  0
  1  2  1  0  0  0  0
  2  3  1  0  0  0  0
  3  5  1  0  0  0  0
  3  4  1  6  0  0  0
  5  7  1  0  0  0  0
  5  6  1  6  0  0  0
  7  8  1  0  0  0  0
  9 10  1  0  0  0  0
 11 12  1  0  0  0  0
 11 18  1  0  0  0  0
 11 19  1  1  0  0  0
 12 13  1  0  0  0  0
 13 15  1  0  0  0  0
 13 14  1  1  0  0  0
 15 16  1  0  0  0  0
 15 26  1  6  0  0  0
 16 18  1  0  0  0  0
 16 17  1  1  0  0  0
 18  4  1  6  0  0  0
 20 21  1  0  0  0  0
 20 27  1  0  0  0  0
 21 31  1  6  0  0  0
 21 23  1  0  0  0  0
 21 22  1  0  0  0  0
 23 24  1  0  0  0  0
 23 29  1  6  0  0  0
 24 25  1  0  0  0  0
 24 28  1  6  0  0  0
 25 27  1  0  0  0  0
 25 26  1  6  0  0  0
 29 30  1  0  0  0  0
M  CHG  5   6   1  10   1  14   1  19   1  29   1
M  END
>  <CHROM.1>
-36.31879916,91.70343818,-67.03444842,-173.70640765,-82.52155861,158.80488994
175.42828997,114.74045940,-86.09762511,-56.87038317,-140.69281866,-62.74955613
176.89870651,0.65572931,-3.06242580,-8.51023076,2.68238106,0.48533116,0.64296062

>  <Name>
1byj cryst

>  <RI>
0

>  <Rbt.Current_Directory>
/home/itssahil/PROJECTS/Mol_Feturizer/New_Systems/rnas/1byj

>  <Rbt.Executable>
rbdock ($Id: //depot/dev/client3/rdock/2013.1/src/exe/rbdock.cxx#4 $)

>  <Rbt.Library>
libRbt.so (2013.1, Build901 2013/11/27)

>  <Rbt.Parameter_File>
/export/apps/rDock/src/rDock_2013.1_src/data/scripts/dock_solv.prm

>  <Rbt.Receptor>
prm/blind_docking_100.prm

>  <SCORE>
-3.34738

>  <SCORE.INTER>
-13.6024

>  <SCORE.INTER.CONST>
1

>  <SCORE.INTER.POLAR>
-3.38237

>  <SCORE.INTER.ROT>
6

>  <SCORE.INTER.SOLV>
26.2049

>  <SCORE.INTER.VDW>
-14.1287

>  <SCORE.INTER.norm>
-0.438786

>  <SCORE.INTRA>
-1.67233

>  <SCORE.INTRA.DIHEDRAL>
2.67398

>  <SCORE.INTRA.DIHEDRAL.0>
18.4149

>  <SCORE.INTRA.POLAR>
-1.22041

>  <SCORE.INTRA.POLAR.0>
0

>  <SCORE.INTRA.REPUL>
-0.092687

>  <SCORE.INTRA.REPUL.0>
0.092687

>  <SCORE.INTRA.SOLV>
1.98121

>  <SCORE.INTRA.SOLV.lig_0>
-120.37

>  <SCORE.INTRA.VDW>
0.612913

>  <SCORE.INTRA.VDW.0>
-1.75542

>  <SCORE.INTRA.norm>
-0.0539462

>  <SCORE.RESTR>
11.9273

>  <SCORE.RESTR.CAVITY>
11.9273

>  <SCORE.RESTR.norm>
0.384753

>  <SCORE.SYSTEM>
0

>  <SCORE.SYSTEM.CONST>
0

>  <SCORE.SYSTEM.DIHEDRAL>
0

>  <SCORE.SYSTEM.SOLV>
0

>  <SCORE.SYSTEM.norm>
0

>  <SCORE.heavy>
31

>  <SCORE.norm>
-0.10798

>  <RMSD>
13.954

$$$$
1byj cryst
 OpenBabel11021811383D
libRbt.so/2013.1/901 2013/11/27
 31 33  0  0  0  0  0  0  0  0999 V2000
   -7.8426   -4.3425   -3.1166 C   0  0  1  0  0  0  0  0  0  0  0  0
   -6.6552   -4.8999   -3.7658 O   0  0  0  0  0  0  0  0  0  0  0  0
   -6.3258   -4.4610   -5.1176 C   0  0  2  0  0  0  0  0  0  0  0  0
   -5.9097   -3.0598   -5.1351 O   0  0  0  0  0  0  0  0  0  0  0  0
   -7.5554   -4.6911   -6.0480 C   0  0  2  0  0  0  0  0  0  0  0  0
   -7.3157   -4.2745   -7.4437 N   0  3  0  0  0  0  0  0  0  0  0  0
   -8.8000   -3.9662   -5.4739 C   0  0  0  0  0  0  0  0  0  0  0  0
   -9.0915   -4.4245   -4.0371 C   0  0  0  0  0  0  0  0  0  0  0  0
   -8.1212   -5.1122   -1.8135 C   0  0  0  0  0  0  0  0  0  0  0  0
   -6.9076   -5.5182   -1.0926 N   0  3  0  0  0  0  0  0  0  0  0  0
   -5.2936   -1.4214   -3.4012 C   0  0  1  0  0  0  0  0  0  0  0  0
   -4.1441   -0.8522   -2.5344 C   0  0  0  0  0  0  0  0  0  0  0  0
   -2.9710   -0.3755   -3.4324 C   0  0  1  0  0  0  0  0  0  0  0  0
   -1.9171    0.2351   -2.5997 N   0  3  0  0  0  0  0  0  0  0  0  0
   -2.4267   -1.5604   -4.2817 C   0  0  1  0  0  0  0  0  0  0  0  0
   -3.5528   -2.2430   -5.0978 C   0  0  1  0  0  0  0  0  0  0  0  0
   -2.9803   -3.3991   -5.6909 O   0  0  0  0  0  0  0  0  0  0  0  0
   -4.8157   -2.6363   -4.2625 C   0  0  2  0  0  0  0  0  0  0  0  0
   -6.4422   -1.7754   -2.5487 N   0  3  0  0  0  0  0  0  0  0  0  0
   -0.8841   -2.8902   -7.6406 C   0  0  0  0  0  0  0  0  0  0  0  0
    0.3241   -2.2498   -8.3668 C   0  0  2  0  0  0  0  0  0  0  0  0
    1.3770   -3.2128   -8.3531 O   0  0  0  0  0  0  0  0  0  0  0  0
    0.7541   -0.9362   -7.6112 C   0  0  1  0  0  0  0  0  0  0  0  0
    0.8986   -1.1421   -6.0650 C   0  0  2  0  0  0  0  0  0  0  0  0
   -0.2703   -1.9427   -5.4368 C   0  0  1  0  0  0  0  0  0  0  0  0
   -1.4295   -1.0924   -5.2343 O   0  0  0  0  0  0  0  0  0  0  0  0
   -0.5895   -3.1165   -6.2363 O   0  0  0  0  0  0  0  0  0  0  0  0
    1.0224    0.1030   -5.3826 O   0  0  0  0  0  0  0  0  0  0  0  0
    2.0274   -0.4105   -8.1950 N   0  3  0  0  0  0  0  0  0  0  0  0
    1.9072    0.5675   -9.2953 C   0  0  0  0  0  0  0  0  0  0  0  0
   -0.0595   -2.0085   -9.8476 C   0  0  0  0  0  0  0  0  0  0  0  0
  1  8  1  0  0  0  0
  1  9  1  1  0  0  0
  1  2  1  0  0  0  0
  2  3  1  0  0  0  0
  3  5  1  0  0  0  0
  3  4  1  1  0  0  0
  5  7  1  0  0  0  0
  5  6  1  6  0  0  0
  7  8  1  0  0  0  0
  9 10  1  0  0  0  0
 11 12  1  0  0  0  0
 11 18  1  0  0  0  0
 11 19  1  1  0  0  0
 12 13  1  0  0  0  0
 13 15  1  0  0  0  0
 13 14  1  1  0  0  0
 15 16  1  0  0  0  0
 15 26  1  6  0  0  0
 16 18  1  0  0  0  0
 16 17  1  1  0  0  0
 18  4  1  6  0  0  0
 20 21  1  0  0  0  0
 20 27  1  0  0  0  0
 21 31  1  6  0  0  0
 21 23  1  0  0  0  0
 21 22  1  0  0  0  0
 23 24  1  0  0  0  0
 23 29  1  6  0  0  0
 24 25  1  0  0  0  0
 24 28  1  1  0  0  0
 25 27  1  0  0  0  0
 25 26  1  6  0  0  0
 29 30  1  0  0  0  0
M  CHG  5   6   1  10   1  14   1  19   1  29   1
M  END
>  <CHROM.1>
36.65846670,54.56239563,-126.62580979,-145.74480964,87.04401170,176.82931003
51.17787823,140.28665141,-174.91160208,170.15120578,-147.62380184,-55.22315243
-160.64215812,-3.31998442,-2.48709251,-5.30668708,2.90429465,0.48262833,1.13468999

>  <Name>
1byj cryst

>  <RI>
0

>  <Rbt.Current_Directory>
/home/itssahil/PROJECTS/Mol_Feturizer/New_Systems/rnas/1byj

>  <Rbt.Executable>
rbdock ($Id: //depot/dev/client3/rdock/2013.1/src/exe/rbdock.cxx#4 $)

>  <Rbt.Library>
libRbt.so (2013.1, Build901 2013/11/27)

>  <Rbt.Parameter_File>
/export/apps/rDock/src/rDock_2013.1_src/data/scripts/dock_solv.prm

>  <Rbt.Receptor>
prm/blind_docking_100.prm

>  <SCORE>
-3.42114

>  <SCORE.INTER>
-13.318

>  <SCORE.INTER.CONST>
1

>  <SCORE.INTER.POLAR>
-2.82374

>  <SCORE.INTER.ROT>
6

>  <SCORE.INTER.SOLV>
19.3089

>  <SCORE.INTER.VDW>
-13.5025

>  <SCORE.INTER.norm>
-0.429613

>  <SCORE.INTRA>
2.37036

>  <SCORE.INTRA.DIHEDRAL>
4.27304

>  <SCORE.INTRA.DIHEDRAL.0>
18.4149

>  <SCORE.INTRA.POLAR>
-0.219654

>  <SCORE.INTRA.POLAR.0>
0

>  <SCORE.INTRA.REPUL>
-0.092687

>  <SCORE.INTRA.REPUL.0>
0.092687

>  <SCORE.INTRA.SOLV>
1.85749

>  <SCORE.INTRA.SOLV.lig_0>
-120.37

>  <SCORE.INTRA.VDW>
0.515346

>  <SCORE.INTRA.VDW.0>
-1.75542

>  <SCORE.INTRA.norm>
0.0764631

>  <SCORE.RESTR>
7.5265

>  <SCORE.RESTR.CAVITY>
7.5265

>  <SCORE.RESTR.norm>
0.24279

>  <SCORE.SYSTEM>
0

>  <SCORE.SYSTEM.CONST>
0

>  <SCORE.SYSTEM.DIHEDRAL>
0

>  <SCORE.SYSTEM.SOLV>
0

>  <SCORE.SYSTEM.norm>
0

>  <SCORE.heavy>
31

>  <SCORE.norm>
-0.110359

>  <RMSD>
13.956

$$$$
1byj cryst
 OpenBabel11021811383D
libRbt.so/2013.1/901 2013/11/27
 31 33  0  0  0  0  0  0  0  0999 V2000
    0.2270   -5.4398   -6.9783 C   0  0  1  0  0  0  0  0  0  0  0  0
   -0.1964   -4.3358   -7.8408 O   0  0  0  0  0  0  0  0  0  0  0  0
   -0.7723   -3.1462   -7.2229 C   0  0  2  0  0  0  0  0  0  0  0  0
    0.2282   -2.4101   -6.4523 O   0  0  0  0  0  0  0  0  0  0  0  0
   -1.9751   -3.5640   -6.3233 C   0  0  2  0  0  0  0  0  0  0  0  0
   -2.6251   -2.4209   -5.6525 N   0  3  0  0  0  0  0  0  0  0  0  0
   -1.5185   -4.6150   -5.2788 C   0  0  0  0  0  0  0  0  0  0  0  0
   -0.8823   -5.8336   -5.9642 C   0  0  0  0  0  0  0  0  0  0  0  0
    0.5776   -6.6610   -7.8465 C   0  0  0  0  0  0  0  0  0  0  0  0
    1.3941   -7.6668   -7.1544 N   0  3  0  0  0  0  0  0  0  0  0  0
    1.1500   -0.6852   -7.9509 C   0  0  1  0  0  0  0  0  0  0  0  0
    2.3821   -0.2354   -8.7731 C   0  0  0  0  0  0  0  0  0  0  0  0
    2.8161   -1.3539   -9.7582 C   0  0  1  0  0  0  0  0  0  0  0  0
    3.9410   -0.8831  -10.5887 N   0  3  0  0  0  0  0  0  0  0  0  0
    3.1741   -2.6511   -8.9766 C   0  0  1  0  0  0  0  0  0  0  0  0
    2.0150   -3.0988   -8.0513 C   0  0  1  0  0  0  0  0  0  0  0  0
    2.5116   -4.1766   -7.2716 O   0  0  0  0  0  0  0  0  0  0  0  0
    1.4542   -1.9744   -7.1193 C   0  0  2  0  0  0  0  0  0  0  0  0
    0.6832    0.4190   -7.0941 N   0  3  0  0  0  0  0  0  0  0  0  0
    3.7782   -6.7748   -9.6904 C   0  0  0  0  0  0  0  0  0  0  0  0
    4.5295   -7.1928  -10.9782 C   0  0  2  0  0  0  0  0  0  0  0  0
    5.7658   -7.7760  -10.5689 O   0  0  0  0  0  0  0  0  0  0  0  0
    4.7774   -5.9227  -11.8764 C   0  0  1  0  0  0  0  0  0  0  0  0
    5.3810   -4.7188  -11.0762 C   0  0  2  0  0  0  0  0  0  0  0  0
    4.6829   -4.4700   -9.7151 C   0  0  1  0  0  0  0  0  0  0  0  0
    3.4365   -3.7482   -9.8975 O   0  0  0  0  0  0  0  0  0  0  0  0
    4.4881   -5.7178   -8.9913 O   0  0  0  0  0  0  0  0  0  0  0  0
    5.3444   -3.5153  -11.8387 O   0  0  0  0  0  0  0  0  0  0  0  0
    5.6578   -6.2836  -13.0309 N   0  3  0  0  0  0  0  0  0  0  0  0
    5.8996   -5.2355  -14.0433 C   0  0  0  0  0  0  0  0  0  0  0  0
    3.7126   -8.2987  -11.6909 C   0  0  0  0  0  0  0  0  0  0  0  0
  1  8  1  0  0  0  0
  1  9  1  6  0  0  0
  1  2  1  0  0  0  0
  2  3  1  0  0  0  0
  3  5  1  0  0  0  0
  3  4  1  1  0  0  0
  5  7  1  0  0  0  0
  5  6  1  1  0  0  0
  7  8  1  0  0  0  0
  9 10  1  0  0  0  0
 11 12  1  0  0  0  0
 11 18  1  0  0  0  0
 11 19  1  1  0  0  0
 12 13  1  0  0  0  0
 13 15  1  0  0  0  0
 13 14  1  1  0  0  0
 15 16  1  0  0  0  0
 15 26  1  6  0  0  0
 16 18  1  0  0  0  0
 16 17  1  1  0  0  0
 18  4  1  6  0  0  0
 20 21  1  0  0  0  0
 20 27  1  0  0  0  0
 21 31  1  6  0  0  0
 21 23  1  0  0  0  0
 21 22  1  0  0  0  0
 23 24  1  0  0  0  0
 23 29  1  6  0  0  0
 24 25  1  0  0  0  0
 24 28  1  6  0  0  0
 25 27  1  0  0  0  0
 25 26  1  6  0  0  0
 29 30  1  0  0  0  0
M  CHG  5   6   1  10   1  14   1  19   1  29   1
M  END
>  <CHROM.1>
162.06473146,55.90248387,79.17202866,8.61188234,85.34717049,-78.96206465
164.23086978,128.18104405,-49.78287284,-70.02745409,-64.06034702,51.68486163
-135.70209040,2.34683124,-4.20768886,-8.90114130,2.77316902,0.73633354,-0.00759425

>  <Name>
1byj cryst

>  <RI>
0

>  <Rbt.Current_Directory>
/home/itssahil/PROJECTS/Mol_Feturizer/New_Systems/rnas/1byj

>  <Rbt.Executable>
rbdock ($Id: //depot/dev/client3/rdock/2013.1/src/exe/rbdock.cxx#4 $)

>  <Rbt.Library>
libRbt.so (2013.1, Build901 2013/11/27)

>  <Rbt.Parameter_File>
/export/apps/rDock/src/rDock_2013.1_src/data/scripts/dock_solv.prm

>  <Rbt.Receptor>
prm/blind_docking_80.prm

>  <SCORE>
-16.3676

>  <SCORE.INTER>
-21.3551

>  <SCORE.INTER.CONST>
1

>  <SCORE.INTER.POLAR>
-6.16686

>  <SCORE.INTER.ROT>
6

>  <SCORE.INTER.SOLV>
30.6761

>  <SCORE.INTER.VDW>
-11.5059

>  <SCORE.INTER.norm>
-0.688873

>  <SCORE.INTRA>
0.235438

>  <SCORE.INTRA.DIHEDRAL>
5.03883

>  <SCORE.INTRA.DIHEDRAL.0>
18.4149

>  <SCORE.INTRA.POLAR>
-1.0909

>  <SCORE.INTRA.POLAR.0>
0

>  <SCORE.INTRA.REPUL>
-0.092687

>  <SCORE.INTRA.REPUL.0>
0.092687

>  <SCORE.INTRA.SOLV>
0.568826

>  <SCORE.INTRA.SOLV.lig_0>
-120.37

>  <SCORE.INTRA.VDW>
1.60409

>  <SCORE.INTRA.VDW.0>
-1.75542

>  <SCORE.INTRA.norm>
0.00759476

>  <SCORE.RESTR>
4.75204

>  <SCORE.RESTR.CAVITY>
4.75204

>  <SCORE.RESTR.norm>
0.153291

>  <SCORE.SYSTEM>
0

>  <SCORE.SYSTEM.CONST>
0

>  <SCORE.SYSTEM.DIHEDRAL>
0

>  <SCORE.SYSTEM.SOLV>
0

>  <SCORE.SYSTEM.norm>
0

>  <SCORE.heavy>
31

>  <SCORE.norm>
-0.527987

>  <RMSD>
14.015

$$$$
1byj cryst
 OpenBabel11021811383D
libRbt.so/2013.1/901 2013/11/27
 31 33  0  0  0  0  0  0  0  0999 V2000
    0.3748   -5.6435   -7.0226 C   0  0  1  0  0  0  0  0  0  0  0  0
   -0.0964   -4.5061   -7.8140 O   0  0  0  0  0  0  0  0  0  0  0  0
   -0.6778   -3.3627   -7.1188 C   0  0  2  0  0  0  0  0  0  0  0  0
    0.3299   -2.6455   -6.3399 O   0  0  0  0  0  0  0  0  0  0  0  0
   -1.8447   -3.8524   -6.2082 C   0  0  2  0  0  0  0  0  0  0  0  0
   -2.4977   -2.7598   -5.4606 N   0  3  0  0  0  0  0  0  0  0  0  0
   -1.3360   -4.9455   -5.2334 C   0  0  0  0  0  0  0  0  0  0  0  0
   -0.6957   -6.1130   -5.9991 C   0  0  0  0  0  0  0  0  0  0  0  0
    0.7242   -6.8105   -7.9628 C   0  0  0  0  0  0  0  0  0  0  0  0
    1.5796   -7.8334   -7.3470 N   0  3  0  0  0  0  0  0  0  0  0  0
    1.1457   -0.8267   -7.7879 C   0  0  1  0  0  0  0  0  0  0  0  0
    2.3368   -0.2976   -8.6233 C   0  0  0  0  0  0  0  0  0  0  0  0
    2.7823   -1.3572   -9.6666 C   0  0  1  0  0  0  0  0  0  0  0  0
    3.8653   -0.8108  -10.5065 N   0  3  0  0  0  0  0  0  0  0  0  0
    3.2090   -2.6716   -8.9512 C   0  0  1  0  0  0  0  0  0  0  0  0
    2.0938   -3.2002   -8.0147 C   0  0  1  0  0  0  0  0  0  0  0  0
    2.6509   -4.2904   -7.2955 O   0  0  0  0  0  0  0  0  0  0  0  0
    1.5199   -2.1372   -7.0207 C   0  0  2  0  0  0  0  0  0  0  0  0
    0.6643    0.2228   -6.8724 N   0  3  0  0  0  0  0  0  0  0  0  0
    4.6434   -6.5380  -10.0941 C   0  0  0  0  0  0  0  0  0  0  0  0
    5.1086   -6.7039  -11.5616 C   0  0  2  0  0  0  0  0  0  0  0  0
    6.5167   -6.9329  -11.5291 O   0  0  0  0  0  0  0  0  0  0  0  0
    4.7706   -5.3948  -12.3700 C   0  0  1  0  0  0  0  0  0  0  0  0
    5.2299   -4.0894  -11.6358 C   0  0  2  0  0  0  0  0  0  0  0  0
    4.8775   -4.0732  -10.1267 C   0  0  1  0  0  0  0  0  0  0  0  0
    3.4841   -3.7189   -9.9249 O   0  0  0  0  0  0  0  0  0  0  0  0
    5.2129   -5.3423   -9.4975 O   0  0  0  0  0  0  0  0  0  0  0  0
    4.6811   -2.9258  -12.2489 O   0  0  0  0  0  0  0  0  0  0  0  0
    5.3762   -5.4732  -13.7358 N   0  3  0  0  0  0  0  0  0  0  0  0
    6.7888   -5.0617  -13.8678 C   0  0  0  0  0  0  0  0  0  0  0  0
    4.4489   -7.9757  -12.1492 C   0  0  0  0  0  0  0  0  0  0  0  0
  1  8  1  0  0  0  0
  1  9  1  6  0  0  0
  1  2  1  0  0  0  0
  2  3  1  0  0  0  0
  3  5  1  0  0  0  0
  3  4  1  1  0  0  0
  5  7  1  0  0  0  0
  5  6  1  1  0  0  0
  7  8  1  0  0  0  0
  9 10  1  0  0  0  0
 11 12  1  0  0  0  0
 11 18  1  0  0  0  0
 11 19  1  1  0  0  0
 12 13  1  0  0  0  0
 13 15  1  0  0  0  0
 13 14  1  1  0  0  0
 15 16  1  0  0  0  0
 15 26  1  6  0  0  0
 16 18  1  0  0  0  0
 16 17  1  1  0  0  0
 18  4  1  6  0  0  0
 20 21  1  0  0  0  0
 20 27  1  0  0  0  0
 21 31  1  6  0  0  0
 21 23  1  0  0  0  0
 21 22  1  0  0  0  0
 23 24  1  0  0  0  0
 23 29  1  6  0  0  0
 24 25  1  0  0  0  0
 24 28  1  6  0  0  0
 25 27  1  0  0  0  0
 25 26  1  6  0  0  0
 29 30  1  0  0  0  0
M  CHG  5   6   1  10   1  14   1  19   1  29   1
M  END
>  <CHROM.1>
162.14968720,56.53563851,77.98300038,-33.05230219,-160.26741618,151.56858784
45.57409877,107.19239738,-55.51445255,175.76319701,36.64290267,-61.97767680
-130.44328210,2.51343187,-4.13081464,-9.04747394,2.88768084,0.76689285,-0.00360443

>  <Name>
1byj cryst

>  <RI>
0

>  <Rbt.Current_Directory>
/home/itssahil/PROJECTS/Mol_Feturizer/New_Systems/rnas/1byj

>  <Rbt.Executable>
rbdock ($Id: //depot/dev/client3/rdock/2013.1/src/exe/rbdock.cxx#4 $)

>  <Rbt.Library>
libRbt.so (2013.1, Build901 2013/11/27)

>  <Rbt.Parameter_File>
/export/apps/rDock/src/rDock_2013.1_src/data/scripts/dock_solv.prm

>  <Rbt.Receptor>
prm/blind_docking_80.prm

>  <SCORE>
-21.9583

>  <SCORE.INTER>
-26.8088

>  <SCORE.INTER.CONST>
1

>  <SCORE.INTER.POLAR>
-6.46367

>  <SCORE.INTER.ROT>
6

>  <SCORE.INTER.SOLV>
29.9632

>  <SCORE.INTER.VDW>
-13.9147

>  <SCORE.INTER.norm>
-0.864799

>  <SCORE.INTRA>
0.137787

>  <SCORE.INTRA.DIHEDRAL>
3.48401

>  <SCORE.INTRA.DIHEDRAL.0>
18.4149

>  <SCORE.INTRA.POLAR>
-1.18082

>  <SCORE.INTRA.POLAR.0>
0

>  <SCORE.INTRA.REPUL>
-0.092687

>  <SCORE.INTRA.REPUL.0>
0.092687

>  <SCORE.INTRA.SOLV>
-0.0322493

>  <SCORE.INTRA.SOLV.lig_0>
-120.37

>  <SCORE.INTRA.VDW>
2.89013

>  <SCORE.INTRA.VDW.0>
-1.75542

>  <SCORE.INTRA.norm>
0.00444474

>  <SCORE.RESTR>
4.71268

>  <SCORE.RESTR.CAVITY>
4.71268

>  <SCORE.RESTR.norm>
0.152022

>  <SCORE.SYSTEM>
0

>  <SCORE.SYSTEM.CONST>
0

>  <SCORE.SYSTEM.DIHEDRAL>
0

>  <SCORE.SYSTEM.SOLV>
0

>  <SCORE.SYSTEM.norm>
0

>  <SCORE.heavy>
31

>  <SCORE.norm>
-0.708332

>  <RMSD>
14.028

$$$$
1byj cryst
 OpenBabel11021811383D
libRbt.so/2013.1/901 2013/11/27
 31 33  0  0  0  0  0  0  0  0999 V2000
   -3.0649   -3.4246   -5.9743 C   0  0  1  0  0  0  0  0  0  0  0  0
   -1.7950   -3.2616   -5.2652 O   0  0  0  0  0  0  0  0  0  0  0  0
   -0.7234   -4.2182   -5.5201 C   0  0  2  0  0  0  0  0  0  0  0  0
   -0.1998   -4.0805   -6.8780 O   0  0  0  0  0  0  0  0  0  0  0  0
   -1.2518   -5.6631   -5.2682 C   0  0  2  0  0  0  0  0  0  0  0  0
   -0.2325   -6.7049   -5.5022 N   0  3  0  0  0  0  0  0  0  0  0  0
   -2.5069   -5.9299   -6.1386 C   0  0  0  0  0  0  0  0  0  0  0  0
   -3.5966   -4.8808   -5.8716 C   0  0  0  0  0  0  0  0  0  0  0  0
   -4.1081   -2.4605   -5.3823 C   0  0  0  0  0  0  0  0  0  0  0  0
   -3.6080   -1.0940   -5.1831 N   0  3  0  0  0  0  0  0  0  0  0  0
    0.1551   -1.6723   -7.2589 C   0  0  1  0  0  0  0  0  0  0  0  0
    1.1802   -0.5795   -7.6480 C   0  0  0  0  0  0  0  0  0  0  0  0
    1.8405   -0.9146   -9.0124 C   0  0  1  0  0  0  0  0  0  0  0  0
    2.7564    0.1725   -9.4077 N   0  3  0  0  0  0  0  0  0  0  0  0
    2.5680   -2.2881   -8.9360 C   0  0  1  0  0  0  0  0  0  0  0  0
    1.6181   -3.4114   -8.4500 C   0  0  1  0  0  0  0  0  0  0  0  0
    2.4213   -4.5662   -8.2562 O   0  0  0  0  0  0  0  0  0  0  0  0
    0.8313   -3.0775   -7.1397 C   0  0  2  0  0  0  0  0  0  0  0  0
   -0.5398   -1.2941   -6.0157 N   0  3  0  0  0  0  0  0  0  0  0  0
    4.9825   -5.0246   -9.8847 C   0  0  0  0  0  0  0  0  0  0  0  0
    5.4963   -5.3598  -11.3064 C   0  0  2  0  0  0  0  0  0  0  0  0
    6.9103   -5.1681  -11.2945 O   0  0  0  0  0  0  0  0  0  0  0  0
    4.8083   -4.4030  -12.3517 C   0  0  1  0  0  0  0  0  0  0  0  0
    4.8633   -2.8961  -11.9271 C   0  0  2  0  0  0  0  0  0  0  0  0
    4.4998   -2.6602  -10.4391 C   0  0  1  0  0  0  0  0  0  0  0  0
    3.0607   -2.6807  -10.2488 O   0  0  0  0  0  0  0  0  0  0  0  0
    5.1764   -3.6183   -9.5772 O   0  0  0  0  0  0  0  0  0  0  0  0
    4.0123   -2.0937  -12.7414 O   0  0  0  0  0  0  0  0  0  0  0  0
    5.4301   -4.5949  -13.6989 N   0  3  0  0  0  0  0  0  0  0  0  0
    4.8246   -5.6161  -14.5777 C   0  0  0  0  0  0  0  0  0  0  0  0
    5.2378   -6.8609  -11.5851 C   0  0  0  0  0  0  0  0  0  0  0  0
  1  8  1  0  0  0  0
  1  9  1  1  0  0  0
  1  2  1  0  0  0  0
  2  3  1  0  0  0  0
  3  5  1  0  0  0  0
  3  4  1  6  0  0  0
  5  7  1  0  0  0  0
  5  6  1  6  0  0  0
  7  8  1  0  0  0  0
  9 10  1  0  0  0  0
 11 12  1  0  0  0  0
 11 18  1  0  0  0  0
 11 19  1  1  0  0  0
 12 13  1  0  0  0  0
 13 15  1  0  0  0  0
 13 14  1  1  0  0  0
 15 16  1  0  0  0  0
 15 26  1  6  0  0  0
 16 18  1  0  0  0  0
 16 17  1  1  0  0  0
 18  4  1  6  0  0  0
 20 21  1  0  0  0  0
 20 27  1  0  0  0  0
 21 31  1  6  0  0  0
 21 23  1  0  0  0  0
 21 22  1  0  0  0  0
 23 24  1  0  0  0  0
 23 29  1  6  0  0  0
 24 25  1  0  0  0  0
 24 28  1  6  0  0  0
 25 27  1  0  0  0  0
 25 26  1  6  0  0  0
 29 30  1  0  0  0  0
M  CHG  5   6   1  10   1  14   1  19   1  29   1
M  END
>  <CHROM.1>
46.03037006,84.62906102,-79.09514140,-0.82198893,46.60753190,172.75073363
61.28095769,110.02115208,-168.96073028,33.62002864,-148.89805330,-69.75833097
-171.69180501,1.66991801,-3.54521613,-8.67796149,3.10521393,0.71549622,-0.08705225

>  <Name>
1byj cryst

>  <RI>
0

>  <Rbt.Current_Directory>
/home/itssahil/PROJECTS/Mol_Feturizer/New_Systems/rnas/1byj

>  <Rbt.Executable>
rbdock ($Id: //depot/dev/client3/rdock/2013.1/src/exe/rbdock.cxx#4 $)

>  <Rbt.Library>
libRbt.so (2013.1, Build901 2013/11/27)

>  <Rbt.Parameter_File>
/export/apps/rDock/src/rDock_2013.1_src/data/scripts/dock_solv.prm

>  <Rbt.Receptor>
prm/blind_docking_20.prm

>  <SCORE>
-11.0906

>  <SCORE.INTER>
-19.4771

>  <SCORE.INTER.CONST>
1

>  <SCORE.INTER.POLAR>
-5.83191

>  <SCORE.INTER.ROT>
6

>  <SCORE.INTER.SOLV>
33.1606

>  <SCORE.INTER.VDW>
-12.1986

>  <SCORE.INTER.norm>
-0.628294

>  <SCORE.INTRA>
2.54609

>  <SCORE.INTRA.DIHEDRAL>
3.59099

>  <SCORE.INTRA.DIHEDRAL.0>
18.4149

>  <SCORE.INTRA.POLAR>
-0.800513

>  <SCORE.INTRA.POLAR.0>
0

>  <SCORE.INTRA.REPUL>
-0.092687

>  <SCORE.INTRA.REPUL.0>
0.092687

>  <SCORE.INTRA.SOLV>
6.0923

>  <SCORE.INTRA.SOLV.lig_0>
-120.37

>  <SCORE.INTRA.VDW>
0.889623

>  <SCORE.INTRA.VDW.0>
-1.75542

>  <SCORE.INTRA.norm>
0.0821318

>  <SCORE.RESTR>
5.84044

>  <SCORE.RESTR.CAVITY>
5.84044

>  <SCORE.RESTR.norm>
0.188401

>  <SCORE.SYSTEM>
0

>  <SCORE.SYSTEM.CONST>
0

>  <SCORE.SYSTEM.DIHEDRAL>
0

>  <SCORE.SYSTEM.SOLV>
0

>  <SCORE.SYSTEM.norm>
0

>  <SCORE.heavy>
31

>  <SCORE.norm>
-0.357761

>  <RMSD>
14.057

$$$$
1byj cryst
 OpenBabel11021811383D
libRbt.so/2013.1/901 2013/11/27
 31 33  0  0  0  0  0  0  0  0999 V2000
   -3.2701   -3.2041   -6.4081 C   0  0  1  0  0  0  0  0  0  0  0  0
   -2.1126   -2.9868   -5.5392 O   0  0  0  0  0  0  0  0  0  0  0  0
   -1.0684   -4.0049   -5.4970 C   0  0  2  0  0  0  0  0  0  0  0  0
   -0.3425   -4.0747   -6.7639 O   0  0  0  0  0  0  0  0  0  0  0  0
   -1.7059   -5.3823   -5.1410 C   0  0  2  0  0  0  0  0  0  0  0  0
   -0.7213   -6.4801   -5.0751 N   0  3  0  0  0  0  0  0  0  0  0  0
   -2.8306   -5.7252   -6.1517 C   0  0  0  0  0  0  0  0  0  0  0  0
   -3.8894   -4.6133   -6.1972 C   0  0  0  0  0  0  0  0  0  0  0  0
   -4.3358   -2.1328   -6.1169 C   0  0  0  0  0  0  0  0  0  0  0  0
   -4.4556   -1.7857   -4.6948 N   0  3  0  0  0  0  0  0  0  0  0  0
    0.1555   -1.6906   -7.1357 C   0  0  1  0  0  0  0  0  0  0  0  0
    1.2479   -0.6578   -7.5055 C   0  0  0  0  0  0  0  0  0  0  0  0
    1.9118   -1.0297   -8.8585 C   0  0  1  0  0  0  0  0  0  0  0  0
    2.8948    0.0035   -9.2365 N   0  3  0  0  0  0  0  0  0  0  0  0
    2.5585   -2.4424   -8.7710 C   0  0  1  0  0  0  0  0  0  0  0  0
    1.5379   -3.5099   -8.3031 C   0  0  1  0  0  0  0  0  0  0  0  0
    2.2705   -4.7086   -8.0967 O   0  0  0  0  0  0  0  0  0  0  0  0
    0.7485   -3.1320   -7.0064 C   0  0  2  0  0  0  0  0  0  0  0  0
   -0.5384   -1.2737   -5.9044 N   0  3  0  0  0  0  0  0  0  0  0  0
    5.0502   -5.1579   -9.8470 C   0  0  0  0  0  0  0  0  0  0  0  0
    5.5502   -5.4130  -11.2901 C   0  0  2  0  0  0  0  0  0  0  0  0
    6.9575   -5.1774  -11.2914 O   0  0  0  0  0  0  0  0  0  0  0  0
    4.8154   -4.4329  -12.2806 C   0  0  1  0  0  0  0  0  0  0  0  0
    4.8309   -2.9455  -11.7895 C   0  0  2  0  0  0  0  0  0  0  0  0
    4.4854   -2.7876  -10.2870 C   0  0  1  0  0  0  0  0  0  0  0  0
    3.0510   -2.8622  -10.0756 O   0  0  0  0  0  0  0  0  0  0  0  0
    5.2057   -3.7613   -9.4795 O   0  0  0  0  0  0  0  0  0  0  0  0
    3.9418   -2.1349  -12.5535 O   0  0  0  0  0  0  0  0  0  0  0  0
    5.4200   -4.5449  -13.6445 N   0  3  0  0  0  0  0  0  0  0  0  0
    6.8887   -4.4190  -13.7394 C   0  0  0  0  0  0  0  0  0  0  0  0
    5.3335   -6.9077  -11.6321 C   0  0  0  0  0  0  0  0  0  0  0  0
  1  8  1  0  0  0  0
  1  9  1  1  0  0  0
  1  2  1  0  0  0  0
  2  3  1  0  0  0  0
  3  5  1  0  0  0  0
  3  4  1  6  0  0  0
  5  7  1  0  0  0  0
  5  6  1  6  0  0  0
  7  8  1  0  0  0  0
  9 10  1  0  0  0  0
 11 12  1  0  0  0  0
 11 18  1  0  0  0  0
 11 19  1  1  0  0  0
 12 13  1  0  0  0  0
 13 15  1  0  0  0  0
 13 14  1  1  0  0  0
 15 16  1  0  0  0  0
 15 26  1  6  0  0  0
 16 18  1  0  0  0  0
 16 17  1  1  0  0  0
 18  4  1  6  0  0  0
 20 21  1  0  0  0  0
 20 27  1  0  0  0  0
 21 31  1  6  0  0  0
 21 23  1  0  0  0  0
 21 22  1  0  0  0  0
 23 24  1  0  0  0  0
 23 29  1  6  0  0  0
 24 25  1  0  0  0  0
 24 28  1  6  0  0  0
 25 27  1  0  0  0  0
 25 26  1  6  0  0  0
 29 30  1  0  0  0  0
M  CHG  5   6   1  10   1  14   1  19   1  29   1
M  END
>  <CHROM.1>
-38.03308860,83.19937271,-67.42407227,-91.63541981,-0.77212669,42.78053825
175.04087810,103.66594333,-63.18508455,32.40944967,69.74027072,-167.74765912
-166.96829882,1.61828031,-3.51900267,-8.59098503,3.12927706,0.66119890,-0.11707657

>  <Name>
1byj cryst

>  <RI>
0

>  <Rbt.Current_Directory>
/home/itssahil/PROJECTS/Mol_Feturizer/New_Systems/rnas/1byj

>  <Rbt.Executable>
rbdock ($Id: //depot/dev/client3/rdock/2013.1/src/exe/rbdock.cxx#4 $)

>  <Rbt.Library>
libRbt.so (2013.1, Build901 2013/11/27)

>  <Rbt.Parameter_File>
/export/apps/rDock/src/rDock_2013.1_src/data/scripts/dock_solv.prm

>  <Rbt.Receptor>
prm/blind_docking_20.prm

>  <SCORE>
-8.74278

>  <SCORE.INTER>
-19.6875

>  <SCORE.INTER.CONST>
1

>  <SCORE.INTER.POLAR>
-5.08439

>  <SCORE.INTER.ROT>
6

>  <SCORE.INTER.SOLV>
31.4664

>  <SCORE.INTER.VDW>
-14.2659

>  <SCORE.INTER.norm>
-0.635081

>  <SCORE.INTRA>
6.36298

>  <SCORE.INTRA.DIHEDRAL>
3.03717

>  <SCORE.INTRA.DIHEDRAL.0>
18.4149

>  <SCORE.INTRA.POLAR>
-0.54729

>  <SCORE.INTRA.POLAR.0>
0

>  <SCORE.INTRA.REPUL>
-0.092687

>  <SCORE.INTRA.REPUL.0>
0.092687

>  <SCORE.INTRA.SOLV>
1.61598

>  <SCORE.INTRA.SOLV.lig_0>
-120.37

>  <SCORE.INTRA.VDW>
6.36063

>  <SCORE.INTRA.VDW.0>
-1.75542

>  <SCORE.INTRA.norm>
0.205258

>  <SCORE.RESTR>
4.58176

>  <SCORE.RESTR.CAVITY>
4.58176

>  <SCORE.RESTR.norm>
0.147799

>  <SCORE.SYSTEM>
0

>  <SCORE.SYSTEM.CONST>
0

>  <SCORE.SYSTEM.DIHEDRAL>
0

>  <SCORE.SYSTEM.SOLV>
0

>  <SCORE.SYSTEM.norm>
0

>  <SCORE.heavy>
31

>  <SCORE.norm>
-0.282025

>  <RMSD>
14.094

$$$$
1byj cryst
 OpenBabel11021811383D
libRbt.so/2013.1/901 2013/11/27
 31 33  0  0  0  0  0  0  0  0999 V2000
   -3.2271   -3.1372   -5.9590 C   0  0  1  0  0  0  0  0  0  0  0  0
   -1.9752   -2.9964   -5.2139 O   0  0  0  0  0  0  0  0  0  0  0  0
   -0.9443   -4.0154   -5.3789 C   0  0  2  0  0  0  0  0  0  0  0  0
   -0.3692   -3.9771   -6.7223 O   0  0  0  0  0  0  0  0  0  0  0  0
   -1.5517   -5.4176   -5.0703 C   0  0  2  0  0  0  0  0  0  0  0  0
   -0.5781   -6.5180   -5.2118 N   0  3  0  0  0  0  0  0  0  0  0  0
   -2.7886   -5.6715   -5.9702 C   0  0  0  0  0  0  0  0  0  0  0  0
   -3.8334   -4.5586   -5.7987 C   0  0  0  0  0  0  0  0  0  0  0  0
   -4.2406   -2.0936   -5.4569 C   0  0  0  0  0  0  0  0  0  0  0  0
   -4.0782   -0.7672   -6.0664 N   0  3  0  0  0  0  0  0  0  0  0  0
    0.2946   -1.6432   -7.1498 C   0  0  1  0  0  0  0  0  0  0  0  0
    1.4596   -0.6971   -7.5294 C   0  0  0  0  0  0  0  0  0  0  0  0
    2.1161   -1.1504   -8.8610 C   0  0  1  0  0  0  0  0  0  0  0  0
    3.1723   -0.1967   -9.2506 N   0  3  0  0  0  0  0  0  0  0  0  0
    2.6643   -2.6005   -8.7252 C   0  0  1  0  0  0  0  0  0  0  0  0
    1.5670   -3.5834   -8.2454 C   0  0  1  0  0  0  0  0  0  0  0  0
    2.2136   -4.8225   -7.9952 O   0  0  0  0  0  0  0  0  0  0  0  0
    0.7866   -3.1172   -6.9723 C   0  0  2  0  0  0  0  0  0  0  0  0
   -0.3871   -1.1465   -5.9415 N   0  3  0  0  0  0  0  0  0  0  0  0
    5.3051   -5.2454   -9.9321 C   0  0  0  0  0  0  0  0  0  0  0  0
    5.7496   -5.4355  -11.4031 C   0  0  2  0  0  0  0  0  0  0  0  0
    7.1359   -5.1034  -11.4658 O   0  0  0  0  0  0  0  0  0  0  0  0
    4.9021   -4.4881  -12.3335 C   0  0  1  0  0  0  0  0  0  0  0  0
    4.8408   -3.0136  -11.8082 C   0  0  2  0  0  0  0  0  0  0  0  0
    4.5597   -2.9110  -10.2876 C   0  0  1  0  0  0  0  0  0  0  0  0
    3.1458   -3.0887  -10.0099 O   0  0  0  0  0  0  0  0  0  0  0  0
    5.3833   -3.8492   -9.5390 O   0  0  0  0  0  0  0  0  0  0  0  0
    3.8623   -2.2507  -12.5093 O   0  0  0  0  0  0  0  0  0  0  0  0
    5.4451   -4.5299  -13.7270 N   0  3  0  0  0  0  0  0  0  0  0  0
    4.9062   -5.5707  -14.6260 C   0  0  0  0  0  0  0  0  0  0  0  0
    5.6183   -6.9342  -11.7702 C   0  0  0  0  0  0  0  0  0  0  0  0
  1  8  1  0  0  0  0
  1  9  1  1  0  0  0
  1  2  1  0  0  0  0
  2  3  1  0  0  0  0
  3  5  1  0  0  0  0
  3  4  1  6  0  0  0
  5  7  1  0  0  0  0
  5  6  1  6  0  0  0
  7  8  1  0  0  0  0
  9 10  1  0  0  0  0
 11 12  1  0  0  0  0
 11 18  1  0  0  0  0
 11 19  1  1  0  0  0
 12 13  1  0  0  0  0
 13 15  1  0  0  0  0
 13 14  1  1  0  0  0
 15 16  1  0  0  0  0
 15 26  1  6  0  0  0
 16 18  1  0  0  0  0
 16 17  1  1  0  0  0
 18  4  1  6  0  0  0
 20 21  1  0  0  0  0
 20 27  1  0  0  0  0
 21 31  1  6  0  0  0
 21 23  1  0  0  0  0
 21 22  1  0  0  0  0
 23 24  1  0  0  0  0
 23 29  1  6  0  0  0
 24 25  1  0  0  0  0
 24 28  1  6  0  0  0
 25 27  1  0  0  0  0
 25 26  1  6  0  0  0
 29 30  1  0  0  0  0
M  CHG  5   6   1  10   1  14   1  19   1  29   1
M  END
>  <CHROM.1>
83.04803594,89.38489087,-79.42453159,23.78198924,-47.17763737,53.42837572
157.50407200,93.70709646,-176.35320717,-59.68148171,-150.39779586,-166.03259368
-160.67721322,1.66899104,-3.54664610,-8.62362210,3.08810412,0.68999889,-0.10614117

>  <Name>
1byj cryst

>  <RI>
0

>  <Rbt.Current_Directory>
/home/itssahil/PROJECTS/Mol_Feturizer/New_Systems/rnas/1byj

>  <Rbt.Executable>
rbdock ($Id: //depot/dev/client3/rdock/2013.1/src/exe/rbdock.cxx#4 $)

>  <Rbt.Library>
libRbt.so (2013.1, Build901 2013/11/27)

>  <Rbt.Parameter_File>
/export/apps/rDock/src/rDock_2013.1_src/data/scripts/dock_solv.prm

>  <Rbt.Receptor>
prm/blind_docking_20.prm

>  <SCORE>
-7.12531

>  <SCORE.INTER>
-11.0497

>  <SCORE.INTER.CONST>
1

>  <SCORE.INTER.POLAR>
-3.74881

>  <SCORE.INTER.ROT>
6

>  <SCORE.INTER.SOLV>
36.6729

>  <SCORE.INTER.VDW>
-14.6947

>  <SCORE.INTER.norm>
-0.356442

>  <SCORE.INTRA>
-1.99675

>  <SCORE.INTRA.DIHEDRAL>
1.33779

>  <SCORE.INTRA.DIHEDRAL.0>
18.4149

>  <SCORE.INTRA.POLAR>
-0.989675

>  <SCORE.INTRA.POLAR.0>
0

>  <SCORE.INTRA.REPUL>
-0.092687

>  <SCORE.INTRA.REPUL.0>
0.092687

>  <SCORE.INTRA.SOLV>
2.82982

>  <SCORE.INTRA.SOLV.lig_0>
-120.37

>  <SCORE.INTRA.VDW>
-0.252224

>  <SCORE.INTRA.VDW.0>
-1.75542

>  <SCORE.INTRA.norm>
-0.0644111

>  <SCORE.RESTR>
5.92113

>  <SCORE.RESTR.CAVITY>
5.92113

>  <SCORE.RESTR.norm>
0.191004

>  <SCORE.SYSTEM>
0

>  <SCORE.SYSTEM.CONST>
0

>  <SCORE.SYSTEM.DIHEDRAL>
0

>  <SCORE.SYSTEM.SOLV>
0

>  <SCORE.SYSTEM.norm>
0

>  <SCORE.heavy>
31

>  <SCORE.norm>
-0.229849

>  <RMSD>
14.121

$$$$
1byj cryst
 OpenBabel11021811383D
libRbt.so/2013.1/901 2013/11/27
 31 33  0  0  0  0  0  0  0  0999 V2000
   -4.4799   -3.8469   -9.0771 C   0  0  1  0  0  0  0  0  0  0  0  0
   -5.1928   -2.7006   -8.5115 O   0  0  0  0  0  0  0  0  0  0  0  0
   -6.5169   -2.9140   -7.9373 C   0  0  2  0  0  0  0  0  0  0  0  0
   -6.4440   -3.7122   -6.7149 O   0  0  0  0  0  0  0  0  0  0  0  0
   -7.4342   -3.5965   -8.9971 C   0  0  2  0  0  0  0  0  0  0  0  0
   -8.8017   -3.8538   -8.5044 N   0  3  0  0  0  0  0  0  0  0  0  0
   -6.7831   -4.9122   -9.4960 C   0  0  0  0  0  0  0  0  0  0  0  0
   -5.3764   -4.6539  -10.0564 C   0  0  0  0  0  0  0  0  0  0  0  0
   -3.2290   -3.3525   -9.8247 C   0  0  0  0  0  0  0  0  0  0  0  0
   -2.0173   -3.3164   -8.9954 N   0  3  0  0  0  0  0  0  0  0  0  0
   -5.8894   -1.9402   -5.0954 C   0  0  1  0  0  0  0  0  0  0  0  0
   -4.8479   -1.4285   -4.0707 C   0  0  0  0  0  0  0  0  0  0  0  0
   -3.4538   -1.2848   -4.7381 C   0  0  1  0  0  0  0  0  0  0  0  0
   -2.4900   -0.7233   -3.7724 N   0  3  0  0  0  0  0  0  0  0  0  0
   -2.9811   -2.6571   -5.2994 C   0  0  1  0  0  0  0  0  0  0  0  0
   -4.0310   -3.2751   -6.2565 C   0  0  1  0  0  0  0  0  0  0  0  0
   -3.5762   -4.5839   -6.5668 O   0  0  0  0  0  0  0  0  0  0  0  0
   -5.4839   -3.3332   -5.6793 C   0  0  2  0  0  0  0  0  0  0  0  0
   -7.2284   -1.9750   -4.4812 N   0  3  0  0  0  0  0  0  0  0  0  0
    0.7469   -3.9271   -7.0923 C   0  0  0  0  0  0  0  0  0  0  0  0
    1.8234   -2.8227   -7.2306 C   0  0  2  0  0  0  0  0  0  0  0  0
    2.8959   -3.1745   -6.3575 O   0  0  0  0  0  0  0  0  0  0  0  0
    1.2030   -1.4323   -6.8267 C   0  0  1  0  0  0  0  0  0  0  0  0
    0.4262   -1.4832   -5.4673 C   0  0  2  0  0  0  0  0  0  0  0  0
   -0.5061   -2.7141   -5.3346 C   0  0  1  0  0  0  0  0  0  0  0  0
   -1.7473   -2.5030   -6.0575 O   0  0  0  0  0  0  0  0  0  0  0  0
    0.1707   -3.9310   -5.7590 O   0  0  0  0  0  0  0  0  0  0  0  0
   -0.3415   -0.3003   -5.2609 O   0  0  0  0  0  0  0  0  0  0  0  0
    2.2779   -0.3926   -6.7818 N   0  3  0  0  0  0  0  0  0  0  0  0
    2.2177    0.6787   -7.7970 C   0  0  0  0  0  0  0  0  0  0  0  0
    2.3785   -2.8507   -8.6759 C   0  0  0  0  0  0  0  0  0  0  0  0
  1  8  1  0  0  0  0
  1  9  1  6  0  0  0
  1  2  1  0  0  0  0
  2  3  1  0  0  0  0
  3  5  1  0  0  0  0
  3  4  1  1  0  0  0
  5  7  1  0  0  0  0
  5  6  1  1  0  0  0
  7  8  1  0  0  0  0
  9 10  1  0  0  0  0
 11 12  1  0  0  0  0
 11 18  1  0  0  0  0
 11 19  1  1  0  0  0
 12 13  1  0  0  0  0
 13 15  1  0  0  0  0
 13 14  1  1  0  0  0
 15 16  1  0  0  0  0
 15 26  1  6  0  0  0
 16 18  1  0  0  0  0
 16 17  1  1  0  0  0
 18  4  1  6  0  0  0
 20 21  1  0  0  0  0
 20 27  1  0  0  0  0
 21 31  1  6  0  0  0
 21 23  1  0  0  0  0
 21 22  1  0  0  0  0
 23 24  1  0  0  0  0
 23 29  1  1  0  0  0
 24 25  1  0  0  0  0
 24 28  1  6  0  0  0
 25 27  1  0  0  0  0
 25 26  1  6  0  0  0
 29 30  1  0  0  0  0
M  CHG  5   6   1  10   1  14   1  19   1  29   1
M  END
>  <CHROM.1>
92.00456379,49.36873146,65.42352040,-176.70866217,-47.45653741,-179.75048481
-175.34855313,93.43212160,-58.70507484,178.41323792,-126.00791091,43.27797017
-124.94658356,-2.71113608,-2.66055983,-6.84453938,-2.94919633,0.12361450
1.08385156

>  <Name>
1byj cryst

>  <RI>
0

>  <Rbt.Current_Directory>
/home/itssahil/PROJECTS/Mol_Feturizer/New_Systems/rnas/1byj

>  <Rbt.Executable>
rbdock ($Id: //depot/dev/client3/rdock/2013.1/src/exe/rbdock.cxx#4 $)

>  <Rbt.Library>
libRbt.so (2013.1, Build901 2013/11/27)

>  <Rbt.Parameter_File>
/export/apps/rDock/src/rDock_2013.1_src/data/scripts/dock_solv.prm

>  <Rbt.Receptor>
prm/blind_docking_40.prm

>  <SCORE>
-1.49454

>  <SCORE.INTER>
-4.93315

>  <SCORE.INTER.CONST>
1

>  <SCORE.INTER.POLAR>
-0.66567

>  <SCORE.INTER.ROT>
6

>  <SCORE.INTER.SOLV>
10.2596

>  <SCORE.INTER.VDW>
-12.0897

>  <SCORE.INTER.norm>
-0.159134

>  <SCORE.INTRA>
-4.411

>  <SCORE.INTRA.DIHEDRAL>
1.87497

>  <SCORE.INTRA.DIHEDRAL.0>
18.4149

>  <SCORE.INTRA.POLAR>
-2.34188

>  <SCORE.INTRA.POLAR.0>
0

>  <SCORE.INTRA.REPUL>
-0.092687

>  <SCORE.INTRA.REPUL.0>
0.092687

>  <SCORE.INTRA.SOLV>
7.2824

>  <SCORE.INTRA.SOLV.lig_0>
-120.37

>  <SCORE.INTRA.VDW>
-0.563854

>  <SCORE.INTRA.VDW.0>
-1.75542

>  <SCORE.INTRA.norm>
-0.14229

>  <SCORE.RESTR>
7.84962

>  <SCORE.RESTR.CAVITY>
7.84962

>  <SCORE.RESTR.norm>
0.253214

>  <SCORE.SYSTEM>
0

>  <SCORE.SYSTEM.CONST>
0

>  <SCORE.SYSTEM.DIHEDRAL>
0

>  <SCORE.SYSTEM.SOLV>
0

>  <SCORE.SYSTEM.norm>
0

>  <SCORE.heavy>
31

>  <SCORE.norm>
-0.0482108

>  <RMSD>
14.136

$$$$
1byj cryst
 OpenBabel11021811383D
libRbt.so/2013.1/901 2013/11/27
 31 33  0  0  0  0  0  0  0  0999 V2000
   -3.2789   -2.0544   -5.0534 C   0  0  1  0  0  0  0  0  0  0  0  0
   -2.2768   -1.7618   -6.0792 O   0  0  0  0  0  0  0  0  0  0  0  0
   -0.8790   -1.6434   -5.6782 C   0  0  2  0  0  0  0  0  0  0  0  0
   -0.3382   -2.9317   -5.2486 O   0  0  0  0  0  0  0  0  0  0  0  0
   -0.7564   -0.5794   -4.5453 C   0  0  2  0  0  0  0  0  0  0  0  0
    0.6290   -0.3896   -4.0722 N   0  3  0  0  0  0  0  0  0  0  0  0
   -1.6852   -0.9533   -3.3614 C   0  0  0  0  0  0  0  0  0  0  0  0
   -3.1401   -1.1079   -3.8292 C   0  0  0  0  0  0  0  0  0  0  0  0
   -4.6866   -1.9014   -5.6561 C   0  0  0  0  0  0  0  0  0  0  0  0
   -5.1990   -3.1254   -6.2858 N   0  3  0  0  0  0  0  0  0  0  0  0
   -0.0699   -5.3675   -5.5044 C   0  0  1  0  0  0  0  0  0  0  0  0
    0.2298   -6.5214   -6.4919 C   0  0  0  0  0  0  0  0  0  0  0  0
    1.5762   -6.2744   -7.2240 C   0  0  1  0  0  0  0  0  0  0  0  0
    1.8871   -7.4179   -8.1030 N   0  3  0  0  0  0  0  0  0  0  0  0
    1.5230   -4.9336   -8.0121 C   0  0  1  0  0  0  0  0  0  0  0  0
    1.1245   -3.7487   -7.0971 C   0  0  1  0  0  0  0  0  0  0  0  0
    0.9421   -2.6247   -7.9453 O   0  0  0  0  0  0  0  0  0  0  0  0
   -0.1623   -3.9909   -6.2410 C   0  0  2  0  0  0  0  0  0  0  0  0
   -1.2955   -5.6609   -4.7408 N   0  3  0  0  0  0  0  0  0  0  0  0
    2.8537   -3.3598  -11.3582 C   0  0  0  0  0  0  0  0  0  0  0  0
    4.3445   -3.3113  -11.7737 C   0  0  2  0  0  0  0  0  0  0  0  0
    4.4753   -4.1077  -12.9505 O   0  0  0  0  0  0  0  0  0  0  0  0
    5.2332   -3.8840  -10.6060 C   0  0  1  0  0  0  0  0  0  0  0  0
    4.7068   -5.2524  -10.0543 C   0  0  2  0  0  0  0  0  0  0  0  0
    3.1743   -5.2771   -9.8246 C   0  0  1  0  0  0  0  0  0  0  0  0
    2.8276   -4.6195   -8.5775 O   0  0  0  0  0  0  0  0  0  0  0  0
    2.4661   -4.7014  -10.9585 O   0  0  0  0  0  0  0  0  0  0  0  0
    5.3599   -5.6105   -8.8392 O   0  0  0  0  0  0  0  0  0  0  0  0
    6.6516   -4.0104  -11.0650 N   0  3  0  0  0  0  0  0  0  0  0  0
    6.9901   -5.1960  -11.8784 C   0  0  0  0  0  0  0  0  0  0  0  0
    4.7034   -1.8555  -12.1610 C   0  0  0  0  0  0  0  0  0  0  0  0
  1  8  1  0  0  0  0
  1  9  1  6  0  0  0
  1  2  1  0  0  0  0
  2  3  1  0  0  0  0
  3  5  1  0  0  0  0
  3  4  1  1  0  0  0
  5  7  1  0  0  0  0
  5  6  1  1  0  0  0
  7  8  1  0  0  0  0
  9 10  1  0  0  0  0
 11 12  1  0  0  0  0
 11 18  1  0  0  0  0
 11 19  1  6  0  0  0
 12 13  1  0  0  0  0
 13 15  1  0  0  0  0
 13 14  1  6  0  0  0
 15 16  1  0  0  0  0
 15 26  1  1  0  0  0
 16 18  1  0  0  0  0
 16 17  1  6  0  0  0
 18  4  1  1  0  0  0
 20 21  1  0  0  0  0
 20 27  1  0  0  0  0
 21 31  1  6  0  0  0
 21 23  1  0  0  0  0
 21 22  1  0  0  0  0
 23 24  1  0  0  0  0
 23 29  1  6  0  0  0
 24 25  1  0  0  0  0
 24 28  1  1  0  0  0
 25 27  1  0  0  0  0
 25 26  1  1  0  0  0
 29 30  1  0  0  0  0
M  CHG  5   6   1  10   1  14   1  19   1  29   1
M  END
>  <CHROM.1>
88.05753108,67.96211769,-160.19219402,64.89682456,-46.96096912,-167.78712920
72.46674664,81.62895763,63.70323464,-61.84526306,40.72900883,-49.93092388
-160.50164554,1.23685630,-3.70178457,-7.79880323,-2.98898649,-0.71577252
3.02633189

>  <Name>
1byj cryst

>  <RI>
0

>  <Rbt.Current_Directory>
/home/itssahil/PROJECTS/Mol_Feturizer/New_Systems/rnas/1byj

>  <Rbt.Executable>
rbdock ($Id: //depot/dev/client3/rdock/2013.1/src/exe/rbdock.cxx#4 $)

>  <Rbt.Library>
libRbt.so (2013.1, Build901 2013/11/27)

>  <Rbt.Parameter_File>
/export/apps/rDock/src/rDock_2013.1_src/data/scripts/dock_solv.prm

>  <Rbt.Receptor>
prm/blind_docking_20.prm

>  <SCORE>
-16.9047

>  <SCORE.INTER>
-23.6098

>  <SCORE.INTER.CONST>
1

>  <SCORE.INTER.POLAR>
-4.04256

>  <SCORE.INTER.ROT>
6

>  <SCORE.INTER.SOLV>
22.7499

>  <SCORE.INTER.VDW>
-17.4479

>  <SCORE.INTER.norm>
-0.761607

>  <SCORE.INTRA>
-6.31024

>  <SCORE.INTRA.DIHEDRAL>
-7.17871

>  <SCORE.INTRA.DIHEDRAL.0>
18.4149

>  <SCORE.INTRA.POLAR>
-0.00549269

>  <SCORE.INTRA.POLAR.0>
0

>  <SCORE.INTRA.REPUL>
-0.092687

>  <SCORE.INTRA.REPUL.0>
0.092687

>  <SCORE.INTRA.SOLV>
-4.1377

>  <SCORE.INTRA.SOLV.lig_0>
-120.37

>  <SCORE.INTRA.VDW>
-0.169924

>  <SCORE.INTRA.VDW.0>
-1.75542

>  <SCORE.INTRA.norm>
-0.203556

>  <SCORE.RESTR>
13.0153

>  <SCORE.RESTR.CAVITY>
13.0153

>  <SCORE.RESTR.norm>
0.419849

>  <SCORE.SYSTEM>
0

>  <SCORE.SYSTEM.CONST>
0

>  <SCORE.SYSTEM.DIHEDRAL>
0

>  <SCORE.SYSTEM.SOLV>
0

>  <SCORE.SYSTEM.norm>
0

>  <SCORE.heavy>
31

>  <SCORE.norm>
-0.545314

>  <RMSD>
14.145

$$$$
1byj cryst
 OpenBabel11021811383D
libRbt.so/2013.1/901 2013/11/27
 31 33  0  0  0  0  0  0  0  0999 V2000
    0.6198   -3.0712   -4.9549 C   0  0  1  0  0  0  0  0  0  0  0  0
    1.3129   -4.2799   -5.4030 O   0  0  0  0  0  0  0  0  0  0  0  0
    0.6983   -5.0926   -6.4472 C   0  0  2  0  0  0  0  0  0  0  0  0
    0.6916   -4.3927   -7.7306 O   0  0  0  0  0  0  0  0  0  0  0  0
   -0.7481   -5.4804   -6.0139 C   0  0  2  0  0  0  0  0  0  0  0  0
   -1.4532   -6.3074   -7.0129 N   0  3  0  0  0  0  0  0  0  0  0  0
   -1.5679   -4.2039   -5.6937 C   0  0  0  0  0  0  0  0  0  0  0  0
   -0.8705   -3.3552   -4.6200 C   0  0  0  0  0  0  0  0  0  0  0  0
    1.3231   -2.5125   -3.7054 C   0  0  0  0  0  0  0  0  0  0  0  0
    2.5702   -1.7937   -3.9975 N   0  3  0  0  0  0  0  0  0  0  0  0
    1.1199   -2.1092   -8.5506 C   0  0  1  0  0  0  0  0  0  0  0  0
    2.2028   -1.0904   -8.9817 C   0  0  0  0  0  0  0  0  0  0  0  0
    3.0906   -1.6846  -10.1079 C   0  0  1  0  0  0  0  0  0  0  0  0
    4.0671   -0.6763  -10.5625 N   0  3  0  0  0  0  0  0  0  0  0  0
    3.7866   -2.9863   -9.6152 C   0  0  1  0  0  0  0  0  0  0  0  0
    2.7606   -4.0120   -9.0715 C   0  0  1  0  0  0  0  0  0  0  0  0
    3.5114   -5.0728   -8.4997 O   0  0  0  0  0  0  0  0  0  0  0  0
    1.7577   -3.4345   -8.0189 C   0  0  2  0  0  0  0  0  0  0  0  0
    0.2194   -1.4997   -7.5561 N   0  3  0  0  0  0  0  0  0  0  0  0
    5.2247   -6.5451  -10.1570 C   0  0  0  0  0  0  0  0  0  0  0  0
    6.0831   -6.9913  -11.3661 C   0  0  2  0  0  0  0  0  0  0  0  0
    7.3647   -7.3558  -10.8555 O   0  0  0  0  0  0  0  0  0  0  0  0
    6.2041   -5.8011  -12.3909 C   0  0  1  0  0  0  0  0  0  0  0  0
    6.6074   -4.4492  -11.7100 C   0  0  2  0  0  0  0  0  0  0  0  0
    5.8204   -4.1548  -10.4077 C   0  0  1  0  0  0  0  0  0  0  0  0
    4.5001   -3.6313  -10.7085 O   0  0  0  0  0  0  0  0  0  0  0  0
    5.7572   -5.3342   -9.5569 O   0  0  0  0  0  0  0  0  0  0  0  0
    6.4491   -3.3488  -12.6018 O   0  0  0  0  0  0  0  0  0  0  0  0
    7.1767   -6.1595  -13.4698 N   0  3  0  0  0  0  0  0  0  0  0  0
    6.7266   -5.9804  -14.8652 C   0  0  0  0  0  0  0  0  0  0  0  0
    5.4517   -8.2662  -11.9777 C   0  0  0  0  0  0  0  0  0  0  0  0
  1  8  1  0  0  0  0
  1  9  1  1  0  0  0
  1  2  1  0  0  0  0
  2  3  1  0  0  0  0
  3  5  1  0  0  0  0
  3  4  1  6  0  0  0
  5  7  1  0  0  0  0
  5  6  1  6  0  0  0
  7  8  1  0  0  0  0
  9 10  1  0  0  0  0
 11 12  1  0  0  0  0
 11 18  1  0  0  0  0
 11 19  1  1  0  0  0
 12 13  1  0  0  0  0
 13 15  1  0  0  0  0
 13 14  1  1  0  0  0
 15 16  1  0  0  0  0
 15 26  1  6  0  0  0
 16 18  1  0  0  0  0
 16 17  1  1  0  0  0
 18  4  1  6  0  0  0
 20 21  1  0  0  0  0
 20 27  1  0  0  0  0
 21 31  1  6  0  0  0
 21 23  1  0  0  0  0
 21 22  1  0  0  0  0
 23 24  1  0  0  0  0
 23 29  1  6  0  0  0
 24 25  1  0  0  0  0
 24 28  1  6  0  0  0
 25 27  1  0  0  0  0
 25 26  1  6  0  0  0
 29 30  1  0  0  0  0
M  CHG  5   6   1  10   1  14   1  19   1  29   1
M  END
>  <CHROM.1>
77.07015421,29.89978326,-131.53936035,73.44233742,51.67741041,-66.26546297
-73.64271018,137.43204773,-179.25302358,55.77389351,-109.78761086,-91.97477605
-164.35394222,3.20532186,-4.22743080,-8.93396613,2.88662302,0.80772765,0.01405882

>  <Name>
1byj cryst

>  <RI>
0

>  <Rbt.Current_Directory>
/home/itssahil/PROJECTS/Mol_Feturizer/New_Systems/rnas/1byj

>  <Rbt.Executable>
rbdock ($Id: //depot/dev/client3/rdock/2013.1/src/exe/rbdock.cxx#4 $)

>  <Rbt.Library>
libRbt.so (2013.1, Build901 2013/11/27)

>  <Rbt.Parameter_File>
/export/apps/rDock/src/rDock_2013.1_src/data/scripts/dock_solv.prm

>  <Rbt.Receptor>
prm/blind_docking_80.prm

>  <SCORE>
-9.47808

>  <SCORE.INTER>
-17.6454

>  <SCORE.INTER.CONST>
1

>  <SCORE.INTER.POLAR>
-5.62726

>  <SCORE.INTER.ROT>
6

>  <SCORE.INTER.SOLV>
32.2564

>  <SCORE.INTER.VDW>
-11.3582

>  <SCORE.INTER.norm>
-0.569208

>  <SCORE.INTRA>
3.01992

>  <SCORE.INTRA.DIHEDRAL>
8.38597

>  <SCORE.INTRA.DIHEDRAL.0>
18.4149

>  <SCORE.INTRA.POLAR>
0

>  <SCORE.INTRA.POLAR.0>
0

>  <SCORE.INTRA.REPUL>
-0.0628555

>  <SCORE.INTRA.REPUL.0>
0.092687

>  <SCORE.INTRA.SOLV>
0.617005

>  <SCORE.INTRA.SOLV.lig_0>
-120.37

>  <SCORE.INTRA.VDW>
-1.16729

>  <SCORE.INTRA.VDW.0>
-1.75542

>  <SCORE.INTRA.norm>
0.0974168

>  <SCORE.RESTR>
5.14745

>  <SCORE.RESTR.CAVITY>
5.14745

>  <SCORE.RESTR.norm>
0.166047

>  <SCORE.SYSTEM>
0

>  <SCORE.SYSTEM.CONST>
0

>  <SCORE.SYSTEM.DIHEDRAL>
0

>  <SCORE.SYSTEM.SOLV>
0

>  <SCORE.SYSTEM.norm>
0

>  <SCORE.heavy>
31

>  <SCORE.norm>
-0.305745

>  <RMSD>
14.246

$$$$
1byj cryst
 OpenBabel11021811383D
libRbt.so/2013.1/901 2013/11/27
 31 33  0  0  0  0  0  0  0  0999 V2000
   -1.3763   -6.0759   -7.3666 C   0  0  1  0  0  0  0  0  0  0  0  0
   -1.2066   -4.7870   -8.0391 O   0  0  0  0  0  0  0  0  0  0  0  0
   -1.2983   -3.5662   -7.2454 C   0  0  2  0  0  0  0  0  0  0  0  0
   -0.1714   -3.4466   -6.3220 O   0  0  0  0  0  0  0  0  0  0  0  0
   -2.6548   -3.5517   -6.4774 C   0  0  2  0  0  0  0  0  0  0  0  0
   -2.8384   -2.3482   -5.6425 N   0  3  0  0  0  0  0  0  0  0  0  0
   -2.7921   -4.8332   -5.6154 C   0  0  0  0  0  0  0  0  0  0  0  0
   -2.6508   -6.0962   -6.4783 C   0  0  0  0  0  0  0  0  0  0  0  0
   -1.4745   -7.1930   -8.4204 C   0  0  0  0  0  0  0  0  0  0  0  0
   -0.2774   -8.0403   -8.5006 N   0  3  0  0  0  0  0  0  0  0  0  0
    0.7138   -1.3077   -7.1657 C   0  0  1  0  0  0  0  0  0  0  0  0
    1.9436   -0.5833   -7.7651 C   0  0  0  0  0  0  0  0  0  0  0  0
    2.4372   -1.3158   -9.0416 C   0  0  1  0  0  0  0  0  0  0  0  0
    3.5594   -0.5721   -9.6453 N   0  3  0  0  0  0  0  0  0  0  0  0
    2.8284   -2.7836   -8.7033 C   0  0  1  0  0  0  0  0  0  0  0  0
    1.6695   -3.5367   -8.0033 C   0  0  1  0  0  0  0  0  0  0  0  0
    2.1909   -4.7920   -7.5929 O   0  0  0  0  0  0  0  0  0  0  0  0
    1.0499   -2.7853   -6.7790 C   0  0  2  0  0  0  0  0  0  0  0  0
    0.1903   -0.5486   -6.0163 N   0  3  0  0  0  0  0  0  0  0  0  0
    5.2573   -5.7244   -9.7775 C   0  0  0  0  0  0  0  0  0  0  0  0
    5.5096   -6.1458  -11.2460 C   0  0  2  0  0  0  0  0  0  0  0  0
    6.8834   -5.8800  -11.5256 O   0  0  0  0  0  0  0  0  0  0  0  0
    4.5710   -5.3137  -12.1989 C   0  0  1  0  0  0  0  0  0  0  0  0
    4.6054   -3.7767  -11.8983 C   0  0  2  0  0  0  0  0  0  0  0  0
    4.5196   -3.4409  -10.3878 C   0  0  1  0  0  0  0  0  0  0  0  0
    3.1486   -3.5213   -9.9172 O   0  0  0  0  0  0  0  0  0  0  0  0
    5.4119   -4.2897   -9.6118 O   0  0  0  0  0  0  0  0  0  0  0  0
    3.5620   -3.0882  -12.5826 O   0  0  0  0  0  0  0  0  0  0  0  0
    4.9338   -5.5808  -13.6256 N   0  3  0  0  0  0  0  0  0  0  0  0
    4.2252   -4.7950  -14.6563 C   0  0  0  0  0  0  0  0  0  0  0  0
    5.3036   -7.6760  -11.3643 C   0  0  0  0  0  0  0  0  0  0  0  0
  1  8  1  0  0  0  0
  1  9  1  6  0  0  0
  1  2  1  0  0  0  0
  2  3  1  0  0  0  0
  3  5  1  0  0  0  0
  3  4  1  1  0  0  0
  5  7  1  0  0  0  0
  5  6  1  1  0  0  0
  7  8  1  0  0  0  0
  9 10  1  0  0  0  0
 11 12  1  0  0  0  0
 11 18  1  0  0  0  0
 11 19  1  1  0  0  0
 12 13  1  0  0  0  0
 13 15  1  0  0  0  0
 13 14  1  1  0  0  0
 15 16  1  0  0  0  0
 15 26  1  6  0  0  0
 16 18  1  0  0  0  0
 16 17  1  1  0  0  0
 18  4  1  6  0  0  0
 20 21  1  0  0  0  0
 20 27  1  0  0  0  0
 21 31  1  6  0  0  0
 21 23  1  0  0  0  0
 21 22  1  0  0  0  0
 23 24  1  0  0  0  0
 23 29  1  6  0  0  0
 24 25  1  0  0  0  0
 24 28  1  6  0  0  0
 25 27  1  0  0  0  0
 25 26  1  1  0  0  0
 29 30  1  0  0  0  0
M  CHG  5   6   1  10   1  14   1  19   1  29   1
M  END
>  <CHROM.1>
107.13721617,88.60269986,60.96731273,149.03543139,-173.84049777,109.12925178
20.27454500,87.00985673,-64.32184849,-59.45358578,-54.01858049,168.22482053
-158.09062173,1.88642178,-4.10469034,-9.03536630,2.79790278,0.62064125,0.32621963

>  <Name>
1byj cryst

>  <RI>
0

>  <Rbt.Current_Directory>
/home/itssahil/PROJECTS/Mol_Feturizer/New_Systems/rnas/1byj

>  <Rbt.Executable>
rbdock ($Id: //depot/dev/client3/rdock/2013.1/src/exe/rbdock.cxx#4 $)

>  <Rbt.Library>
libRbt.so (2013.1, Build901 2013/11/27)

>  <Rbt.Parameter_File>
/export/apps/rDock/src/rDock_2013.1_src/data/scripts/dock_solv.prm

>  <Rbt.Receptor>
prm/blind_docking_80.prm

>  <SCORE>
-17.0409

>  <SCORE.INTER>
-29.3327

>  <SCORE.INTER.CONST>
1

>  <SCORE.INTER.POLAR>
-5.26153

>  <SCORE.INTER.ROT>
6

>  <SCORE.INTER.SOLV>
21.2971

>  <SCORE.INTER.VDW>
-16.7157

>  <SCORE.INTER.norm>
-0.946217

>  <SCORE.INTRA>
4.28115

>  <SCORE.INTRA.DIHEDRAL>
3.80257

>  <SCORE.INTRA.DIHEDRAL.0>
18.4149

>  <SCORE.INTRA.POLAR>
-0.00145782

>  <SCORE.INTRA.POLAR.0>
0

>  <SCORE.INTRA.REPUL>
-0.092687

>  <SCORE.INTRA.REPUL.0>
0.092687

>  <SCORE.INTRA.SOLV>
1.26471

>  <SCORE.INTRA.SOLV.lig_0>
-120.37

>  <SCORE.INTRA.VDW>
2.2159

>  <SCORE.INTRA.VDW.0>
-1.75542

>  <SCORE.INTRA.norm>
0.138102

>  <SCORE.RESTR>
8.01068

>  <SCORE.RESTR.CAVITY>
8.01068

>  <SCORE.RESTR.norm>
0.258409

>  <SCORE.SYSTEM>
0

>  <SCORE.SYSTEM.CONST>
0

>  <SCORE.SYSTEM.DIHEDRAL>
0

>  <SCORE.SYSTEM.SOLV>
0

>  <SCORE.SYSTEM.norm>
0

>  <SCORE.heavy>
31

>  <SCORE.norm>
-0.549706

>  <RMSD>
14.254

$$$$
1byj cryst
 OpenBabel11021811383D
libRbt.so/2013.1/901 2013/11/27
 31 33  0  0  0  0  0  0  0  0999 V2000
   -3.3281   -2.7571   -5.8001 C   0  0  1  0  0  0  0  0  0  0  0  0
   -1.9643   -2.7311   -5.2697 O   0  0  0  0  0  0  0  0  0  0  0  0
   -1.0054   -3.7174   -5.7559 C   0  0  2  0  0  0  0  0  0  0  0  0
   -0.6665   -3.4829   -7.1583 O   0  0  0  0  0  0  0  0  0  0  0  0
   -1.5905   -5.1481   -5.5534 C   0  0  2  0  0  0  0  0  0  0  0  0
   -0.6863   -6.2182   -6.0186 N   0  3  0  0  0  0  0  0  0  0  0  0
   -2.9691   -5.2632   -6.2537 C   0  0  0  0  0  0  0  0  0  0  0  0
   -3.9379   -4.1851   -5.7453 C   0  0  0  0  0  0  0  0  0  0  0  0
   -4.2117   -1.7964   -4.9850 C   0  0  0  0  0  0  0  0  0  0  0  0
   -4.0355   -0.3821   -5.3401 N   0  3  0  0  0  0  0  0  0  0  0  0
    0.5882   -1.3928   -7.5155 C   0  0  1  0  0  0  0  0  0  0  0  0
    1.9326   -0.7732   -7.9687 C   0  0  0  0  0  0  0  0  0  0  0  0
    2.3056   -1.2659   -9.3927 C   0  0  1  0  0  0  0  0  0  0  0  0
    3.5473   -0.6081   -9.8426 N   0  3  0  0  0  0  0  0  0  0  0  0
    2.4306   -2.8169   -9.4107 C   0  0  1  0  0  0  0  0  0  0  0  0
    1.1499   -3.4995   -8.8684 C   0  0  1  0  0  0  0  0  0  0  0  0
    1.4394   -4.8862   -8.7713 O   0  0  0  0  0  0  0  0  0  0  0  0
    0.6568   -2.9550   -7.4872 C   0  0  2  0  0  0  0  0  0  0  0  0
    0.1919   -0.8403   -6.2082 N   0  3  0  0  0  0  0  0  0  0  0  0
    5.6016   -4.0031  -10.7935 C   0  0  0  0  0  0  0  0  0  0  0  0
    5.8758   -4.5824  -12.2030 C   0  0  2  0  0  0  0  0  0  0  0  0
    6.8378   -3.7308  -12.8238 O   0  0  0  0  0  0  0  0  0  0  0  0
    4.5344   -4.6105  -13.0284 C   0  0  1  0  0  0  0  0  0  0  0  0
    3.7553   -3.2526  -12.9716 C   0  0  2  0  0  0  0  0  0  0  0  0
    3.6708   -2.6484  -11.5469 C   0  0  1  0  0  0  0  0  0  0  0  0
    2.6312   -3.2991  -10.7701 O   0  0  0  0  0  0  0  0  0  0  0  0
    4.9630   -2.7013  -10.8789 O   0  0  0  0  0  0  0  0  0  0  0  0
    2.4358   -3.3864  -13.4935 O   0  0  0  0  0  0  0  0  0  0  0  0
    4.8203   -4.9961  -14.4455 N   0  3  0  0  0  0  0  0  0  0  0  0
    5.3988   -3.9556  -15.3200 C   0  0  0  0  0  0  0  0  0  0  0  0
    6.5294   -5.9775  -12.0463 C   0  0  0  0  0  0  0  0  0  0  0  0
  1  8  1  0  0  0  0
  1  9  1  1  0  0  0
  1  2  1  0  0  0  0
  2  3  1  0  0  0  0
  3  5  1  0  0  0  0
  3  4  1  6  0  0  0
  5  7  1  0  0  0  0
  5  6  1  6  0  0  0
  7  8  1  0  0  0  0
  9 10  1  0  0  0  0
 11 12  1  0  0  0  0
 11 18  1  0  0  0  0
 11 19  1  1  0  0  0
 12 13  1  0  0  0  0
 13 15  1  0  0  0  0
 13 14  1  1  0  0  0
 15 16  1  0  0  0  0
 15 26  1  6  0  0  0
 16 18  1  0  0  0  0
 16 17  1  1  0  0  0
 18  4  1  6  0  0  0
 20 21  1  0  0  0  0
 20 27  1  0  0  0  0
 21 31  1  1  0  0  0
 21 23  1  0  0  0  0
 21 22  1  0  0  0  0
 23 24  1  0  0  0  0
 23 29  1  6  0  0  0
 24 25  1  0  0  0  0
 24 28  1  1  0  0  0
 25 27  1  0  0  0  0
 25 26  1  1  0  0  0
 29 30  1  0  0  0  0
M  CHG  5   6   1  10   1  14   1  19   1  29   1
M  END
>  <CHROM.1>
78.26111153,107.84276680,-90.71505365,93.77519075,-151.54868239,96.20879464
115.34472362,49.65084958,63.90874308,166.19846048,44.12044801,64.55842298
-179.28878154,1.52847979,-3.27870506,-9.16597088,2.92861215,0.73471582,0.16958820

>  <Name>
1byj cryst

>  <RI>
0

>  <Rbt.Current_Directory>
/home/itssahil/PROJECTS/Mol_Feturizer/New_Systems/rnas/1byj

>  <Rbt.Executable>
rbdock ($Id: //depot/dev/client3/rdock/2013.1/src/exe/rbdock.cxx#4 $)

>  <Rbt.Library>
libRbt.so (2013.1, Build901 2013/11/27)

>  <Rbt.Parameter_File>
/export/apps/rDock/src/rDock_2013.1_src/data/scripts/dock_solv.prm

>  <Rbt.Receptor>
prm/blind_docking_100.prm

>  <SCORE>
-9.88916

>  <SCORE.INTER>
-22.3191

>  <SCORE.INTER.CONST>
1

>  <SCORE.INTER.POLAR>
-4.30556

>  <SCORE.INTER.ROT>
6

>  <SCORE.INTER.SOLV>
28.9772

>  <SCORE.INTER.VDW>
-17.7866

>  <SCORE.INTER.norm>
-0.719972

>  <SCORE.INTRA>
2.58581

>  <SCORE.INTRA.DIHEDRAL>
5.07067

>  <SCORE.INTRA.DIHEDRAL.0>
18.4149

>  <SCORE.INTRA.POLAR>
-2.24527

>  <SCORE.INTRA.POLAR.0>
0

>  <SCORE.INTRA.REPUL>
-0.092687

>  <SCORE.INTRA.REPUL.0>
0.092687

>  <SCORE.INTRA.SOLV>
1.54979

>  <SCORE.INTRA.SOLV.lig_0>
-120.37

>  <SCORE.INTRA.VDW>
7.37294

>  <SCORE.INTRA.VDW.0>
-1.75542

>  <SCORE.INTRA.norm>
0.0834132

>  <SCORE.RESTR>
9.84416

>  <SCORE.RESTR.CAVITY>
9.84416

>  <SCORE.RESTR.norm>
0.317553

>  <SCORE.SYSTEM>
0

>  <SCORE.SYSTEM.CONST>
0

>  <SCORE.SYSTEM.DIHEDRAL>
0

>  <SCORE.SYSTEM.SOLV>
0

>  <SCORE.SYSTEM.norm>
0

>  <SCORE.heavy>
31

>  <SCORE.norm>
-0.319005

>  <RMSD>
14.267

$$$$
1byj cryst
 OpenBabel11021811383D
libRbt.so/2013.1/901 2013/11/27
 31 33  0  0  0  0  0  0  0  0999 V2000
   -4.7748   -3.6203   -6.3939 C   0  0  1  0  0  0  0  0  0  0  0  0
   -3.8386   -2.6652   -6.9883 O   0  0  0  0  0  0  0  0  0  0  0  0
   -2.9835   -1.8807   -6.1040 C   0  0  2  0  0  0  0  0  0  0  0  0
   -1.9936   -2.7238   -5.4361 O   0  0  0  0  0  0  0  0  0  0  0  0
   -3.8694   -1.1279   -5.0653 C   0  0  2  0  0  0  0  0  0  0  0  0
   -3.0881   -0.3034   -4.1225 N   0  3  0  0  0  0  0  0  0  0  0  0
   -4.7574   -2.1372   -4.2927 C   0  0  0  0  0  0  0  0  0  0  0  0
   -5.6129   -2.9711   -5.2581 C   0  0  0  0  0  0  0  0  0  0  0  0
   -5.7225   -4.1523   -7.4833 C   0  0  0  0  0  0  0  0  0  0  0  0
   -5.0315   -4.7886   -8.6124 N   0  3  0  0  0  0  0  0  0  0  0  0
   -0.6019   -4.7507   -5.2774 C   0  0  1  0  0  0  0  0  0  0  0  0
    0.3146   -5.7327   -6.0470 C   0  0  0  0  0  0  0  0  0  0  0  0
    1.4726   -4.9656   -6.7401 C   0  0  1  0  0  0  0  0  0  0  0  0
    2.3809   -5.9202   -7.4040 N   0  3  0  0  0  0  0  0  0  0  0  0
    0.9026   -3.9163   -7.7379 C   0  0  1  0  0  0  0  0  0  0  0  0
   -0.1061   -2.9628   -7.0498 C   0  0  1  0  0  0  0  0  0  0  0  0
   -0.6822   -2.1710   -8.0781 O   0  0  0  0  0  0  0  0  0  0  0  0
   -1.2291   -3.6826   -6.2323 C   0  0  2  0  0  0  0  0  0  0  0  0
   -1.6362   -5.4971   -4.5395 N   0  3  0  0  0  0  0  0  0  0  0  0
    4.0671   -1.9834  -10.2053 C   0  0  0  0  0  0  0  0  0  0  0  0
    4.0254   -2.9174  -11.4397 C   0  0  2  0  0  0  0  0  0  0  0  0
    3.6563   -2.1128  -12.5588 O   0  0  0  0  0  0  0  0  0  0  0  0
    2.9694   -4.0607  -11.1967 C   0  0  1  0  0  0  0  0  0  0  0  0
    1.5915   -3.5189  -10.6848 C   0  0  2  0  0  0  0  0  0  0  0  0
    1.7235   -2.4581   -9.5627 C   0  0  1  0  0  0  0  0  0  0  0  0
    1.9727   -3.0905   -8.2799 O   0  0  0  0  0  0  0  0  0  0  0  0
    2.7439   -1.4733   -9.8913 O   0  0  0  0  0  0  0  0  0  0  0  0
    0.7549   -4.5760  -10.2224 O   0  0  0  0  0  0  0  0  0  0  0  0
    2.7903   -4.8585  -12.4496 N   0  3  0  0  0  0  0  0  0  0  0  0
    3.8808   -5.7848  -12.8164 C   0  0  0  0  0  0  0  0  0  0  0  0
    5.4552   -3.4490  -11.7067 C   0  0  0  0  0  0  0  0  0  0  0  0
  1  8  1  0  0  0  0
  1  9  1  6  0  0  0
  1  2  1  0  0  0  0
  2  3  1  0  0  0  0
  3  5  1  0  0  0  0
  3  4  1  1  0  0  0
  5  7  1  0  0  0  0
  5  6  1  1  0  0  0
  7  8  1  0  0  0  0
  9 10  1  0  0  0  0
 11 12  1  0  0  0  0
 11 18  1  0  0  0  0
 11 19  1  6  0  0  0
 12 13  1  0  0  0  0
 13 15  1  0  0  0  0
 13 14  1  6  0  0  0
 15 16  1  0  0  0  0
 15 26  1  1  0  0  0
 16 18  1  0  0  0  0
 16 17  1  6  0  0  0
 18  4  1  1  0  0  0
 20 21  1  0  0  0  0
 20 27  1  0  0  0  0
 21 31  1  6  0  0  0
 21 23  1  0  0  0  0
 21 22  1  0  0  0  0
 23 24  1  0  0  0  0
 23 29  1  6  0  0  0
 24 25  1  0  0  0  0
 24 28  1  1  0  0  0
 25 27  1  0  0  0  0
 25 26  1  1  0  0  0
 29 30  1  0  0  0  0
M  CHG  5   6   1  10   1  14   1  19   1  29   1
M  END
>  <CHROM.1>
57.40824871,47.38794283,-161.99506743,-147.68028272,27.14261863,-138.87266368
179.74235736,156.20019810,131.77350802,49.97717318,-164.96321375,-75.91166685
-65.85235141,-0.16615793,-3.43723804,-8.08795353,2.94851458,-0.63107487,2.69657407

>  <Name>
1byj cryst

>  <RI>
0

>  <Rbt.Current_Directory>
/home/itssahil/PROJECTS/Mol_Feturizer/New_Systems/rnas/1byj

>  <Rbt.Executable>
rbdock ($Id: //depot/dev/client3/rdock/2013.1/src/exe/rbdock.cxx#4 $)

>  <Rbt.Library>
libRbt.so (2013.1, Build901 2013/11/27)

>  <Rbt.Parameter_File>
/export/apps/rDock/src/rDock_2013.1_src/data/scripts/dock_solv.prm

>  <Rbt.Receptor>
prm/blind_docking_100.prm

>  <SCORE>
5.63564

>  <SCORE.INTER>
-6.88483

>  <SCORE.INTER.CONST>
1

>  <SCORE.INTER.POLAR>
-2.08928

>  <SCORE.INTER.ROT>
6

>  <SCORE.INTER.SOLV>
28.4146

>  <SCORE.INTER.VDW>
-14.6972

>  <SCORE.INTER.norm>
-0.222091

>  <SCORE.INTRA>
2.82601

>  <SCORE.INTRA.DIHEDRAL>
2.08123

>  <SCORE.INTRA.DIHEDRAL.0>
18.4149

>  <SCORE.INTRA.POLAR>
-0.177533

>  <SCORE.INTRA.POLAR.0>
0

>  <SCORE.INTRA.REPUL>
-0.092687

>  <SCORE.INTRA.REPUL.0>
0.092687

>  <SCORE.INTRA.SOLV>
-2.29368

>  <SCORE.INTRA.SOLV.lig_0>
-120.37

>  <SCORE.INTRA.VDW>
3.99929

>  <SCORE.INTRA.VDW.0>
-1.75542

>  <SCORE.INTRA.norm>
0.0911616

>  <SCORE.RESTR>
9.69447

>  <SCORE.RESTR.CAVITY>
9.69447

>  <SCORE.RESTR.norm>
0.312725

>  <SCORE.SYSTEM>
0

>  <SCORE.SYSTEM.CONST>
0

>  <SCORE.SYSTEM.DIHEDRAL>
0

>  <SCORE.SYSTEM.SOLV>
0

>  <SCORE.SYSTEM.norm>
0

>  <SCORE.heavy>
31

>  <SCORE.norm>
0.181795

>  <RMSD>
14.282

$$$$
1byj cryst
 OpenBabel11021811383D
libRbt.so/2013.1/901 2013/11/27
 31 33  0  0  0  0  0  0  0  0999 V2000
   -3.0358   -3.2017   -5.9044 C   0  0  1  0  0  0  0  0  0  0  0  0
   -1.7236   -3.0838   -5.2670 O   0  0  0  0  0  0  0  0  0  0  0  0
   -0.6981   -4.0704   -5.5889 C   0  0  2  0  0  0  0  0  0  0  0  0
   -0.2478   -3.9367   -6.9731 O   0  0  0  0  0  0  0  0  0  0  0  0
   -1.2560   -5.5006   -5.3178 C   0  0  2  0  0  0  0  0  0  0  0  0
   -0.2843   -6.5710   -5.6165 N   0  3  0  0  0  0  0  0  0  0  0  0
   -2.5657   -5.7214   -6.1178 C   0  0  0  0  0  0  0  0  0  0  0  0
   -3.6058   -4.6419   -5.7822 C   0  0  0  0  0  0  0  0  0  0  0  0
   -4.0138   -2.2116   -5.2476 C   0  0  0  0  0  0  0  0  0  0  0  0
   -3.9092   -0.8415   -5.7664 N   0  3  0  0  0  0  0  0  0  0  0  0
    0.5374   -1.6516   -7.4556 C   0  0  1  0  0  0  0  0  0  0  0  0
    1.7476   -0.7786   -7.8676 C   0  0  0  0  0  0  0  0  0  0  0  0
    2.3617   -1.2935   -9.1970 C   0  0  1  0  0  0  0  0  0  0  0  0
    3.4636   -0.4071   -9.6178 N   0  3  0  0  0  0  0  0  0  0  0  0
    2.8314   -2.7686   -9.0379 C   0  0  1  0  0  0  0  0  0  0  0  0
    1.6880   -3.6800   -8.5258 C   0  0  1  0  0  0  0  0  0  0  0  0
    2.2689   -4.9476   -8.2576 O   0  0  0  0  0  0  0  0  0  0  0  0
    0.9501   -3.1466   -7.2537 C   0  0  2  0  0  0  0  0  0  0  0  0
   -0.1011   -1.0944   -6.2500 N   0  3  0  0  0  0  0  0  0  0  0  0
    5.2497   -5.5645   -9.7649 C   0  0  0  0  0  0  0  0  0  0  0  0
    5.7033   -6.0641  -11.1585 C   0  0  2  0  0  0  0  0  0  0  0  0
    7.1124   -5.8542  -11.2383 O   0  0  0  0  0  0  0  0  0  0  0  0
    4.9497   -5.2513  -12.2778 C   0  0  1  0  0  0  0  0  0  0  0  0
    4.9961   -3.7032  -12.0425 C   0  0  2  0  0  0  0  0  0  0  0  0
    4.6976   -3.2919  -10.5784 C   0  0  1  0  0  0  0  0  0  0  0  0
    3.2695   -3.3077  -10.3177 O   0  0  0  0  0  0  0  0  0  0  0  0
    5.4313   -4.1288   -9.6401 O   0  0  0  0  0  0  0  0  0  0  0  0
    4.0934   -3.0174  -12.9061 O   0  0  0  0  0  0  0  0  0  0  0  0
    5.5119   -5.5983  -13.6202 N   0  3  0  0  0  0  0  0  0  0  0  0
    6.8295   -5.0260  -13.9638 C   0  0  0  0  0  0  0  0  0  0  0  0
    5.4602   -7.5914  -11.2400 C   0  0  0  0  0  0  0  0  0  0  0  0
  1  8  1  0  0  0  0
  1  9  1  1  0  0  0
  1  2  1  0  0  0  0
  2  3  1  0  0  0  0
  3  5  1  0  0  0  0
  3  4  1  6  0  0  0
  5  7  1  0  0  0  0
  5  6  1  6  0  0  0
  7  8  1  0  0  0  0
  9 10  1  0  0  0  0
 11 12  1  0  0  0  0
 11 18  1  0  0  0  0
 11 19  1  1  0  0  0
 12 13  1  0  0  0  0
 13 15  1  0  0  0  0
 13 14  1  1  0  0  0
 15 16  1  0  0  0  0
 15 26  1  6  0  0  0
 16 18  1  0  0  0  0
 16 17  1  1  0  0  0
 18  4  1  6  0  0  0
 20 21  1  0  0  0  0
 20 27  1  0  0  0  0
 21 31  1  6  0  0  0
 21 23  1  0  0  0  0
 21 22  1  0  0  0  0
 23 24  1  0  0  0  0
 23 29  1  6  0  0  0
 24 25  1  0  0  0  0
 24 28  1  6  0  0  0
 25 27  1  0  0  0  0
 25 26  1  1  0  0  0
 29 30  1  0  0  0  0
M  CHG  5   6   1  10   1  14   1  19   1  29   1
M  END
>  <CHROM.1>
82.04946546,95.41626063,-88.00666680,-132.84527706,84.94361802,65.48489064
19.10280548,97.55627107,62.56292149,21.94854207,45.93302585,-81.35335919
-171.91298312,1.88329897,-3.79231574,-8.71669067,3.05499943,0.68090381,-0.13318987

>  <Name>
1byj cryst

>  <RI>
0

>  <Rbt.Current_Directory>
/home/itssahil/PROJECTS/Mol_Feturizer/New_Systems/rnas/1byj

>  <Rbt.Executable>
rbdock ($Id: //depot/dev/client3/rdock/2013.1/src/exe/rbdock.cxx#4 $)

>  <Rbt.Library>
libRbt.so (2013.1, Build901 2013/11/27)

>  <Rbt.Parameter_File>
/export/apps/rDock/src/rDock_2013.1_src/data/scripts/dock_solv.prm

>  <Rbt.Receptor>
prm/blind_docking_80.prm

>  <SCORE>
-24.8076

>  <SCORE.INTER>
-29.9017

>  <SCORE.INTER.CONST>
1

>  <SCORE.INTER.POLAR>
-5.96993

>  <SCORE.INTER.ROT>
6

>  <SCORE.INTER.SOLV>
32.1928

>  <SCORE.INTER.VDW>
-18.3657

>  <SCORE.INTER.norm>
-0.964572

>  <SCORE.INTRA>
4.44246

>  <SCORE.INTRA.DIHEDRAL>
11.384

>  <SCORE.INTRA.DIHEDRAL.0>
18.4149

>  <SCORE.INTRA.POLAR>
-1.02803

>  <SCORE.INTRA.POLAR.0>
0

>  <SCORE.INTRA.REPUL>
-0.092687

>  <SCORE.INTRA.REPUL.0>
0.092687

>  <SCORE.INTRA.SOLV>
1.09517

>  <SCORE.INTRA.SOLV.lig_0>
-120.37

>  <SCORE.INTRA.VDW>
2.16161

>  <SCORE.INTRA.VDW.0>
-1.75542

>  <SCORE.INTRA.norm>
0.143305

>  <SCORE.RESTR>
0.651705

>  <SCORE.RESTR.CAVITY>
0.651705

>  <SCORE.RESTR.norm>
0.0210228

>  <SCORE.SYSTEM>
0

>  <SCORE.SYSTEM.CONST>
0

>  <SCORE.SYSTEM.DIHEDRAL>
0

>  <SCORE.SYSTEM.SOLV>
0

>  <SCORE.SYSTEM.norm>
0

>  <SCORE.heavy>
31

>  <SCORE.norm>
-0.800244

>  <RMSD>
14.284

$$$$
1byj cryst
 OpenBabel11021811383D
libRbt.so/2013.1/901 2013/11/27
 31 33  0  0  0  0  0  0  0  0999 V2000
   -2.9822   -3.1063   -5.9782 C   0  0  1  0  0  0  0  0  0  0  0  0
   -1.6804   -3.0236   -5.3143 O   0  0  0  0  0  0  0  0  0  0  0  0
   -0.6958   -4.0689   -5.5720 C   0  0  2  0  0  0  0  0  0  0  0  0
   -0.2088   -4.0127   -6.9491 O   0  0  0  0  0  0  0  0  0  0  0  0
   -1.3267   -5.4596   -5.2581 C   0  0  2  0  0  0  0  0  0  0  0  0
   -0.4003   -6.5851   -5.4906 N   0  3  0  0  0  0  0  0  0  0  0  0
   -2.6272   -5.6516   -6.0802 C   0  0  0  0  0  0  0  0  0  0  0  0
   -3.6222   -4.5123   -5.8130 C   0  0  0  0  0  0  0  0  0  0  0  0
   -3.9265   -2.0459   -5.3849 C   0  0  0  0  0  0  0  0  0  0  0  0
   -3.2583   -0.7864   -5.0322 N   0  3  0  0  0  0  0  0  0  0  0  0
    0.5471   -1.7260   -7.4691 C   0  0  1  0  0  0  0  0  0  0  0  0
    1.7451   -0.8452   -7.8997 C   0  0  0  0  0  0  0  0  0  0  0  0
    2.3592   -1.3726   -9.2243 C   0  0  1  0  0  0  0  0  0  0  0  0
    3.4486   -0.4797   -9.6635 N   0  3  0  0  0  0  0  0  0  0  0  0
    2.8468   -2.8395   -9.0456 C   0  0  1  0  0  0  0  0  0  0  0  0
    1.7167   -3.7565   -8.5146 C   0  0  1  0  0  0  0  0  0  0  0  0
    2.3137   -5.0131   -8.2304 O   0  0  0  0  0  0  0  0  0  0  0  0
    0.9784   -3.2129   -7.2470 C   0  0  2  0  0  0  0  0  0  0  0  0
   -0.0923   -1.1585   -6.2689 N   0  3  0  0  0  0  0  0  0  0  0  0
    5.2007   -5.7318   -9.8960 C   0  0  0  0  0  0  0  0  0  0  0  0
    5.6509   -6.1566  -11.3153 C   0  0  2  0  0  0  0  0  0  0  0  0
    7.0657   -5.9803  -11.3740 O   0  0  0  0  0  0  0  0  0  0  0  0
    4.9275   -5.2562  -12.3864 C   0  0  1  0  0  0  0  0  0  0  0  0
    5.0134   -3.7274  -12.0555 C   0  0  2  0  0  0  0  0  0  0  0  0
    4.7153   -3.3993  -10.5705 C   0  0  1  0  0  0  0  0  0  0  0  0
    3.2855   -3.3924  -10.3193 O   0  0  0  0  0  0  0  0  0  0  0  0
    5.4196   -4.3119   -9.6817 O   0  0  0  0  0  0  0  0  0  0  0  0
    4.1356   -2.9654  -12.8802 O   0  0  0  0  0  0  0  0  0  0  0  0
    5.4899   -5.5348  -13.7445 N   0  3  0  0  0  0  0  0  0  0  0  0
    6.8299   -4.9882  -14.0406 C   0  0  0  0  0  0  0  0  0  0  0  0
    5.3678   -7.6687  -11.4925 C   0  0  0  0  0  0  0  0  0  0  0  0
  1  8  1  0  0  0  0
  1  9  1  1  0  0  0
  1  2  1  0  0  0  0
  2  3  1  0  0  0  0
  3  5  1  0  0  0  0
  3  4  1  6  0  0  0
  5  7  1  0  0  0  0
  5  6  1  6  0  0  0
  7  8  1  0  0  0  0
  9 10  1  0  0  0  0
 11 12  1  0  0  0  0
 11 18  1  0  0  0  0
 11 19  1  1  0  0  0
 12 13  1  0  0  0  0
 13 15  1  0  0  0  0
 13 14  1  1  0  0  0
 15 16  1  0  0  0  0
 15 26  1  6  0  0  0
 16 18  1  0  0  0  0
 16 17  1  1  0  0  0
 18  4  1  6  0  0  0
 20 21  1  0  0  0  0
 20 27  1  0  0  0  0
 21 31  1  6  0  0  0
 21 23  1  0  0  0  0
 21 22  1  0  0  0  0
 23 24  1  0  0  0  0
 23 29  1  6  0  0  0
 24 25  1  0  0  0  0
 24 28  1  6  0  0  0
 25 27  1  0  0  0  0
 25 26  1  6  0  0  0
 29 30  1  0  0  0  0
M  CHG  5   6   1  10   1  14   1  19   1  29   1
M  END
>  <CHROM.1>
36.19776622,91.13723542,-84.54773728,3.47100993,53.18247023,-57.82631247
24.79179414,99.28915423,-171.08322415,-58.22764863,46.44634193,73.42613332
-167.98102734,1.89783780,-3.81938704,-8.72364990,3.02444651,0.70192018,-0.09437385

>  <Name>
1byj cryst

>  <RI>
0

>  <Rbt.Current_Directory>
/home/itssahil/PROJECTS/Mol_Feturizer/New_Systems/rnas/1byj

>  <Rbt.Executable>
rbdock ($Id: //depot/dev/client3/rdock/2013.1/src/exe/rbdock.cxx#4 $)

>  <Rbt.Library>
libRbt.so (2013.1, Build901 2013/11/27)

>  <Rbt.Parameter_File>
/export/apps/rDock/src/rDock_2013.1_src/data/scripts/dock_solv.prm

>  <Rbt.Receptor>
prm/blind_docking_80.prm

>  <SCORE>
-22.5579

>  <SCORE.INTER>
-23.6493

>  <SCORE.INTER.CONST>
1

>  <SCORE.INTER.POLAR>
-3.67841

>  <SCORE.INTER.ROT>
6

>  <SCORE.INTER.SOLV>
30.3695

>  <SCORE.INTER.VDW>
-21.228

>  <SCORE.INTER.norm>
-0.76288

>  <SCORE.INTRA>
0.525735

>  <SCORE.INTRA.DIHEDRAL>
3.79729

>  <SCORE.INTRA.DIHEDRAL.0>
18.4149

>  <SCORE.INTRA.POLAR>
-1.13038

>  <SCORE.INTRA.POLAR.0>
0

>  <SCORE.INTRA.REPUL>
-0.0702273

>  <SCORE.INTRA.REPUL.0>
0.092687

>  <SCORE.INTRA.SOLV>
3.70391

>  <SCORE.INTRA.SOLV.lig_0>
-120.37

>  <SCORE.INTRA.VDW>
0.969546

>  <SCORE.INTRA.VDW.0>
-1.75542

>  <SCORE.INTRA.norm>
0.0169592

>  <SCORE.RESTR>
0.565663

>  <SCORE.RESTR.CAVITY>
0.565663

>  <SCORE.RESTR.norm>
0.0182472

>  <SCORE.SYSTEM>
0

>  <SCORE.SYSTEM.CONST>
0

>  <SCORE.SYSTEM.DIHEDRAL>
0

>  <SCORE.SYSTEM.SOLV>
0

>  <SCORE.SYSTEM.norm>
0

>  <SCORE.heavy>
31

>  <SCORE.norm>
-0.727674

>  <RMSD>
14.302

$$$$
1byj cryst
 OpenBabel11021811383D
libRbt.so/2013.1/901 2013/11/27
 31 33  0  0  0  0  0  0  0  0999 V2000
   -1.9319   -2.8190   -6.3964 C   0  0  1  0  0  0  0  0  0  0  0  0
   -0.7760   -1.9784   -6.0815 O   0  0  0  0  0  0  0  0  0  0  0  0
    0.5603   -2.5499   -6.2088 C   0  0  2  0  0  0  0  0  0  0  0  0
    0.8947   -2.8136   -7.6072 O   0  0  0  0  0  0  0  0  0  0  0  0
    0.6465   -3.8531   -5.3576 C   0  0  2  0  0  0  0  0  0  0  0  0
    1.9688   -4.5059   -5.4246 N   0  3  0  0  0  0  0  0  0  0  0  0
   -0.4671   -4.8431   -5.7862 C   0  0  0  0  0  0  0  0  0  0  0  0
   -1.8548   -4.1937   -5.6765 C   0  0  0  0  0  0  0  0  0  0  0  0
   -3.2214   -2.0950   -5.9709 C   0  0  0  0  0  0  0  0  0  0  0  0
   -3.1653   -1.5292   -4.6166 N   0  3  0  0  0  0  0  0  0  0  0  0
    1.6906   -1.0355   -9.1156 C   0  0  1  0  0  0  0  0  0  0  0  0
    2.9196   -0.4267   -9.8336 C   0  0  0  0  0  0  0  0  0  0  0  0
    3.6380   -1.5042  -10.6895 C   0  0  1  0  0  0  0  0  0  0  0  0
    4.7594   -0.8932  -11.4284 N   0  3  0  0  0  0  0  0  0  0  0  0
    4.1093   -2.6820   -9.7883 C   0  0  1  0  0  0  0  0  0  0  0  0
    2.9399   -3.2713   -8.9605 C   0  0  1  0  0  0  0  0  0  0  0  0
    3.5117   -4.2100   -8.0616 O   0  0  0  0  0  0  0  0  0  0  0  0
    2.1022   -2.2120   -8.1709 C   0  0  2  0  0  0  0  0  0  0  0  0
    0.9570    0.0161   -8.3894 N   0  3  0  0  0  0  0  0  0  0  0  0
    4.3407   -6.7773  -10.2182 C   0  0  0  0  0  0  0  0  0  0  0  0
    5.4184   -7.4191  -11.1262 C   0  0  2  0  0  0  0  0  0  0  0  0
    6.2959   -8.1551  -10.2751 O   0  0  0  0  0  0  0  0  0  0  0  0
    6.1991   -6.2868  -11.8941 C   0  0  1  0  0  0  0  0  0  0  0  0
    6.6788   -5.1307  -10.9521 C   0  0  2  0  0  0  0  0  0  0  0  0
    5.5927   -4.6575   -9.9529 C   0  0  1  0  0  0  0  0  0  0  0  0
    4.6488   -3.7641  -10.5999 O   0  0  0  0  0  0  0  0  0  0  0  0
    4.9277   -5.7914   -9.3275 O   0  0  0  0  0  0  0  0  0  0  0  0
    7.1382   -4.0068  -11.6984 O   0  0  0  0  0  0  0  0  0  0  0  0
    7.3570   -6.8816  -12.6316 N   0  3  0  0  0  0  0  0  0  0  0  0
    8.3430   -7.6385  -11.8337 C   0  0  0  0  0  0  0  0  0  0  0  0
    4.7297   -8.4371  -12.0682 C   0  0  0  0  0  0  0  0  0  0  0  0
  1  8  1  0  0  0  0
  1  9  1  1  0  0  0
  1  2  1  0  0  0  0
  2  3  1  0  0  0  0
  3  5  1  0  0  0  0
  3  4  1  6  0  0  0
  5  7  1  0  0  0  0
  5  6  1  6  0  0  0
  7  8  1  0  0  0  0
  9 10  1  0  0  0  0
 11 12  1  0  0  0  0
 11 18  1  0  0  0  0
 11 19  1  1  0  0  0
 12 13  1  0  0  0  0
 13 15  1  0  0  0  0
 13 14  1  1  0  0  0
 15 16  1  0  0  0  0
 15 26  1  6  0  0  0
 16 18  1  0  0  0  0
 16 17  1  1  0  0  0
 18  4  1  6  0  0  0
 20 21  1  0  0  0  0
 20 27  1  0  0  0  0
 21 31  1  6  0  0  0
 21 23  1  0  0  0  0
 21 22  1  0  0  0  0
 23 24  1  0  0  0  0
 23 29  1  1  0  0  0
 24 25  1  0  0  0  0
 24 28  1  6  0  0  0
 25 27  1  0  0  0  0
 25 26  1  6  0  0  0
 29 30  1  0  0  0  0
M  CHG  5   6   1  10   1  14   1  19   1  29   1
M  END
>  <CHROM.1>
-47.39269821,123.75602920,-105.75435480,-171.59260053,173.90020954,78.80233263
37.53360750,155.79256428,-77.64040364,90.44071217,63.88854173,-156.63947021
-145.23440157,2.95928575,-3.94352546,-8.90399953,2.88148926,0.68539454,-0.23453452

>  <Name>
1byj cryst

>  <RI>
0

>  <Rbt.Current_Directory>
/home/itssahil/PROJECTS/Mol_Feturizer/New_Systems/rnas/1byj

>  <Rbt.Executable>
rbdock ($Id: //depot/dev/client3/rdock/2013.1/src/exe/rbdock.cxx#4 $)

>  <Rbt.Library>
libRbt.so (2013.1, Build901 2013/11/27)

>  <Rbt.Parameter_File>
/export/apps/rDock/src/rDock_2013.1_src/data/scripts/dock_solv.prm

>  <Rbt.Receptor>
prm/blind_docking_40.prm

>  <SCORE>
-3.15124

>  <SCORE.INTER>
-13.8241

>  <SCORE.INTER.CONST>
1

>  <SCORE.INTER.POLAR>
-7.02434

>  <SCORE.INTER.ROT>
6

>  <SCORE.INTER.SOLV>
37.2028

>  <SCORE.INTER.VDW>
-5.80252

>  <SCORE.INTER.norm>
-0.445939

>  <SCORE.INTRA>
3.32961

>  <SCORE.INTRA.DIHEDRAL>
12.5336

>  <SCORE.INTRA.DIHEDRAL.0>
18.4149

>  <SCORE.INTRA.POLAR>
-1.9476

>  <SCORE.INTRA.POLAR.0>
0

>  <SCORE.INTRA.REPUL>
-0.092687

>  <SCORE.INTRA.REPUL.0>
0.092687

>  <SCORE.INTRA.SOLV>
-0.32634

>  <SCORE.INTRA.SOLV.lig_0>
-120.37

>  <SCORE.INTRA.VDW>
4.31127

>  <SCORE.INTRA.VDW.0>
-1.75542

>  <SCORE.INTRA.norm>
0.107407

>  <SCORE.RESTR>
7.34327

>  <SCORE.RESTR.CAVITY>
7.34327

>  <SCORE.RESTR.norm>
0.23688

>  <SCORE.SYSTEM>
0

>  <SCORE.SYSTEM.CONST>
0

>  <SCORE.SYSTEM.DIHEDRAL>
0

>  <SCORE.SYSTEM.SOLV>
0

>  <SCORE.SYSTEM.norm>
0

>  <SCORE.heavy>
31

>  <SCORE.norm>
-0.101653

>  <RMSD>
14.303

$$$$
1byj cryst
 OpenBabel11021811383D
libRbt.so/2013.1/901 2013/11/27
 31 33  0  0  0  0  0  0  0  0999 V2000
   -3.0589   -2.8734   -6.2910 C   0  0  1  0  0  0  0  0  0  0  0  0
   -1.8175   -2.7574   -5.5244 O   0  0  0  0  0  0  0  0  0  0  0  0
   -0.8638   -3.8607   -5.5658 C   0  0  2  0  0  0  0  0  0  0  0  0
   -0.2565   -3.9889   -6.8893 O   0  0  0  0  0  0  0  0  0  0  0  0
   -1.5834   -5.1797   -5.1504 C   0  0  2  0  0  0  0  0  0  0  0  0
   -0.6935   -6.3574   -5.1628 N   0  3  0  0  0  0  0  0  0  0  0  0
   -2.8148   -5.4234   -6.0605 C   0  0  0  0  0  0  0  0  0  0  0  0
   -3.7754   -4.2254   -6.0215 C   0  0  0  0  0  0  0  0  0  0  0  0
   -4.0012   -1.7161   -5.9158 C   0  0  0  0  0  0  0  0  0  0  0  0
   -3.3686   -0.6795   -5.0895 N   0  3  0  0  0  0  0  0  0  0  0  0
    0.5161   -1.7219   -7.4674 C   0  0  1  0  0  0  0  0  0  0  0  0
    1.7226   -0.8595   -7.9113 C   0  0  0  0  0  0  0  0  0  0  0  0
    2.3470   -1.4279   -9.2140 C   0  0  1  0  0  0  0  0  0  0  0  0
    3.4451   -0.5532   -9.6678 N   0  3  0  0  0  0  0  0  0  0  0  0
    2.8255   -2.8913   -8.9882 C   0  0  1  0  0  0  0  0  0  0  0  0
    1.6856   -3.7872   -8.4422 C   0  0  1  0  0  0  0  0  0  0  0  0
    2.2734   -5.0379   -8.1160 O   0  0  0  0  0  0  0  0  0  0  0  0
    0.9376   -3.2037   -7.1983 C   0  0  2  0  0  0  0  0  0  0  0  0
   -0.1322   -1.1168   -6.2905 N   0  3  0  0  0  0  0  0  0  0  0  0
    5.2463   -5.7708   -9.7998 C   0  0  0  0  0  0  0  0  0  0  0  0
    5.6988   -6.2025  -11.2163 C   0  0  2  0  0  0  0  0  0  0  0  0
    7.1087   -5.9935  -11.2852 O   0  0  0  0  0  0  0  0  0  0  0  0
    4.9484   -5.3328  -12.2942 C   0  0  1  0  0  0  0  0  0  0  0  0
    4.9999   -3.7984  -11.9828 C   0  0  2  0  0  0  0  0  0  0  0  0
    4.7021   -3.4590  -10.5002 C   0  0  1  0  0  0  0  0  0  0  0  0
    3.2738   -3.4829  -10.2410 O   0  0  0  0  0  0  0  0  0  0  0  0
    5.4326   -4.3436   -9.6042 O   0  0  0  0  0  0  0  0  0  0  0  0
    4.0997   -3.0678  -12.8117 O   0  0  0  0  0  0  0  0  0  0  0  0
    5.5100   -5.6150  -13.6520 N   0  3  0  0  0  0  0  0  0  0  0  0
    4.8291   -4.9878  -14.8030 C   0  0  0  0  0  0  0  0  0  0  0  0
    5.4507   -7.7230  -11.3732 C   0  0  0  0  0  0  0  0  0  0  0  0
  1  8  1  0  0  0  0
  1  9  1  1  0  0  0
  1  2  1  0  0  0  0
  2  3  1  0  0  0  0
  3  5  1  0  0  0  0
  3  4  1  6  0  0  0
  5  7  1  0  0  0  0
  5  6  1  6  0  0  0
  7  8  1  0  0  0  0
  9 10  1  0  0  0  0
 11 12  1  0  0  0  0
 11 18  1  0  0  0  0
 11 19  1  1  0  0  0
 12 13  1  0  0  0  0
 13 15  1  0  0  0  0
 13 14  1  1  0  0  0
 15 16  1  0  0  0  0
 15 26  1  6  0  0  0
 16 18  1  0  0  0  0
 16 17  1  1  0  0  0
 18  4  1  6  0  0  0
 20 21  1  0  0  0  0
 20 27  1  0  0  0  0
 21 31  1  6  0  0  0
 21 23  1  0  0  0  0
 21 22  1  0  0  0  0
 23 24  1  0  0  0  0
 23 29  1  6  0  0  0
 24 25  1  0  0  0  0
 24 28  1  6  0  0  0
 25 27  1  0  0  0  0
 25 26  1  6  0  0  0
 29 30  1  0  0  0  0
M  CHG  5   6   1  10   1  14   1  19   1  29   1
M  END
>  <CHROM.1>
9.84227259,87.04384046,-76.27100050,-86.35260811,75.63171823,-69.29389993
-96.84073739,97.06770717,-56.84352772,-179.59280622,-65.04445597,74.25775067
-166.33474034,1.78738519,-3.78017906,-8.73471920,3.02906152,0.70620774,-0.14367117

>  <Name>
1byj cryst

>  <RI>
0

>  <Rbt.Current_Directory>
/home/itssahil/PROJECTS/Mol_Feturizer/New_Systems/rnas/1byj

>  <Rbt.Executable>
rbdock ($Id: //depot/dev/client3/rdock/2013.1/src/exe/rbdock.cxx#4 $)

>  <Rbt.Library>
libRbt.so (2013.1, Build901 2013/11/27)

>  <Rbt.Parameter_File>
/export/apps/rDock/src/rDock_2013.1_src/data/scripts/dock_solv.prm

>  <Rbt.Receptor>
prm/blind_docking_80.prm

>  <SCORE>
-20.1071

>  <SCORE.INTER>
-22.9679

>  <SCORE.INTER.CONST>
1

>  <SCORE.INTER.POLAR>
-3.60736

>  <SCORE.INTER.ROT>
6

>  <SCORE.INTER.SOLV>
30.2288

>  <SCORE.INTER.VDW>
-20.9637

>  <SCORE.INTER.norm>
-0.740901

>  <SCORE.INTRA>
1.66523

>  <SCORE.INTRA.DIHEDRAL>
2.65636

>  <SCORE.INTRA.DIHEDRAL.0>
18.4149

>  <SCORE.INTRA.POLAR>
-0.886573

>  <SCORE.INTRA.POLAR.0>
0

>  <SCORE.INTRA.REPUL>
-0.092687

>  <SCORE.INTRA.REPUL.0>
0.092687

>  <SCORE.INTRA.SOLV>
5.01776

>  <SCORE.INTRA.SOLV.lig_0>
-120.37

>  <SCORE.INTRA.VDW>
1.30595

>  <SCORE.INTRA.VDW.0>
-1.75542

>  <SCORE.INTRA.norm>
0.0537171

>  <SCORE.RESTR>
1.19562

>  <SCORE.RESTR.CAVITY>
1.19562

>  <SCORE.RESTR.norm>
0.0385685

>  <SCORE.SYSTEM>
0

>  <SCORE.SYSTEM.CONST>
0

>  <SCORE.SYSTEM.DIHEDRAL>
0

>  <SCORE.SYSTEM.SOLV>
0

>  <SCORE.SYSTEM.norm>
0

>  <SCORE.heavy>
31

>  <SCORE.norm>
-0.648615

>  <RMSD>
14.307

$$$$
1byj cryst
 OpenBabel11021811383D
libRbt.so/2013.1/901 2013/11/27
 31 33  0  0  0  0  0  0  0  0999 V2000
   -3.0781   -3.0242   -6.1578 C   0  0  1  0  0  0  0  0  0  0  0  0
   -1.8295   -2.9004   -5.4042 O   0  0  0  0  0  0  0  0  0  0  0  0
   -0.8395   -3.9668   -5.5102 C   0  0  2  0  0  0  0  0  0  0  0  0
   -0.2490   -4.0129   -6.8466 O   0  0  0  0  0  0  0  0  0  0  0  0
   -1.5072   -5.3277   -5.1463 C   0  0  2  0  0  0  0  0  0  0  0  0
   -0.5779   -6.4719   -5.2259 N   0  3  0  0  0  0  0  0  0  0  0  0
   -2.7436   -5.5721   -6.0494 C   0  0  0  0  0  0  0  0  0  0  0  0
   -3.7438   -4.4112   -5.9413 C   0  0  0  0  0  0  0  0  0  0  0  0
   -4.0533   -1.9188   -5.7161 C   0  0  0  0  0  0  0  0  0  0  0  0
   -4.7988   -1.3073   -6.8240 N   0  3  0  0  0  0  0  0  0  0  0  0
    0.5070   -1.7270   -7.3695 C   0  0  1  0  0  0  0  0  0  0  0  0
    1.7106   -0.8432   -7.7780 C   0  0  0  0  0  0  0  0  0  0  0  0
    2.3615   -1.3798   -9.0812 C   0  0  1  0  0  0  0  0  0  0  0  0
    3.4567   -0.4848   -9.5011 N   0  3  0  0  0  0  0  0  0  0  0  0
    2.8527   -2.8420   -8.8756 C   0  0  1  0  0  0  0  0  0  0  0  0
    1.7146   -3.7605   -8.3647 C   0  0  1  0  0  0  0  0  0  0  0  0
    2.3112   -5.0107   -8.0530 O   0  0  0  0  0  0  0  0  0  0  0  0
    0.9409   -3.2090   -7.1218 C   0  0  2  0  0  0  0  0  0  0  0  0
   -0.1662   -1.1516   -6.1918 N   0  3  0  0  0  0  0  0  0  0  0  0
    4.9026   -6.0154  -10.2784 C   0  0  0  0  0  0  0  0  0  0  0  0
    5.4397   -6.0908  -11.7287 C   0  0  2  0  0  0  0  0  0  0  0  0
    6.8641   -6.1063  -11.6454 O   0  0  0  0  0  0  0  0  0  0  0  0
    4.9378   -4.8371  -12.5396 C   0  0  1  0  0  0  0  0  0  0  0  0
    5.1689   -3.4871  -11.7794 C   0  0  2  0  0  0  0  0  0  0  0  0
    4.7642   -3.5432  -10.2844 C   0  0  1  0  0  0  0  0  0  0  0  0
    3.3270   -3.4047  -10.1322 O   0  0  0  0  0  0  0  0  0  0  0  0
    5.2639   -4.7555   -9.6524 O   0  0  0  0  0  0  0  0  0  0  0  0
    4.4735   -2.4113  -12.4041 O   0  0  0  0  0  0  0  0  0  0  0  0
    5.5968   -4.8062  -13.8824 N   0  3  0  0  0  0  0  0  0  0  0  0
    7.0722   -4.7375  -13.9041 C   0  0  0  0  0  0  0  0  0  0  0  0
    5.0004   -7.4397  -12.3498 C   0  0  0  0  0  0  0  0  0  0  0  0
  1  8  1  0  0  0  0
  1  9  1  1  0  0  0
  1  2  1  0  0  0  0
  2  3  1  0  0  0  0
  3  5  1  0  0  0  0
  3  4  1  6  0  0  0
  5  7  1  0  0  0  0
  5  6  1  6  0  0  0
  7  8  1  0  0  0  0
  9 10  1  0  0  0  0
 11 12  1  0  0  0  0
 11 18  1  0  0  0  0
 11 19  1  1  0  0  0
 12 13  1  0  0  0  0
 13 15  1  0  0  0  0
 13 14  1  1  0  0  0
 15 16  1  0  0  0  0
 15 26  1  6  0  0  0
 16 18  1  0  0  0  0
 16 17  1  1  0  0  0
 18  4  1  6  0  0  0
 20 21  1  0  0  0  0
 20 27  1  0  0  0  0
 21 31  1  6  0  0  0
 21 23  1  0  0  0  0
 21 22  1  0  0  0  0
 23 24  1  0  0  0  0
 23 29  1  6  0  0  0
 24 25  1  0  0  0  0
 24 28  1  6  0  0  0
 25 27  1  0  0  0  0
 25 26  1  6  0  0  0
 29 30  1  0  0  0  0
M  CHG  5   6   1  10   1  14   1  19   1  29   1
M  END
>  <CHROM.1>
139.08518031,89.17263621,-79.25340797,30.39049493,106.41479638,-60.66727676
-95.37835511,105.97352192,-178.01357445,-51.04089938,61.70122857,-56.30100507
-152.94614727,1.79050761,-3.76221827,-8.78328143,3.07273874,0.67019826,-0.13898471

>  <Name>
1byj cryst

>  <RI>
0

>  <Rbt.Current_Directory>
/home/itssahil/PROJECTS/Mol_Feturizer/New_Systems/rnas/1byj

>  <Rbt.Executable>
rbdock ($Id: //depot/dev/client3/rdock/2013.1/src/exe/rbdock.cxx#4 $)

>  <Rbt.Library>
libRbt.so (2013.1, Build901 2013/11/27)

>  <Rbt.Parameter_File>
/export/apps/rDock/src/rDock_2013.1_src/data/scripts/dock_solv.prm

>  <Rbt.Receptor>
prm/blind_docking_80.prm

>  <SCORE>
-19.4111

>  <SCORE.INTER>
-23.6568

>  <SCORE.INTER.CONST>
1

>  <SCORE.INTER.POLAR>
-4.34355

>  <SCORE.INTER.ROT>
6

>  <SCORE.INTER.SOLV>
33.3113

>  <SCORE.INTER.VDW>
-19.9965

>  <SCORE.INTER.norm>
-0.763123

>  <SCORE.INTRA>
3.41404

>  <SCORE.INTRA.DIHEDRAL>
8.17569

>  <SCORE.INTRA.DIHEDRAL.0>
18.4149

>  <SCORE.INTRA.POLAR>
-0.859391

>  <SCORE.INTRA.POLAR.0>
0

>  <SCORE.INTRA.REPUL>
-0.092687

>  <SCORE.INTRA.REPUL.0>
0.092687

>  <SCORE.INTRA.SOLV>
-0.464755

>  <SCORE.INTRA.SOLV.lig_0>
-120.37

>  <SCORE.INTRA.VDW>
2.94394

>  <SCORE.INTRA.VDW.0>
-1.75542

>  <SCORE.INTRA.norm>
0.11013

>  <SCORE.RESTR>
0.831722

>  <SCORE.RESTR.CAVITY>
0.831722

>  <SCORE.RESTR.norm>
0.0268298

>  <SCORE.SYSTEM>
0

>  <SCORE.SYSTEM.CONST>
0

>  <SCORE.SYSTEM.DIHEDRAL>
0

>  <SCORE.SYSTEM.SOLV>
0

>  <SCORE.SYSTEM.norm>
0

>  <SCORE.heavy>
31

>  <SCORE.norm>
-0.626163

>  <RMSD>
14.335

$$$$
1byj cryst
 OpenBabel11021811383D
libRbt.so/2013.1/901 2013/11/27
 31 33  0  0  0  0  0  0  0  0999 V2000
   -1.9593   -2.2812   -5.7809 C   0  0  1  0  0  0  0  0  0  0  0  0
   -1.0958   -2.1123   -6.9505 O   0  0  0  0  0  0  0  0  0  0  0  0
    0.3392   -1.9497   -6.7432 C   0  0  2  0  0  0  0  0  0  0  0  0
    0.9459   -3.1796   -6.2374 O   0  0  0  0  0  0  0  0  0  0  0  0
    0.5871   -0.7606   -5.7660 C   0  0  2  0  0  0  0  0  0  0  0  0
    2.0178   -0.5187   -5.4944 N   0  3  0  0  0  0  0  0  0  0  0  0
   -0.1829   -0.9919   -4.4403 C   0  0  0  0  0  0  0  0  0  0  0  0
   -1.6824   -1.1981   -4.7020 C   0  0  0  0  0  0  0  0  0  0  0  0
   -3.4327   -2.1978   -6.2172 C   0  0  0  0  0  0  0  0  0  0  0  0
   -3.7465   -3.0025   -7.4052 N   0  3  0  0  0  0  0  0  0  0  0  0
    0.8620   -5.6415   -6.1884 C   0  0  1  0  0  0  0  0  0  0  0  0
    0.9785   -6.9391   -7.0247 C   0  0  0  0  0  0  0  0  0  0  0  0
    2.3338   -6.9787   -7.7807 C   0  0  1  0  0  0  0  0  0  0  0  0
    2.4647   -8.2542   -8.5106 N   0  3  0  0  0  0  0  0  0  0  0  0
    2.4578   -5.7513   -8.7292 C   0  0  1  0  0  0  0  0  0  0  0  0
    2.2467   -4.4181   -7.9688 C   0  0  1  0  0  0  0  0  0  0  0  0
    2.2111   -3.3926   -8.9502 O   0  0  0  0  0  0  0  0  0  0  0  0
    0.9532   -4.3671   -7.0904 C   0  0  2  0  0  0  0  0  0  0  0  0
   -0.3797   -5.6608   -5.3953 N   0  3  0  0  0  0  0  0  0  0  0  0
    3.0903   -3.6030  -11.4370 C   0  0  0  0  0  0  0  0  0  0  0  0
    4.4362   -3.2327  -12.1070 C   0  0  2  0  0  0  0  0  0  0  0  0
    4.3227   -3.5752  -13.4876 O   0  0  0  0  0  0  0  0  0  0  0  0
    5.6027   -4.0398  -11.4219 C   0  0  1  0  0  0  0  0  0  0  0  0
    5.2882   -5.5684  -11.2860 C   0  0  2  0  0  0  0  0  0  0  0  0
    3.8567   -5.8608  -10.7690 C   0  0  1  0  0  0  0  0  0  0  0  0
    3.7841   -5.6985   -9.3282 O   0  0  0  0  0  0  0  0  0  0  0  0
    2.8733   -5.0391  -11.4594 O   0  0  0  0  0  0  0  0  0  0  0  0
    6.2269   -6.2200  -10.4342 O   0  0  0  0  0  0  0  0  0  0  0  0
    6.8763   -3.8280  -12.1777 N   0  3  0  0  0  0  0  0  0  0  0  0
    8.1347   -4.1527  -11.4756 C   0  0  0  0  0  0  0  0  0  0  0  0
    4.6228   -1.6974  -12.0276 C   0  0  0  0  0  0  0  0  0  0  0  0
  1  8  1  0  0  0  0
  1  9  1  6  0  0  0
  1  2  1  0  0  0  0
  2  3  1  0  0  0  0
  3  5  1  0  0  0  0
  3  4  1  1  0  0  0
  5  7  1  0  0  0  0
  5  6  1  1  0  0  0
  7  8  1  0  0  0  0
  9 10  1  0  0  0  0
 11 12  1  0  0  0  0
 11 18  1  0  0  0  0
 11 19  1  6  0  0  0
 12 13  1  0  0  0  0
 13 15  1  0  0  0  0
 13 14  1  6  0  0  0
 15 16  1  0  0  0  0
 15 26  1  1  0  0  0
 16 18  1  0  0  0  0
 16 17  1  6  0  0  0
 18  4  1  1  0  0  0
 20 21  1  0  0  0  0
 20 27  1  0  0  0  0
 21 31  1  1  0  0  0
 21 23  1  0  0  0  0
 21 22  1  0  0  0  0
 23 24  1  0  0  0  0
 23 29  1  6  0  0  0
 24 25  1  0  0  0  0
 24 28  1  1  0  0  0
 25 27  1  0  0  0  0
 25 26  1  1  0  0  0
 29 30  1  0  0  0  0
M  CHG  5   6   1  10   1  14   1  19   1  29   1
M  END
>  <CHROM.1>
46.74039007,65.02156036,-148.23962067,-177.30434842,41.04346350,-158.99759178
-56.98199088,115.69814796,-167.14297647,170.09783113,-77.10072412,42.83488247
171.34907979,2.11193243,-3.94699727,-8.56587254,-2.97400372,-0.73430403,3.03861833

>  <Name>
1byj cryst

>  <RI>
0

>  <Rbt.Current_Directory>
/home/itssahil/PROJECTS/Mol_Feturizer/New_Systems/rnas/1byj

>  <Rbt.Executable>
rbdock ($Id: //depot/dev/client3/rdock/2013.1/src/exe/rbdock.cxx#4 $)

>  <Rbt.Library>
libRbt.so (2013.1, Build901 2013/11/27)

>  <Rbt.Parameter_File>
/export/apps/rDock/src/rDock_2013.1_src/data/scripts/dock_solv.prm

>  <Rbt.Receptor>
prm/blind_docking_80.prm

>  <SCORE>
-25.0575

>  <SCORE.INTER>
-27.8416

>  <SCORE.INTER.CONST>
1

>  <SCORE.INTER.POLAR>
-4.52114

>  <SCORE.INTER.ROT>
6

>  <SCORE.INTER.SOLV>
22.6354

>  <SCORE.INTER.VDW>
-18.6358

>  <SCORE.INTER.norm>
-0.898117

>  <SCORE.INTRA>
-2.4444

>  <SCORE.INTRA.DIHEDRAL>
-0.835139

>  <SCORE.INTRA.DIHEDRAL.0>
18.4149

>  <SCORE.INTRA.POLAR>
-0.0106587

>  <SCORE.INTRA.POLAR.0>
0

>  <SCORE.INTRA.REPUL>
-0.092687

>  <SCORE.INTRA.REPUL.0>
0.092687

>  <SCORE.INTRA.SOLV>
-2.09512

>  <SCORE.INTRA.SOLV.lig_0>
-120.37

>  <SCORE.INTRA.VDW>
-0.479592

>  <SCORE.INTRA.VDW.0>
-1.75542

>  <SCORE.INTRA.norm>
-0.0788515

>  <SCORE.RESTR>
5.22854

>  <SCORE.RESTR.CAVITY>
5.22854

>  <SCORE.RESTR.norm>
0.168663

>  <SCORE.SYSTEM>
0

>  <SCORE.SYSTEM.CONST>
0

>  <SCORE.SYSTEM.DIHEDRAL>
0

>  <SCORE.SYSTEM.SOLV>
0

>  <SCORE.SYSTEM.norm>
0

>  <SCORE.heavy>
31

>  <SCORE.norm>
-0.808306

>  <RMSD>
14.335

$$$$
1byj cryst
 OpenBabel11021811383D
libRbt.so/2013.1/901 2013/11/27
 31 33  0  0  0  0  0  0  0  0999 V2000
   -1.3259   -6.0781   -7.3179 C   0  0  1  0  0  0  0  0  0  0  0  0
   -1.1697   -4.7974   -8.0089 O   0  0  0  0  0  0  0  0  0  0  0  0
   -1.2764   -3.5662   -7.2334 C   0  0  2  0  0  0  0  0  0  0  0  0
   -0.1524   -3.4203   -6.3103 O   0  0  0  0  0  0  0  0  0  0  0  0
   -2.6343   -3.5557   -6.4676 C   0  0  2  0  0  0  0  0  0  0  0  0
   -2.8328   -2.3423   -5.6508 N   0  3  0  0  0  0  0  0  0  0  0  0
   -2.7584   -4.8259   -5.5872 C   0  0  0  0  0  0  0  0  0  0  0  0
   -2.6015   -6.0997   -6.4312 C   0  0  0  0  0  0  0  0  0  0  0  0
   -1.4097   -7.2116   -8.3553 C   0  0  0  0  0  0  0  0  0  0  0  0
   -2.4046   -6.9784   -9.4103 N   0  3  0  0  0  0  0  0  0  0  0  0
    0.7072   -1.2855   -7.1900 C   0  0  1  0  0  0  0  0  0  0  0  0
    1.9296   -0.5557   -7.7981 C   0  0  0  0  0  0  0  0  0  0  0  0
    2.4381   -1.3049   -9.0589 C   0  0  1  0  0  0  0  0  0  0  0  0
    3.5525   -0.5572   -9.6721 N   0  3  0  0  0  0  0  0  0  0  0  0
    2.8476   -2.7607   -8.6921 C   0  0  1  0  0  0  0  0  0  0  0  0
    1.6962   -3.5165   -7.9827 C   0  0  1  0  0  0  0  0  0  0  0  0
    2.2329   -4.7568   -7.5471 O   0  0  0  0  0  0  0  0  0  0  0  0
    1.0617   -2.7511   -6.7748 C   0  0  2  0  0  0  0  0  0  0  0  0
    0.1689   -0.5126   -6.0568 N   0  3  0  0  0  0  0  0  0  0  0  0
    5.2427   -5.7680   -9.8173 C   0  0  0  0  0  0  0  0  0  0  0  0
    5.5032   -6.1356  -11.2987 C   0  0  2  0  0  0  0  0  0  0  0  0
    6.8855   -5.8885  -11.5526 O   0  0  0  0  0  0  0  0  0  0  0  0
    4.5935   -5.2462  -12.2275 C   0  0  1  0  0  0  0  0  0  0  0  0
    4.6568   -3.7235  -11.8649 C   0  0  2  0  0  0  0  0  0  0  0  0
    4.5604   -3.4466  -10.3431 C   0  0  1  0  0  0  0  0  0  0  0  0
    3.1826   -3.5163   -9.8910 O   0  0  0  0  0  0  0  0  0  0  0  0
    5.4256   -4.3447   -9.5923 O   0  0  0  0  0  0  0  0  0  0  0  0
    3.6360   -2.9859  -12.5322 O   0  0  0  0  0  0  0  0  0  0  0  0
    4.9672   -5.4637  -13.6598 N   0  3  0  0  0  0  0  0  0  0  0  0
    4.3659   -6.6287  -14.3403 C   0  0  0  0  0  0  0  0  0  0  0  0
    5.2664   -7.6551  -11.4807 C   0  0  0  0  0  0  0  0  0  0  0  0
  1  8  1  0  0  0  0
  1  9  1  6  0  0  0
  1  2  1  0  0  0  0
  2  3  1  0  0  0  0
  3  5  1  0  0  0  0
  3  4  1  1  0  0  0
  5  7  1  0  0  0  0
  5  6  1  1  0  0  0
  7  8  1  0  0  0  0
  9 10  1  0  0  0  0
 11 12  1  0  0  0  0
 11 18  1  0  0  0  0
 11 19  1  1  0  0  0
 12 13  1  0  0  0  0
 13 15  1  0  0  0  0
 13 14  1  1  0  0  0
 15 16  1  0  0  0  0
 15 26  1  6  0  0  0
 16 18  1  0  0  0  0
 16 17  1  1  0  0  0
 18  4  1  6  0  0  0
 20 21  1  0  0  0  0
 20 27  1  0  0  0  0
 21 31  1  6  0  0  0
 21 23  1  0  0  0  0
 21 22  1  0  0  0  0
 23 24  1  0  0  0  0
 23 29  1  6  0  0  0
 24 25  1  0  0  0  0
 24 28  1  6  0  0  0
 25 27  1  0  0  0  0
 25 26  1  1  0  0  0
 29 30  1  0  0  0  0
M  CHG  5   6   1  10   1  14   1  19   1  29   1
M  END
>  <CHROM.1>
-51.25228493,88.65178387,60.66085675,30.54289969,-75.52581059,-36.44945065
-100.60084137,88.16171666,-57.34790808,-59.33440624,-155.23477773,78.59139242
-154.81820488,1.82450125,-4.10659469,-9.05898271,2.71650110,0.55141713,0.45367580

>  <Name>
1byj cryst

>  <RI>
0

>  <Rbt.Current_Directory>
/home/itssahil/PROJECTS/Mol_Feturizer/New_Systems/rnas/1byj

>  <Rbt.Executable>
rbdock ($Id: //depot/dev/client3/rdock/2013.1/src/exe/rbdock.cxx#4 $)

>  <Rbt.Library>
libRbt.so (2013.1, Build901 2013/11/27)

>  <Rbt.Parameter_File>
/export/apps/rDock/src/rDock_2013.1_src/data/scripts/dock_solv.prm

>  <Rbt.Receptor>
prm/blind_docking_80.prm

>  <SCORE>
-16.2932

>  <SCORE.INTER>
-25.4422

>  <SCORE.INTER.CONST>
1

>  <SCORE.INTER.POLAR>
-4.80105

>  <SCORE.INTER.ROT>
6

>  <SCORE.INTER.SOLV>
20.9506

>  <SCORE.INTER.VDW>
-15.5415

>  <SCORE.INTER.norm>
-0.820717

>  <SCORE.INTRA>
0.611685

>  <SCORE.INTRA.DIHEDRAL>
0.475689

>  <SCORE.INTRA.DIHEDRAL.0>
18.4149

>  <SCORE.INTRA.POLAR>
-0.19747

>  <SCORE.INTRA.POLAR.0>
0

>  <SCORE.INTRA.REPUL>
-0.092687

>  <SCORE.INTRA.REPUL.0>
0.092687

>  <SCORE.INTRA.SOLV>
2.21888

>  <SCORE.INTRA.SOLV.lig_0>
-120.37

>  <SCORE.INTRA.VDW>
0.399234

>  <SCORE.INTRA.VDW.0>
-1.75542

>  <SCORE.INTRA.norm>
0.0197318

>  <SCORE.RESTR>
8.5373

>  <SCORE.RESTR.CAVITY>
8.5373

>  <SCORE.RESTR.norm>
0.275397

>  <SCORE.SYSTEM>
0

>  <SCORE.SYSTEM.CONST>
0

>  <SCORE.SYSTEM.DIHEDRAL>
0

>  <SCORE.SYSTEM.SOLV>
0

>  <SCORE.SYSTEM.norm>
0

>  <SCORE.heavy>
31

>  <SCORE.norm>
-0.525588

>  <RMSD>
14.338

$$$$
1byj cryst
 OpenBabel11021811383D
libRbt.so/2013.1/901 2013/11/27
 31 33  0  0  0  0  0  0  0  0999 V2000
   -3.1078   -2.2730   -5.6239 C   0  0  1  0  0  0  0  0  0  0  0  0
   -2.0382   -2.0104   -6.5878 O   0  0  0  0  0  0  0  0  0  0  0  0
   -0.6739   -1.8559   -6.0944 C   0  0  2  0  0  0  0  0  0  0  0  0
   -0.1514   -3.1173   -5.5724 O   0  0  0  0  0  0  0  0  0  0  0  0
   -0.6438   -0.7434   -5.0026 C   0  0  2  0  0  0  0  0  0  0  0  0
    0.7022   -0.5147   -4.4413 N   0  3  0  0  0  0  0  0  0  0  0  0
   -1.6506   -1.0796   -3.8724 C   0  0  0  0  0  0  0  0  0  0  0  0
   -3.0668   -1.2738   -4.4349 C   0  0  0  0  0  0  0  0  0  0  0  0
   -4.4704   -2.1650   -6.3307 C   0  0  0  0  0  0  0  0  0  0  0  0
   -4.5366   -2.8898   -7.6064 N   0  3  0  0  0  0  0  0  0  0  0  0
    0.0366   -5.5723   -5.6619 C   0  0  1  0  0  0  0  0  0  0  0  0
    0.3281   -6.7977   -6.5619 C   0  0  0  0  0  0  0  0  0  0  0  0
    1.7071   -6.6451   -7.2581 C   0  0  1  0  0  0  0  0  0  0  0  0
    2.0064   -7.8534   -8.0502 N   0  3  0  0  0  0  0  0  0  0  0  0
    1.7301   -5.3575   -8.1317 C   0  0  1  0  0  0  0  0  0  0  0  0
    1.3437   -4.1025   -7.3097 C   0  0  1  0  0  0  0  0  0  0  0  0
    1.2318   -3.0306   -8.2341 O   0  0  0  0  0  0  0  0  0  0  0  0
    0.0200   -4.2444   -6.4879 C   0  0  2  0  0  0  0  0  0  0  0  0
   -1.2246   -5.7733   -4.9268 N   0  3  0  0  0  0  0  0  0  0  0  0
    2.9399   -3.4379  -11.2084 C   0  0  0  0  0  0  0  0  0  0  0  0
    4.4009   -3.3458  -11.7128 C   0  0  2  0  0  0  0  0  0  0  0  0
    4.4336   -3.9456  -13.0072 O   0  0  0  0  0  0  0  0  0  0  0  0
    5.3494   -4.1111  -10.7147 C   0  0  1  0  0  0  0  0  0  0  0  0
    4.8253   -5.5421  -10.3520 C   0  0  2  0  0  0  0  0  0  0  0  0
    3.3111   -5.5804  -10.0240 C   0  0  1  0  0  0  0  0  0  0  0  0
    3.0642   -5.1256   -8.6676 O   0  0  0  0  0  0  0  0  0  0  0  0
    2.5450   -4.8202  -11.0008 O   0  0  0  0  0  0  0  0  0  0  0  0
    5.5474   -6.0997   -9.2571 O   0  0  0  0  0  0  0  0  0  0  0  0
    6.7308   -4.1836  -11.2847 N   0  3  0  0  0  0  0  0  0  0  0  0
    6.9794   -5.2160  -12.3115 C   0  0  0  0  0  0  0  0  0  0  0  0
    4.7709   -1.8524  -11.8882 C   0  0  0  0  0  0  0  0  0  0  0  0
  1  8  1  0  0  0  0
  1  9  1  6  0  0  0
  1  2  1  0  0  0  0
  2  3  1  0  0  0  0
  3  5  1  0  0  0  0
  3  4  1  1  0  0  0
  5  7  1  0  0  0  0
  5  6  1  1  0  0  0
  7  8  1  0  0  0  0
  9 10  1  0  0  0  0
 11 12  1  0  0  0  0
 11 18  1  0  0  0  0
 11 19  1  6  0  0  0
 12 13  1  0  0  0  0
 13 15  1  0  0  0  0
 13 14  1  6  0  0  0
 15 16  1  0  0  0  0
 15 26  1  1  0  0  0
 16 18  1  0  0  0  0
 16 17  1  6  0  0  0
 18  4  1  1  0  0  0
 20 21  1  0  0  0  0
 20 27  1  0  0  0  0
 21 31  1  6  0  0  0
 21 23  1  0  0  0  0
 21 22  1  0  0  0  0
 23 24  1  0  0  0  0
 23 29  1  6  0  0  0
 24 25  1  0  0  0  0
 24 28  1  1  0  0  0
 25 27  1  0  0  0  0
 25 26  1  1  0  0  0
 29 30  1  0  0  0  0
M  CHG  5   6   1  10   1  14   1  19   1  29   1
M  END
>  <CHROM.1>
47.32848347,63.83143460,-158.07874707,60.55944398,169.58770071,-168.74132535
-47.71112653,97.52901925,-61.16004478,158.53387516,41.59406634,110.24642532
-168.11171967,1.38764589,-3.90121977,-8.07440126,-3.07874936,-0.70653337
2.86465855

>  <Name>
1byj cryst

>  <RI>
0

>  <Rbt.Current_Directory>
/home/itssahil/PROJECTS/Mol_Feturizer/New_Systems/rnas/1byj

>  <Rbt.Executable>
rbdock ($Id: //depot/dev/client3/rdock/2013.1/src/exe/rbdock.cxx#4 $)

>  <Rbt.Library>
libRbt.so (2013.1, Build901 2013/11/27)

>  <Rbt.Parameter_File>
/export/apps/rDock/src/rDock_2013.1_src/data/scripts/dock_solv.prm

>  <Rbt.Receptor>
prm/blind_docking_80.prm

>  <SCORE>
-23.5768

>  <SCORE.INTER>
-26.3822

>  <SCORE.INTER.CONST>
1

>  <SCORE.INTER.POLAR>
-4.71509

>  <SCORE.INTER.ROT>
6

>  <SCORE.INTER.SOLV>
25.3663

>  <SCORE.INTER.VDW>
-17.9266

>  <SCORE.INTER.norm>
-0.851038

>  <SCORE.INTRA>
-2.23483

>  <SCORE.INTRA.DIHEDRAL>
0.579896

>  <SCORE.INTRA.DIHEDRAL.0>
18.4149

>  <SCORE.INTRA.POLAR>
-0.283624

>  <SCORE.INTRA.POLAR.0>
0

>  <SCORE.INTRA.REPUL>
-0.088791

>  <SCORE.INTRA.REPUL.0>
0.092687

>  <SCORE.INTRA.SOLV>
-3.92376

>  <SCORE.INTRA.SOLV.lig_0>
-120.37

>  <SCORE.INTRA.VDW>
0.845381

>  <SCORE.INTRA.VDW.0>
-1.75542

>  <SCORE.INTRA.norm>
-0.0720912

>  <SCORE.RESTR>
5.04016

>  <SCORE.RESTR.CAVITY>
5.04016

>  <SCORE.RESTR.norm>
0.162586

>  <SCORE.SYSTEM>
0

>  <SCORE.SYSTEM.CONST>
0

>  <SCORE.SYSTEM.DIHEDRAL>
0

>  <SCORE.SYSTEM.SOLV>
0

>  <SCORE.SYSTEM.norm>
0

>  <SCORE.heavy>
31

>  <SCORE.norm>
-0.760543

>  <RMSD>
14.339

$$$$
1byj cryst
 OpenBabel11021811383D
libRbt.so/2013.1/901 2013/11/27
 31 33  0  0  0  0  0  0  0  0999 V2000
   -2.5527   -2.7509   -5.9753 C   0  0  1  0  0  0  0  0  0  0  0  0
   -1.2186   -2.3806   -5.5008 O   0  0  0  0  0  0  0  0  0  0  0  0
   -0.0815   -3.2046   -5.8967 C   0  0  2  0  0  0  0  0  0  0  0  0
    0.1882   -3.0858   -7.3284 O   0  0  0  0  0  0  0  0  0  0  0  0
   -0.3567   -4.6870   -5.5004 C   0  0  2  0  0  0  0  0  0  0  0  0
    0.7444   -5.6008   -5.8632 N   0  3  0  0  0  0  0  0  0  0  0  0
   -1.6884   -5.1682   -6.1319 C   0  0  0  0  0  0  0  0  0  0  0  0
   -2.8540   -4.2543   -5.7249 C   0  0  0  0  0  0  0  0  0  0  0  0
   -3.6078   -1.8947   -5.2528 C   0  0  0  0  0  0  0  0  0  0  0  0
   -4.9582   -2.0151   -5.8177 N   0  3  0  0  0  0  0  0  0  0  0  0
    1.0950   -1.1682   -8.5819 C   0  0  1  0  0  0  0  0  0  0  0  0
    2.3702   -0.5149   -9.1680 C   0  0  0  0  0  0  0  0  0  0  0  0
    3.1046   -1.5060  -10.1106 C   0  0  1  0  0  0  0  0  0  0  0  0
    4.2735   -0.8451  -10.7220 N   0  3  0  0  0  0  0  0  0  0  0  0
    3.5057   -2.7926   -9.3325 C   0  0  1  0  0  0  0  0  0  0  0  0
    2.2851   -3.4408   -8.6325 C   0  0  1  0  0  0  0  0  0  0  0  0
    2.7922   -4.4925   -7.8244 O   0  0  0  0  0  0  0  0  0  0  0  0
    1.4345   -2.4569   -7.7633 C   0  0  2  0  0  0  0  0  0  0  0  0
    0.3510   -0.1876   -7.7718 N   0  3  0  0  0  0  0  0  0  0  0  0
    5.5951   -6.4242  -10.1268 C   0  0  0  0  0  0  0  0  0  0  0  0
    6.2864   -6.5567  -11.5060 C   0  0  2  0  0  0  0  0  0  0  0  0
    7.6926   -6.5891  -11.2659 O   0  0  0  0  0  0  0  0  0  0  0  0
    5.8984   -5.3246  -12.4075 C   0  0  1  0  0  0  0  0  0  0  0  0
    6.0686   -3.9527  -11.6706 C   0  0  2  0  0  0  0  0  0  0  0  0
    5.5016   -3.9520  -10.2282 C   0  0  1  0  0  0  0  0  0  0  0  0
    4.0591   -3.7883  -10.2397 O   0  0  0  0  0  0  0  0  0  0  0  0
    5.9078   -5.1488   -9.5060 O   0  0  0  0  0  0  0  0  0  0  0  0
    5.4648   -2.8893  -12.4027 O   0  0  0  0  0  0  0  0  0  0  0  0
    6.7009   -5.3488  -13.6699 N   0  3  0  0  0  0  0  0  0  0  0  0
    6.1107   -4.6896  -14.8527 C   0  0  0  0  0  0  0  0  0  0  0  0
    5.8940   -7.9197  -12.1275 C   0  0  0  0  0  0  0  0  0  0  0  0
  1  8  1  0  0  0  0
  1  9  1  1  0  0  0
  1  2  1  0  0  0  0
  2  3  1  0  0  0  0
  3  5  1  0  0  0  0
  3  4  1  6  0  0  0
  5  7  1  0  0  0  0
  5  6  1  6  0  0  0
  7  8  1  0  0  0  0
  9 10  1  0  0  0  0
 11 12  1  0  0  0  0
 11 18  1  0  0  0  0
 11 19  1  1  0  0  0
 12 13  1  0  0  0  0
 13 15  1  0  0  0  0
 13 14  1  1  0  0  0
 15 16  1  0  0  0  0
 15 26  1  6  0  0  0
 16 18  1  0  0  0  0
 16 17  1  1  0  0  0
 18  4  1  6  0  0  0
 20 21  1  0  0  0  0
 20 27  1  0  0  0  0
 21 31  1  6  0  0  0
 21 23  1  0  0  0  0
 21 22  1  0  0  0  0
 23 24  1  0  0  0  0
 23 29  1  6  0  0  0
 24 25  1  0  0  0  0
 24 28  1  6  0  0  0
 25 27  1  0  0  0  0
 25 26  1  6  0  0  0
 29 30  1  0  0  0  0
M  CHG  5   6   1  10   1  14   1  19   1  29   1
M  END
>  <CHROM.1>
169.86633755,113.58661111,-117.51569278,121.45125216,-46.99380828,64.04824907
45.94354158,103.48996797,-60.48251078,-164.37341068,-85.14874370,-60.04851508
-132.04071865,2.46758309,-3.70602282,-9.01504707,3.10566759,0.67177402,-0.31188358

>  <Name>
1byj cryst

>  <RI>
0

>  <Rbt.Current_Directory>
/home/itssahil/PROJECTS/Mol_Feturizer/New_Systems/rnas/1byj

>  <Rbt.Executable>
rbdock ($Id: //depot/dev/client3/rdock/2013.1/src/exe/rbdock.cxx#4 $)

>  <Rbt.Library>
libRbt.so (2013.1, Build901 2013/11/27)

>  <Rbt.Parameter_File>
/export/apps/rDock/src/rDock_2013.1_src/data/scripts/dock_solv.prm

>  <Rbt.Receptor>
prm/blind_docking_20.prm

>  <SCORE>
5.98485

>  <SCORE.INTER>
-4.39081

>  <SCORE.INTER.CONST>
1

>  <SCORE.INTER.POLAR>
-6.1408

>  <SCORE.INTER.ROT>
6

>  <SCORE.INTER.SOLV>
30.5002

>  <SCORE.INTER.VDW>
-0.224613

>  <SCORE.INTER.norm>
-0.141639

>  <SCORE.INTRA>
0.0711326

>  <SCORE.INTRA.DIHEDRAL>
15.9484

>  <SCORE.INTRA.DIHEDRAL.0>
18.4149

>  <SCORE.INTRA.POLAR>
-2.33674

>  <SCORE.INTRA.POLAR.0>
0

>  <SCORE.INTRA.REPUL>
-0.092687

>  <SCORE.INTRA.REPUL.0>
0.092687

>  <SCORE.INTRA.SOLV>
2.45727

>  <SCORE.INTRA.SOLV.lig_0>
-120.37

>  <SCORE.INTRA.VDW>
-0.723331

>  <SCORE.INTRA.VDW.0>
-1.75542

>  <SCORE.INTRA.norm>
0.0022946

>  <SCORE.RESTR>
10.3045

>  <SCORE.RESTR.CAVITY>
10.3045

>  <SCORE.RESTR.norm>
0.332404

>  <SCORE.SYSTEM>
0

>  <SCORE.SYSTEM.CONST>
0

>  <SCORE.SYSTEM.DIHEDRAL>
0

>  <SCORE.SYSTEM.SOLV>
0

>  <SCORE.SYSTEM.norm>
0

>  <SCORE.heavy>
31

>  <SCORE.norm>
0.19306

>  <RMSD>
14.343

$$$$
1byj cryst
 OpenBabel11021811383D
libRbt.so/2013.1/901 2013/11/27
 31 33  0  0  0  0  0  0  0  0999 V2000
   -5.8935   -1.5490   -7.0850 C   0  0  1  0  0  0  0  0  0  0  0  0
   -7.1452   -2.1576   -6.6320 O   0  0  0  0  0  0  0  0  0  0  0  0
   -7.4500   -3.5226   -7.0472 C   0  0  2  0  0  0  0  0  0  0  0  0
   -6.5387   -4.4828   -6.4273 O   0  0  0  0  0  0  0  0  0  0  0  0
   -7.3865   -3.6146   -8.6021 C   0  0  2  0  0  0  0  0  0  0  0  0
   -7.6823   -4.9656   -9.1181 N   0  3  0  0  0  0  0  0  0  0  0  0
   -6.0016   -3.1344   -9.1074 C   0  0  0  0  0  0  0  0  0  0  0  0
   -5.6991   -1.7102   -8.6180 C   0  0  0  0  0  0  0  0  0  0  0  0
   -5.8947   -0.0521   -6.7283 C   0  0  0  0  0  0  0  0  0  0  0  0
   -6.5451    0.2523   -5.4470 N   0  3  0  0  0  0  0  0  0  0  0  0
   -5.8272   -2.7837   -4.7910 C   0  0  1  0  0  0  0  0  0  0  0  0
   -4.6223   -2.1351   -4.0671 C   0  0  0  0  0  0  0  0  0  0  0  0
   -3.5894   -1.6060   -5.0981 C   0  0  1  0  0  0  0  0  0  0  0  0
   -2.4856   -0.9221   -4.3975 N   0  3  0  0  0  0  0  0  0  0  0  0
   -3.0761   -2.7710   -5.9930 C   0  0  1  0  0  0  0  0  0  0  0  0
   -4.2454   -3.5306   -6.6681 C   0  0  1  0  0  0  0  0  0  0  0  0
   -3.6767   -4.6612   -7.3120 O   0  0  0  0  0  0  0  0  0  0  0  0
   -5.3794   -3.9827   -5.6899 C   0  0  2  0  0  0  0  0  0  0  0  0
   -6.8483   -3.1897   -3.8091 N   0  3  0  0  0  0  0  0  0  0  0  0
   -0.0654   -1.5367   -9.0921 C   0  0  0  0  0  0  0  0  0  0  0  0
    1.1666   -1.1179   -8.2528 C   0  0  2  0  0  0  0  0  0  0  0  0
    2.2193   -2.0252   -8.5765 O   0  0  0  0  0  0  0  0  0  0  0  0
    0.8086   -1.1960   -6.7208 C   0  0  1  0  0  0  0  0  0  0  0  0
    0.1202   -2.5460   -6.3238 C   0  0  2  0  0  0  0  0  0  0  0  0
   -0.9909   -2.9861   -7.3105 C   0  0  1  0  0  0  0  0  0  0  0  0
   -2.2234   -2.2616   -7.0580 O   0  0  0  0  0  0  0  0  0  0  0  0
   -0.5503   -2.8458   -8.6908 O   0  0  0  0  0  0  0  0  0  0  0  0
   -0.4291   -2.4846   -5.0102 O   0  0  0  0  0  0  0  0  0  0  0  0
    2.0399   -0.9704   -5.9015 N   0  3  0  0  0  0  0  0  0  0  0  0
    3.0485   -2.0497   -5.8953 C   0  0  0  0  0  0  0  0  0  0  0  0
    1.6185    0.2920   -8.7065 C   0  0  0  0  0  0  0  0  0  0  0  0
  1  8  1  0  0  0  0
  1  9  1  6  0  0  0
  1  2  1  0  0  0  0
  2  3  1  0  0  0  0
  3  5  1  0  0  0  0
  3  4  1  1  0  0  0
  5  7  1  0  0  0  0
  5  6  1  1  0  0  0
  7  8  1  0  0  0  0
  9 10  1  0  0  0  0
 11 12  1  0  0  0  0
 11 18  1  0  0  0  0
 11 19  1  1  0  0  0
 12 13  1  0  0  0  0
 13 15  1  0  0  0  0
 13 14  1  1  0  0  0
 15 16  1  0  0  0  0
 15 26  1  6  0  0  0
 16 18  1  0  0  0  0
 16 17  1  1  0  0  0
 18  4  1  6  0  0  0
 20 21  1  0  0  0  0
 20 27  1  0  0  0  0
 21 31  1  6  0  0  0
 21 23  1  0  0  0  0
 21 22  1  0  0  0  0
 23 24  1  0  0  0  0
 23 29  1  1  0  0  0
 24 25  1  0  0  0  0
 24 28  1  1  0  0  0
 25 27  1  0  0  0  0
 25 26  1  6  0  0  0
 29 30  1  0  0  0  0
M  CHG  5   6   1  10   1  14   1  19   1  29   1
M  END
>  <CHROM.1>
36.14593541,-9.15534080,43.99627806,-49.98917660,102.20418766,60.90218655
-152.63301407,135.41437100,-174.59382772,-59.76310876,49.74282140,-170.51373496
-82.65748908,-3.19560888,-2.33914805,-6.75628872,-3.13601040,0.18780055,1.21449618

>  <Name>
1byj cryst

>  <RI>
0

>  <Rbt.Current_Directory>
/home/itssahil/PROJECTS/Mol_Feturizer/New_Systems/rnas/1byj

>  <Rbt.Executable>
rbdock ($Id: //depot/dev/client3/rdock/2013.1/src/exe/rbdock.cxx#4 $)

>  <Rbt.Library>
libRbt.so (2013.1, Build901 2013/11/27)

>  <Rbt.Parameter_File>
/export/apps/rDock/src/rDock_2013.1_src/data/scripts/dock_solv.prm

>  <Rbt.Receptor>
prm/blind_docking_40.prm

>  <SCORE>
3.32833

>  <SCORE.INTER>
-15.3137

>  <SCORE.INTER.CONST>
1

>  <SCORE.INTER.POLAR>
-1.54011

>  <SCORE.INTER.ROT>
6

>  <SCORE.INTER.SOLV>
16.4176

>  <SCORE.INTER.VDW>
-18.1479

>  <SCORE.INTER.norm>
-0.49399

>  <SCORE.INTRA>
14.0143

>  <SCORE.INTRA.DIHEDRAL>
5.59769

>  <SCORE.INTRA.DIHEDRAL.0>
18.4149

>  <SCORE.INTRA.POLAR>
-1.12267

>  <SCORE.INTRA.POLAR.0>
0

>  <SCORE.INTRA.REPUL>
-0.092687

>  <SCORE.INTRA.REPUL.0>
0.092687

>  <SCORE.INTRA.SOLV>
5.40815

>  <SCORE.INTRA.SOLV.lig_0>
-120.37

>  <SCORE.INTRA.VDW>
12.7919

>  <SCORE.INTRA.VDW.0>
-1.75542

>  <SCORE.INTRA.norm>
0.452075

>  <SCORE.RESTR>
4.62768

>  <SCORE.RESTR.CAVITY>
4.62768

>  <SCORE.RESTR.norm>
0.14928

>  <SCORE.SYSTEM>
0

>  <SCORE.SYSTEM.CONST>
0

>  <SCORE.SYSTEM.DIHEDRAL>
0

>  <SCORE.SYSTEM.SOLV>
0

>  <SCORE.SYSTEM.norm>
0

>  <SCORE.heavy>
31

>  <SCORE.norm>
0.107366

>  <RMSD>
14.350

$$$$
1byj cryst
 OpenBabel11021811383D
libRbt.so/2013.1/901 2013/11/27
 31 33  0  0  0  0  0  0  0  0999 V2000
   -2.2740   -3.4805   -6.2602 C   0  0  1  0  0  0  0  0  0  0  0  0
   -1.2455   -2.4882   -5.9443 O   0  0  0  0  0  0  0  0  0  0  0  0
    0.1566   -2.8831   -6.0272 C   0  0  2  0  0  0  0  0  0  0  0  0
    0.5570   -3.1355   -7.4102 O   0  0  0  0  0  0  0  0  0  0  0  0
    0.3907   -4.1422   -5.1383 C   0  0  2  0  0  0  0  0  0  0  0  0
    1.7879   -4.6179   -5.1588 N   0  3  0  0  0  0  0  0  0  0  0  0
   -0.5737   -5.2798   -5.5626 C   0  0  0  0  0  0  0  0  0  0  0  0
   -2.0364   -4.8148   -5.5007 C   0  0  0  0  0  0  0  0  0  0  0  0
   -3.6568   -2.9209   -5.8825 C   0  0  0  0  0  0  0  0  0  0  0  0
   -3.6325   -1.5156   -5.4562 N   0  3  0  0  0  0  0  0  0  0  0  0
    1.3591   -1.2562   -8.7869 C   0  0  1  0  0  0  0  0  0  0  0  0
    2.5912   -0.5980   -9.4540 C   0  0  0  0  0  0  0  0  0  0  0  0
    3.3155   -1.6128  -10.3789 C   0  0  1  0  0  0  0  0  0  0  0  0
    4.4402   -0.9511  -11.0673 N   0  3  0  0  0  0  0  0  0  0  0  0
    3.7833   -2.8501   -9.5592 C   0  0  1  0  0  0  0  0  0  0  0  0
    2.6100   -3.4965   -8.7808 C   0  0  1  0  0  0  0  0  0  0  0  0
    3.1780   -4.4950   -7.9463 O   0  0  0  0  0  0  0  0  0  0  0  0
    1.7669   -2.4953   -7.9240 C   0  0  2  0  0  0  0  0  0  0  0  0
    0.6203   -0.2583   -7.9933 N   0  3  0  0  0  0  0  0  0  0  0  0
    5.6393   -6.6183  -10.6921 C   0  0  0  0  0  0  0  0  0  0  0  0
    6.4986   -6.5476  -11.9784 C   0  0  2  0  0  0  0  0  0  0  0  0
    7.8536   -6.7641  -11.5869 O   0  0  0  0  0  0  0  0  0  0  0  0
    6.3261   -5.1318  -12.6470 C   0  0  1  0  0  0  0  0  0  0  0  0
    6.4948   -3.9526  -11.6296 C   0  0  2  0  0  0  0  0  0  0  0  0
    5.7404   -4.1764  -10.2944 C   0  0  1  0  0  0  0  0  0  0  0  0
    4.3283   -3.8728  -10.4411 O   0  0  0  0  0  0  0  0  0  0  0  0
    5.9576   -5.5247   -9.7906 O   0  0  0  0  0  0  0  0  0  0  0  0
    6.0740   -2.7133  -12.1935 O   0  0  0  0  0  0  0  0  0  0  0  0
    7.2874   -4.9891  -13.7845 N   0  3  0  0  0  0  0  0  0  0  0  0
    6.8206   -5.4263  -15.1160 C   0  0  0  0  0  0  0  0  0  0  0  0
    6.0954   -7.7187  -12.9079 C   0  0  0  0  0  0  0  0  0  0  0  0
  1  8  1  0  0  0  0
  1  9  1  1  0  0  0
  1  2  1  0  0  0  0
  2  3  1  0  0  0  0
  3  5  1  0  0  0  0
  3  4  1  6  0  0  0
  5  7  1  0  0  0  0
  5  6  1  6  0  0  0
  7  8  1  0  0  0  0
  9 10  1  0  0  0  0
 11 12  1  0  0  0  0
 11 18  1  0  0  0  0
 11 19  1  1  0  0  0
 12 13  1  0  0  0  0
 13 15  1  0  0  0  0
 13 14  1  1  0  0  0
 15 16  1  0  0  0  0
 15 26  1  6  0  0  0
 16 18  1  0  0  0  0
 16 17  1  1  0  0  0
 18  4  1  6  0  0  0
 20 21  1  0  0  0  0
 20 27  1  0  0  0  0
 21 31  1  6  0  0  0
 21 23  1  0  0  0  0
 21 22  1  0  0  0  0
 23 24  1  0  0  0  0
 23 29  1  6  0  0  0
 24 25  1  0  0  0  0
 24 28  1  6  0  0  0
 25 27  1  0  0  0  0
 25 26  1  6  0  0  0
 29 30  1  0  0  0  0
M  CHG  5   6   1  10   1  14   1  19   1  29   1
M  END
>  <CHROM.1>
6.53126724,129.69899063,-100.90155927,-171.71510830,145.17539989,-50.15073880
158.32885555,115.02471036,-68.13792765,57.28774738,-149.08497033,-65.58431517
-122.00755070,2.87157383,-3.74848975,-9.14542812,-3.13432815,0.71274355,-0.36389773

>  <Name>
1byj cryst

>  <RI>
0

>  <Rbt.Current_Directory>
/home/itssahil/PROJECTS/Mol_Feturizer/New_Systems/rnas/1byj

>  <Rbt.Executable>
rbdock ($Id: //depot/dev/client3/rdock/2013.1/src/exe/rbdock.cxx#4 $)

>  <Rbt.Library>
libRbt.so (2013.1, Build901 2013/11/27)

>  <Rbt.Parameter_File>
/export/apps/rDock/src/rDock_2013.1_src/data/scripts/dock_solv.prm

>  <Rbt.Receptor>
prm/blind_docking_40.prm

>  <SCORE>
-8.16207

>  <SCORE.INTER>
-16.9149

>  <SCORE.INTER.CONST>
1

>  <SCORE.INTER.POLAR>
-6.55959

>  <SCORE.INTER.ROT>
6

>  <SCORE.INTER.SOLV>
38.0375

>  <SCORE.INTER.VDW>
-9.69047

>  <SCORE.INTER.norm>
-0.545643

>  <SCORE.INTRA>
0.799474

>  <SCORE.INTRA.DIHEDRAL>
19.3743

>  <SCORE.INTRA.DIHEDRAL.0>
18.4149

>  <SCORE.INTRA.POLAR>
-2.61601

>  <SCORE.INTRA.POLAR.0>
0

>  <SCORE.INTRA.REPUL>
-0.092687

>  <SCORE.INTRA.REPUL.0>
0.092687

>  <SCORE.INTRA.SOLV>
3.30205

>  <SCORE.INTRA.SOLV.lig_0>
-120.37

>  <SCORE.INTRA.VDW>
-1.18083

>  <SCORE.INTRA.VDW.0>
-1.75542

>  <SCORE.INTRA.norm>
0.0257895

>  <SCORE.RESTR>
7.9534

>  <SCORE.RESTR.CAVITY>
7.9534

>  <SCORE.RESTR.norm>
0.256561

>  <SCORE.SYSTEM>
0

>  <SCORE.SYSTEM.CONST>
0

>  <SCORE.SYSTEM.DIHEDRAL>
0

>  <SCORE.SYSTEM.SOLV>
0

>  <SCORE.SYSTEM.norm>
0

>  <SCORE.heavy>
31

>  <SCORE.norm>
-0.263292

>  <RMSD>
14.371

$$$$
1byj cryst
 OpenBabel11021811383D
libRbt.so/2013.1/901 2013/11/27
 31 33  0  0  0  0  0  0  0  0999 V2000
   -2.9325   -2.3862   -5.6322 C   0  0  1  0  0  0  0  0  0  0  0  0
   -1.9086   -2.0623   -6.6267 O   0  0  0  0  0  0  0  0  0  0  0  0
   -0.5424   -1.8254   -6.1728 C   0  0  2  0  0  0  0  0  0  0  0  0
    0.0694   -3.0522   -5.6654 O   0  0  0  0  0  0  0  0  0  0  0  0
   -0.5476   -0.7107   -5.0830 C   0  0  2  0  0  0  0  0  0  0  0  0
    0.7979   -0.4007   -4.5607 N   0  3  0  0  0  0  0  0  0  0  0  0
   -1.4996   -1.1039   -3.9241 C   0  0  0  0  0  0  0  0  0  0  0  0
   -2.9172   -1.3837   -4.4454 C   0  0  0  0  0  0  0  0  0  0  0  0
   -4.3189   -2.3614   -6.2996 C   0  0  0  0  0  0  0  0  0  0  0  0
   -4.3578   -3.0193   -7.6122 N   0  3  0  0  0  0  0  0  0  0  0  0
    0.1602   -5.5144   -5.6736 C   0  0  1  0  0  0  0  0  0  0  0  0
    0.3623   -6.7809   -6.5406 C   0  0  0  0  0  0  0  0  0  0  0  0
    1.7116   -6.7070   -7.3046 C   0  0  1  0  0  0  0  0  0  0  0  0
    1.9273   -7.9529   -8.0648 N   0  3  0  0  0  0  0  0  0  0  0  0
    1.7418   -5.4524   -8.2248 C   0  0  1  0  0  0  0  0  0  0  0  0
    1.4423   -4.1553   -7.4323 C   0  0  1  0  0  0  0  0  0  0  0  0
    1.3273   -3.1127   -8.3892 O   0  0  0  0  0  0  0  0  0  0  0  0
    0.1546   -4.2163   -6.5460 C   0  0  2  0  0  0  0  0  0  0  0  0
   -1.0715   -5.6398   -4.8745 N   0  3  0  0  0  0  0  0  0  0  0  0
    2.8501   -3.4555  -11.2594 C   0  0  0  0  0  0  0  0  0  0  0  0
    4.2763   -3.4066  -11.8603 C   0  0  2  0  0  0  0  0  0  0  0  0
    4.1889   -3.9311  -13.1845 O   0  0  0  0  0  0  0  0  0  0  0  0
    5.2483   -4.2744  -10.9752 C   0  0  1  0  0  0  0  0  0  0  0  0
    4.6746   -5.6965  -10.6547 C   0  0  2  0  0  0  0  0  0  0  0  0
    3.1864   -5.6789  -10.2228 C   0  0  1  0  0  0  0  0  0  0  0  0
    3.0568   -5.2920   -8.8295 O   0  0  0  0  0  0  0  0  0  0  0  0
    2.3972   -4.8264  -11.0999 O   0  0  0  0  0  0  0  0  0  0  0  0
    5.4388   -6.3516   -9.6457 O   0  0  0  0  0  0  0  0  0  0  0  0
    6.5820   -4.3818  -11.6447 N   0  3  0  0  0  0  0  0  0  0  0  0
    7.4076   -5.5599  -11.3098 C   0  0  0  0  0  0  0  0  0  0  0  0
    4.7126   -1.9256  -11.9799 C   0  0  0  0  0  0  0  0  0  0  0  0
  1  8  1  0  0  0  0
  1  9  1  6  0  0  0
  1  2  1  0  0  0  0
  2  3  1  0  0  0  0
  3  5  1  0  0  0  0
  3  4  1  1  0  0  0
  5  7  1  0  0  0  0
  5  6  1  1  0  0  0
  7  8  1  0  0  0  0
  9 10  1  0  0  0  0
 11 12  1  0  0  0  0
 11 18  1  0  0  0  0
 11 19  1  6  0  0  0
 12 13  1  0  0  0  0
 13 15  1  0  0  0  0
 13 14  1  6  0  0  0
 15 16  1  0  0  0  0
 15 26  1  1  0  0  0
 16 18  1  0  0  0  0
 16 17  1  6  0  0  0
 18  4  1  1  0  0  0
 20 21  1  0  0  0  0
 20 27  1  0  0  0  0
 21 31  1  6  0  0  0
 21 23  1  0  0  0  0
 21 22  1  0  0  0  0
 23 24  1  0  0  0  0
 23 29  1  6  0  0  0
 24 25  1  0  0  0  0
 24 28  1  1  0  0  0
 25 27  1  0  0  0  0
 25 26  1  1  0  0  0
 29 30  1  0  0  0  0
M  CHG  5   6   1  10   1  14   1  19   1  29   1
M  END
>  <CHROM.1>
43.69837114,57.52249876,-152.53488409,-60.34086106,-67.99416375,-49.91042555
67.19222131,103.56720679,-172.88532756,156.44868856,-33.64557652,85.80918367
-169.83055450,1.42264535,-3.96484675,-8.14327195,-3.06391747,-0.72664028
2.86706536

>  <Name>
1byj cryst

>  <RI>
0

>  <Rbt.Current_Directory>
/home/itssahil/PROJECTS/Mol_Feturizer/New_Systems/rnas/1byj

>  <Rbt.Executable>
rbdock ($Id: //depot/dev/client3/rdock/2013.1/src/exe/rbdock.cxx#4 $)

>  <Rbt.Library>
libRbt.so (2013.1, Build901 2013/11/27)

>  <Rbt.Parameter_File>
/export/apps/rDock/src/rDock_2013.1_src/data/scripts/dock_solv.prm

>  <Rbt.Receptor>
prm/blind_docking_80.prm

>  <SCORE>
-17.1521

>  <SCORE.INTER>
-22.3252

>  <SCORE.INTER.CONST>
1

>  <SCORE.INTER.POLAR>
-3.75519

>  <SCORE.INTER.ROT>
6

>  <SCORE.INTER.SOLV>
21.9785

>  <SCORE.INTER.VDW>
-17.2923

>  <SCORE.INTER.norm>
-0.720168

>  <SCORE.INTRA>
-0.500217

>  <SCORE.INTRA.DIHEDRAL>
-0.448756

>  <SCORE.INTRA.DIHEDRAL.0>
18.4149

>  <SCORE.INTRA.POLAR>
-0.215752

>  <SCORE.INTRA.POLAR.0>
0

>  <SCORE.INTRA.REPUL>
-0.092687

>  <SCORE.INTRA.REPUL.0>
0.092687

>  <SCORE.INTRA.SOLV>
-2.76884

>  <SCORE.INTRA.SOLV.lig_0>
-120.37

>  <SCORE.INTRA.VDW>
2.30557

>  <SCORE.INTRA.VDW.0>
-1.75542

>  <SCORE.INTRA.norm>
-0.016136

>  <SCORE.RESTR>
5.67333

>  <SCORE.RESTR.CAVITY>
5.67333

>  <SCORE.RESTR.norm>
0.183011

>  <SCORE.SYSTEM>
0

>  <SCORE.SYSTEM.CONST>
0

>  <SCORE.SYSTEM.DIHEDRAL>
0

>  <SCORE.SYSTEM.SOLV>
0

>  <SCORE.SYSTEM.norm>
0

>  <SCORE.heavy>
31

>  <SCORE.norm>
-0.553293

>  <RMSD>
14.375

$$$$
1byj cryst
 OpenBabel11021811383D
libRbt.so/2013.1/901 2013/11/27
 31 33  0  0  0  0  0  0  0  0999 V2000
   -2.6644   -3.8065   -6.0694 C   0  0  1  0  0  0  0  0  0  0  0  0
   -1.7228   -2.7523   -5.6896 O   0  0  0  0  0  0  0  0  0  0  0  0
   -0.2928   -3.0115   -5.8189 C   0  0  2  0  0  0  0  0  0  0  0  0
    0.1028   -3.1207   -7.2219 O   0  0  0  0  0  0  0  0  0  0  0  0
    0.0690   -4.3083   -5.0330 C   0  0  2  0  0  0  0  0  0  0  0  0
    1.5024   -4.6529   -5.1065 N   0  3  0  0  0  0  0  0  0  0  0  0
   -0.7978   -5.4927   -5.5330 C   0  0  0  0  0  0  0  0  0  0  0  0
   -2.2948   -5.1679   -5.4184 C   0  0  0  0  0  0  0  0  0  0  0  0
   -4.0844   -3.4045   -5.6335 C   0  0  0  0  0  0  0  0  0  0  0  0
   -4.5143   -2.0963   -6.1445 N   0  3  0  0  0  0  0  0  0  0  0  0
    1.0708   -1.1399   -8.3218 C   0  0  1  0  0  0  0  0  0  0  0  0
    2.3581   -0.5020   -8.8983 C   0  0  0  0  0  0  0  0  0  0  0  0
    2.9950   -1.4324   -9.9653 C   0  0  1  0  0  0  0  0  0  0  0  0
    4.1757   -0.7787  -10.5613 N   0  3  0  0  0  0  0  0  0  0  0  0
    3.3501   -2.8104   -9.3355 C   0  0  1  0  0  0  0  0  0  0  0  0
    2.1220   -3.4577   -8.6477 C   0  0  1  0  0  0  0  0  0  0  0  0
    2.5977   -4.6111   -7.9700 O   0  0  0  0  0  0  0  0  0  0  0  0
    1.3658   -2.5206   -7.6491 C   0  0  2  0  0  0  0  0  0  0  0  0
    0.4185   -0.2060   -7.3870 N   0  3  0  0  0  0  0  0  0  0  0  0
    3.7495   -6.7525   -9.8737 C   0  0  0  0  0  0  0  0  0  0  0  0
    4.5308   -7.3749  -11.0568 C   0  0  2  0  0  0  0  0  0  0  0  0
    5.6518   -8.0610  -10.5011 O   0  0  0  0  0  0  0  0  0  0  0  0
    4.9995   -6.2323  -12.0346 C   0  0  1  0  0  0  0  0  0  0  0  0
    5.6923   -5.0401  -11.2912 C   0  0  2  0  0  0  0  0  0  0  0  0
    4.9371   -4.5845  -10.0169 C   0  0  1  0  0  0  0  0  0  0  0  0
    3.8076   -3.7392  -10.3596 O   0  0  0  0  0  0  0  0  0  0  0  0
    4.5361   -5.7276   -9.2098 O   0  0  0  0  0  0  0  0  0  0  0  0
    5.8616   -3.9168  -12.1519 O   0  0  0  0  0  0  0  0  0  0  0  0
    5.9065   -6.8013  -13.0797 N   0  3  0  0  0  0  0  0  0  0  0  0
    5.2669   -7.4019  -14.2680 C   0  0  0  0  0  0  0  0  0  0  0  0
    3.6333   -8.4367  -11.7388 C   0  0  0  0  0  0  0  0  0  0  0  0
  1  8  1  0  0  0  0
  1  9  1  1  0  0  0
  1  2  1  0  0  0  0
  2  3  1  0  0  0  0
  3  5  1  0  0  0  0
  3  4  1  6  0  0  0
  5  7  1  0  0  0  0
  5  6  1  6  0  0  0
  7  8  1  0  0  0  0
  9 10  1  0  0  0  0
 11 12  1  0  0  0  0
 11 18  1  0  0  0  0
 11 19  1  1  0  0  0
 12 13  1  0  0  0  0
 13 15  1  0  0  0  0
 13 14  1  1  0  0  0
 15 16  1  0  0  0  0
 15 26  1  6  0  0  0
 16 18  1  0  0  0  0
 16 17  1  1  0  0  0
 18  4  1  6  0  0  0
 20 21  1  0  0  0  0
 20 27  1  0  0  0  0
 21 31  1  6  0  0  0
 21 23  1  0  0  0  0
 21 22  1  0  0  0  0
 23 24  1  0  0  0  0
 23 29  1  6  0  0  0
 24 25  1  0  0  0  0
 24 28  1  6  0  0  0
 25 27  1  0  0  0  0
 25 26  1  6  0  0  0
 29 30  1  0  0  0  0
M  CHG  5   6   1  10   1  14   1  19   1  29   1
M  END
>  <CHROM.1>
54.81514114,139.91008523,-99.63886517,58.10598539,-54.41773985,57.77768754
-78.62784210,138.94150918,60.26571125,86.34784483,-154.25861702,-63.34279899
-155.36844684,2.09733851,-4.16265766,-8.78408600,2.81221592,0.69770761,-0.00608525

>  <Name>
1byj cryst

>  <RI>
0

>  <Rbt.Current_Directory>
/home/itssahil/PROJECTS/Mol_Feturizer/New_Systems/rnas/1byj

>  <Rbt.Executable>
rbdock ($Id: //depot/dev/client3/rdock/2013.1/src/exe/rbdock.cxx#4 $)

>  <Rbt.Library>
libRbt.so (2013.1, Build901 2013/11/27)

>  <Rbt.Parameter_File>
/export/apps/rDock/src/rDock_2013.1_src/data/scripts/dock_solv.prm

>  <Rbt.Receptor>
prm/blind_docking_80.prm

>  <SCORE>
-1.09915

>  <SCORE.INTER>
-5.31751

>  <SCORE.INTER.CONST>
1

>  <SCORE.INTER.POLAR>
-3.93699

>  <SCORE.INTER.ROT>
6

>  <SCORE.INTER.SOLV>
29.8213

>  <SCORE.INTER.VDW>
-7.96216

>  <SCORE.INTER.norm>
-0.171533

>  <SCORE.INTRA>
0.792926

>  <SCORE.INTRA.DIHEDRAL>
6.23875

>  <SCORE.INTRA.DIHEDRAL.0>
18.4149

>  <SCORE.INTRA.POLAR>
-0.635098

>  <SCORE.INTRA.POLAR.0>
0

>  <SCORE.INTRA.REPUL>
-0.092687

>  <SCORE.INTRA.REPUL.0>
0.092687

>  <SCORE.INTRA.SOLV>
0.346057

>  <SCORE.INTRA.SOLV.lig_0>
-120.37

>  <SCORE.INTRA.VDW>
0.123289

>  <SCORE.INTRA.VDW.0>
-1.75542

>  <SCORE.INTRA.norm>
0.0255783

>  <SCORE.RESTR>
3.42543

>  <SCORE.RESTR.CAVITY>
3.42543

>  <SCORE.RESTR.norm>
0.110498

>  <SCORE.SYSTEM>
0

>  <SCORE.SYSTEM.CONST>
0

>  <SCORE.SYSTEM.DIHEDRAL>
0

>  <SCORE.SYSTEM.SOLV>
0

>  <SCORE.SYSTEM.norm>
0

>  <SCORE.heavy>
31

>  <SCORE.norm>
-0.0354564

>  <RMSD>
14.391

$$$$
1byj cryst
 OpenBabel11021811383D
libRbt.so/2013.1/901 2013/11/27
 31 33  0  0  0  0  0  0  0  0999 V2000
   -3.1799   -3.1153   -6.7372 C   0  0  1  0  0  0  0  0  0  0  0  0
   -2.0170   -2.8640   -5.8849 O   0  0  0  0  0  0  0  0  0  0  0  0
   -1.0073   -3.9088   -5.7527 C   0  0  2  0  0  0  0  0  0  0  0  0
   -0.2823   -4.1090   -7.0061 O   0  0  0  0  0  0  0  0  0  0  0  0
   -1.6908   -5.2295   -5.2847 C   0  0  2  0  0  0  0  0  0  0  0  0
   -0.7433   -6.3498   -5.1225 N   0  3  0  0  0  0  0  0  0  0  0  0
   -2.8248   -5.6191   -6.2677 C   0  0  0  0  0  0  0  0  0  0  0  0
   -3.8460   -4.4806   -6.4111 C   0  0  0  0  0  0  0  0  0  0  0  0
   -4.2098   -1.9887   -6.5417 C   0  0  0  0  0  0  0  0  0  0  0  0
   -4.3649   -1.5620   -5.1449 N   0  3  0  0  0  0  0  0  0  0  0  0
    0.4773   -1.8172   -7.4972 C   0  0  1  0  0  0  0  0  0  0  0  0
    1.6822   -0.9298   -7.8935 C   0  0  0  0  0  0  0  0  0  0  0  0
    2.3321   -1.4492   -9.2042 C   0  0  1  0  0  0  0  0  0  0  0  0
    3.4286   -0.5501   -9.6117 N   0  3  0  0  0  0  0  0  0  0  0  0
    2.8210   -2.9149   -9.0191 C   0  0  1  0  0  0  0  0  0  0  0  0
    1.6814   -3.8386   -8.5208 C   0  0  1  0  0  0  0  0  0  0  0  0
    2.2761   -5.0940   -8.2267 O   0  0  0  0  0  0  0  0  0  0  0  0
    0.9088   -3.3033   -7.2703 C   0  0  2  0  0  0  0  0  0  0  0  0
   -0.1949   -1.2573   -6.3115 N   0  3  0  0  0  0  0  0  0  0  0  0
    5.2485   -5.7611   -9.8261 C   0  0  0  0  0  0  0  0  0  0  0  0
    5.7331   -6.1755  -11.2371 C   0  0  2  0  0  0  0  0  0  0  0  0
    7.1449   -5.9706  -11.2698 O   0  0  0  0  0  0  0  0  0  0  0  0
    5.0113   -5.2891  -12.3208 C   0  0  1  0  0  0  0  0  0  0  0  0
    5.0602   -3.7592  -11.9878 C   0  0  2  0  0  0  0  0  0  0  0  0
    4.7283   -3.4383  -10.5084 C   0  0  1  0  0  0  0  0  0  0  0  0
    3.2943   -3.4607  -10.2834 O   0  0  0  0  0  0  0  0  0  0  0  0
    5.4346   -4.3372   -9.6072 O   0  0  0  0  0  0  0  0  0  0  0  0
    4.1823   -3.0145  -12.8281 O   0  0  0  0  0  0  0  0  0  0  0  0
    5.6040   -5.5552  -13.6685 N   0  3  0  0  0  0  0  0  0  0  0  0
    4.8814   -5.0142  -14.8377 C   0  0  0  0  0  0  0  0  0  0  0  0
    5.4841   -7.6930  -11.4201 C   0  0  0  0  0  0  0  0  0  0  0  0
  1  8  1  0  0  0  0
  1  9  1  1  0  0  0
  1  2  1  0  0  0  0
  2  3  1  0  0  0  0
  3  5  1  0  0  0  0
  3  4  1  6  0  0  0
  5  7  1  0  0  0  0
  5  6  1  6  0  0  0
  7  8  1  0  0  0  0
  9 10  1  0  0  0  0
 11 12  1  0  0  0  0
 11 18  1  0  0  0  0
 11 19  1  1  0  0  0
 12 13  1  0  0  0  0
 13 15  1  0  0  0  0
 13 14  1  1  0  0  0
 15 16  1  0  0  0  0
 15 26  1  6  0  0  0
 16 18  1  0  0  0  0
 16 17  1  1  0  0  0
 18  4  1  6  0  0  0
 20 21  1  0  0  0  0
 20 27  1  0  0  0  0
 21 31  1  6  0  0  0
 21 23  1  0  0  0  0
 21 22  1  0  0  0  0
 23 24  1  0  0  0  0
 23 29  1  6  0  0  0
 24 25  1  0  0  0  0
 24 28  1  6  0  0  0
 25 27  1  0  0  0  0
 25 26  1  6  0  0  0
 29 30  1  0  0  0  0
M  CHG  5   6   1  10   1  14   1  19   1  29   1
M  END
>  <CHROM.1>
-40.70618925,88.37802354,-68.77240248,-84.23627471,62.34876941,43.95591685
19.66234678,98.19519878,-179.91603189,-60.12891423,-70.54039225,-176.21561693
-167.83957695,1.72903691,-3.85687040,-8.82150189,3.05589009,0.66716924,-0.13891367

>  <Name>
1byj cryst

>  <RI>
0

>  <Rbt.Current_Directory>
/home/itssahil/PROJECTS/Mol_Feturizer/New_Systems/rnas/1byj

>  <Rbt.Executable>
rbdock ($Id: //depot/dev/client3/rdock/2013.1/src/exe/rbdock.cxx#4 $)

>  <Rbt.Library>
libRbt.so (2013.1, Build901 2013/11/27)

>  <Rbt.Parameter_File>
/export/apps/rDock/src/rDock_2013.1_src/data/scripts/dock_solv.prm

>  <Rbt.Receptor>
prm/blind_docking_80.prm

>  <SCORE>
-20.1636

>  <SCORE.INTER>
-19.4717

>  <SCORE.INTER.CONST>
1

>  <SCORE.INTER.POLAR>
-2.78388

>  <SCORE.INTER.ROT>
6

>  <SCORE.INTER.SOLV>
27.4881

>  <SCORE.INTER.VDW>
-20.4642

>  <SCORE.INTER.norm>
-0.628119

>  <SCORE.INTRA>
-1.97007

>  <SCORE.INTRA.DIHEDRAL>
-2.38533

>  <SCORE.INTRA.DIHEDRAL.0>
18.4149

>  <SCORE.INTRA.POLAR>
-0.780345

>  <SCORE.INTRA.POLAR.0>
0

>  <SCORE.INTRA.REPUL>
-0.092687

>  <SCORE.INTRA.REPUL.0>
0.092687

>  <SCORE.INTRA.SOLV>
2.36631

>  <SCORE.INTRA.SOLV.lig_0>
-120.37

>  <SCORE.INTRA.VDW>
1.15605

>  <SCORE.INTRA.VDW.0>
-1.75542

>  <SCORE.INTRA.norm>
-0.0635506

>  <SCORE.RESTR>
1.27812

>  <SCORE.RESTR.CAVITY>
1.27812

>  <SCORE.RESTR.norm>
0.0412298

>  <SCORE.SYSTEM>
0

>  <SCORE.SYSTEM.CONST>
0

>  <SCORE.SYSTEM.DIHEDRAL>
0

>  <SCORE.SYSTEM.SOLV>
0

>  <SCORE.SYSTEM.norm>
0

>  <SCORE.heavy>
31

>  <SCORE.norm>
-0.65044

>  <RMSD>
14.431

$$$$
1byj cryst
 OpenBabel11021811383D
libRbt.so/2013.1/901 2013/11/27
 31 33  0  0  0  0  0  0  0  0999 V2000
   -2.5385   -4.0101   -6.4028 C   0  0  1  0  0  0  0  0  0  0  0  0
   -1.6549   -2.8949   -6.0597 O   0  0  0  0  0  0  0  0  0  0  0  0
   -0.2123   -3.1106   -6.0892 C   0  0  2  0  0  0  0  0  0  0  0  0
    0.2666   -3.3169   -7.4548 O   0  0  0  0  0  0  0  0  0  0  0  0
    0.1456   -4.3262   -5.1812 C   0  0  2  0  0  0  0  0  0  0  0  0
    1.5914   -4.6225   -5.1478 N   0  3  0  0  0  0  0  0  0  0  0  0
   -0.6522   -5.5780   -5.6291 C   0  0  0  0  0  0  0  0  0  0  0  0
   -2.1630   -5.3005   -5.6233 C   0  0  0  0  0  0  0  0  0  0  0  0
   -3.9935   -3.6273   -6.0795 C   0  0  0  0  0  0  0  0  0  0  0  0
   -4.5659   -2.6374   -7.0013 N   0  3  0  0  0  0  0  0  0  0  0  0
    1.1473   -1.3327   -8.6199 C   0  0  1  0  0  0  0  0  0  0  0  0
    2.4108   -0.6451   -9.1921 C   0  0  0  0  0  0  0  0  0  0  0  0
    3.1312   -1.5824  -10.1982 C   0  0  1  0  0  0  0  0  0  0  0  0
    4.2879   -0.8863  -10.7934 N   0  3  0  0  0  0  0  0  0  0  0  0
    3.5486   -2.9071   -9.4965 C   0  0  1  0  0  0  0  0  0  0  0  0
    2.3417   -3.5955   -8.8113 C   0  0  1  0  0  0  0  0  0  0  0  0
    2.8649   -4.6869   -8.0689 O   0  0  0  0  0  0  0  0  0  0  0  0
    1.5038   -2.6618   -7.8767 C   0  0  2  0  0  0  0  0  0  0  0  0
    0.4151   -0.3988   -7.7464 N   0  3  0  0  0  0  0  0  0  0  0  0
    5.3543   -6.5808  -10.9835 C   0  0  0  0  0  0  0  0  0  0  0  0
    6.2395   -6.3913  -12.2397 C   0  0  2  0  0  0  0  0  0  0  0  0
    7.5825   -6.6753  -11.8500 O   0  0  0  0  0  0  0  0  0  0  0  0
    6.1059   -4.9093  -12.7568 C   0  0  1  0  0  0  0  0  0  0  0  0
    6.2761   -3.8485  -11.6168 C   0  0  2  0  0  0  0  0  0  0  0  0
    5.4919   -4.1974  -10.3264 C   0  0  1  0  0  0  0  0  0  0  0  0
    4.0887   -3.8516  -10.4645 O   0  0  0  0  0  0  0  0  0  0  0  0
    5.6747   -5.5957   -9.9653 O   0  0  0  0  0  0  0  0  0  0  0  0
    5.8889   -2.5480  -12.0528 O   0  0  0  0  0  0  0  0  0  0  0  0
    7.0916   -4.6661  -13.8557 N   0  3  0  0  0  0  0  0  0  0  0  0
    6.6612   -5.0002  -15.2287 C   0  0  0  0  0  0  0  0  0  0  0  0
    5.8334   -7.4488  -13.2956 C   0  0  0  0  0  0  0  0  0  0  0  0
  1  8  1  0  0  0  0
  1  9  1  1  0  0  0
  1  2  1  0  0  0  0
  2  3  1  0  0  0  0
  3  5  1  0  0  0  0
  3  4  1  6  0  0  0
  5  7  1  0  0  0  0
  5  6  1  6  0  0  0
  7  8  1  0  0  0  0
  9 10  1  0  0  0  0
 11 12  1  0  0  0  0
 11 18  1  0  0  0  0
 11 19  1  1  0  0  0
 12 13  1  0  0  0  0
 13 15  1  0  0  0  0
 13 14  1  1  0  0  0
 15 16  1  0  0  0  0
 15 26  1  6  0  0  0
 16 18  1  0  0  0  0
 16 17  1  1  0  0  0
 18  4  1  6  0  0  0
 20 21  1  0  0  0  0
 20 27  1  0  0  0  0
 21 31  1  6  0  0  0
 21 23  1  0  0  0  0
 21 22  1  0  0  0  0
 23 24  1  0  0  0  0
 23 29  1  6  0  0  0
 24 25  1  0  0  0  0
 24 28  1  6  0  0  0
 25 27  1  0  0  0  0
 25 26  1  6  0  0  0
 29 30  1  0  0  0  0
M  CHG  5   6   1  10   1  14   1  19   1  29   1
M  END
>  <CHROM.1>
72.08909669,137.42638667,-96.39027796,-174.16719945,-53.76643162,66.59013213
42.39308875,114.50217763,-49.11527794,178.87748244,-151.42032906,-55.96401621
-121.40568588,2.60786564,-3.84803157,-9.24693596,3.13573700,0.68031304,-0.25130920

>  <Name>
1byj cryst

>  <RI>
0

>  <Rbt.Current_Directory>
/home/itssahil/PROJECTS/Mol_Feturizer/New_Systems/rnas/1byj

>  <Rbt.Executable>
rbdock ($Id: //depot/dev/client3/rdock/2013.1/src/exe/rbdock.cxx#4 $)

>  <Rbt.Library>
libRbt.so (2013.1, Build901 2013/11/27)

>  <Rbt.Parameter_File>
/export/apps/rDock/src/rDock_2013.1_src/data/scripts/dock_solv.prm

>  <Rbt.Receptor>
prm/blind_docking_80.prm

>  <SCORE>
-16.5787

>  <SCORE.INTER>
-16.9827

>  <SCORE.INTER.CONST>
1

>  <SCORE.INTER.POLAR>
-5.88698

>  <SCORE.INTER.ROT>
6

>  <SCORE.INTER.SOLV>
35.2084

>  <SCORE.INTER.VDW>
-11.0347

>  <SCORE.INTER.norm>
-0.547829

>  <SCORE.INTRA>
-1.37443

>  <SCORE.INTRA.DIHEDRAL>
10.3077

>  <SCORE.INTRA.DIHEDRAL.0>
18.4149

>  <SCORE.INTRA.POLAR>
-2.12274

>  <SCORE.INTRA.POLAR.0>
0

>  <SCORE.INTRA.REPUL>
-0.092687

>  <SCORE.INTRA.REPUL.0>
0.092687

>  <SCORE.INTRA.SOLV>
2.3708

>  <SCORE.INTRA.SOLV.lig_0>
-120.37

>  <SCORE.INTRA.VDW>
-0.0329482

>  <SCORE.INTRA.VDW.0>
-1.75542

>  <SCORE.INTRA.norm>
-0.0443364

>  <SCORE.RESTR>
1.77844

>  <SCORE.RESTR.CAVITY>
1.77844

>  <SCORE.RESTR.norm>
0.0573691

>  <SCORE.SYSTEM>
0

>  <SCORE.SYSTEM.CONST>
0

>  <SCORE.SYSTEM.DIHEDRAL>
0

>  <SCORE.SYSTEM.SOLV>
0

>  <SCORE.SYSTEM.norm>
0

>  <SCORE.heavy>
31

>  <SCORE.norm>
-0.534797

>  <RMSD>
14.479

$$$$
1byj cryst
 OpenBabel11021811383D
libRbt.so/2013.1/901 2013/11/27
 31 33  0  0  0  0  0  0  0  0999 V2000
   -1.8421   -2.5091   -5.9282 C   0  0  1  0  0  0  0  0  0  0  0  0
   -1.0028   -2.2879   -7.1067 O   0  0  0  0  0  0  0  0  0  0  0  0
    0.4218   -2.0387   -6.9144 C   0  0  2  0  0  0  0  0  0  0  0  0
    1.1072   -3.2297   -6.4160 O   0  0  0  0  0  0  0  0  0  0  0  0
    0.6076   -0.8370   -5.9389 C   0  0  2  0  0  0  0  0  0  0  0  0
    2.0237   -0.5089   -5.6822 N   0  3  0  0  0  0  0  0  0  0  0  0
   -0.1330   -1.1148   -4.6053 C   0  0  0  0  0  0  0  0  0  0  0  0
   -1.6199   -1.4114   -4.8514 C   0  0  0  0  0  0  0  0  0  0  0  0
   -3.3223   -2.5150   -6.3489 C   0  0  0  0  0  0  0  0  0  0  0  0
   -3.6680   -3.5890   -7.2893 N   0  3  0  0  0  0  0  0  0  0  0  0
    1.0304   -5.6901   -6.3110 C   0  0  1  0  0  0  0  0  0  0  0  0
    1.1515   -7.0061   -7.1174 C   0  0  0  0  0  0  0  0  0  0  0  0
    2.5076   -7.0590   -7.8710 C   0  0  1  0  0  0  0  0  0  0  0  0
    2.6428   -8.3504   -8.5716 N   0  3  0  0  0  0  0  0  0  0  0  0
    2.6289   -5.8532   -8.8472 C   0  0  1  0  0  0  0  0  0  0  0  0
    2.4132   -4.5036   -8.1176 C   0  0  1  0  0  0  0  0  0  0  0  0
    2.3756   -3.5008   -9.1222 O   0  0  0  0  0  0  0  0  0  0  0  0
    1.1187   -4.4363   -7.2417 C   0  0  2  0  0  0  0  0  0  0  0  0
   -0.2120   -5.6949   -5.5188 N   0  3  0  0  0  0  0  0  0  0  0  0
    3.1864   -3.7598  -11.5732 C   0  0  0  0  0  0  0  0  0  0  0  0
    4.5171   -3.3529  -12.2523 C   0  0  2  0  0  0  0  0  0  0  0  0
    4.4097   -3.7130  -13.6288 O   0  0  0  0  0  0  0  0  0  0  0  0
    5.7116   -4.1148  -11.5637 C   0  0  1  0  0  0  0  0  0  0  0  0
    5.4475   -5.6513  -11.4111 C   0  0  2  0  0  0  0  0  0  0  0  0
    4.0281   -5.9847  -10.8855 C   0  0  1  0  0  0  0  0  0  0  0  0
    3.9555   -5.8102   -9.4461 O   0  0  0  0  0  0  0  0  0  0  0  0
    3.0160   -5.2024  -11.5802 O   0  0  0  0  0  0  0  0  0  0  0  0
    6.4099   -6.2634  -10.5567 O   0  0  0  0  0  0  0  0  0  0  0  0
    6.9750   -3.8695  -12.3267 N   0  3  0  0  0  0  0  0  0  0  0  0
    7.1197   -4.5604  -13.6242 C   0  0  0  0  0  0  0  0  0  0  0  0
    4.6541   -1.8117  -12.1890 C   0  0  0  0  0  0  0  0  0  0  0  0
  1  8  1  0  0  0  0
  1  9  1  6  0  0  0
  1  2  1  0  0  0  0
  2  3  1  0  0  0  0
  3  5  1  0  0  0  0
  3  4  1  1  0  0  0
  5  7  1  0  0  0  0
  5  6  1  1  0  0  0
  7  8  1  0  0  0  0
  9 10  1  0  0  0  0
 11 12  1  0  0  0  0
 11 18  1  0  0  0  0
 11 19  1  6  0  0  0
 12 13  1  0  0  0  0
 13 15  1  0  0  0  0
 13 14  1  6  0  0  0
 15 16  1  0  0  0  0
 15 26  1  1  0  0  0
 16 18  1  0  0  0  0
 16 17  1  6  0  0  0
 18  4  1  1  0  0  0
 20 21  1  0  0  0  0
 20 27  1  0  0  0  0
 21 31  1  1  0  0  0
 21 23  1  0  0  0  0
 21 22  1  0  0  0  0
 23 24  1  0  0  0  0
 23 29  1  6  0  0  0
 24 25  1  0  0  0  0
 24 28  1  1  0  0  0
 25 27  1  0  0  0  0
 25 26  1  1  0  0  0
 29 30  1  0  0  0  0
M  CHG  5   6   1  10   1  14   1  19   1  29   1
M  END
>  <CHROM.1>
62.05899020,61.94443094,-144.32407767,-62.32223548,-50.02624048,83.31911638
-172.41708483,116.61024225,-175.46480219,-58.12094013,47.49111172,43.79940082
169.26569299,2.19501294,-4.08377348,-8.75682716,-3.00977661,-0.77142039,3.00586189

>  <Name>
1byj cryst

>  <RI>
0

>  <Rbt.Current_Directory>
/home/itssahil/PROJECTS/Mol_Feturizer/New_Systems/rnas/1byj

>  <Rbt.Executable>
rbdock ($Id: //depot/dev/client3/rdock/2013.1/src/exe/rbdock.cxx#4 $)

>  <Rbt.Library>
libRbt.so (2013.1, Build901 2013/11/27)

>  <Rbt.Parameter_File>
/export/apps/rDock/src/rDock_2013.1_src/data/scripts/dock_solv.prm

>  <Rbt.Receptor>
prm/blind_docking_80.prm

>  <SCORE>
-23.9171

>  <SCORE.INTER>
-26.3556

>  <SCORE.INTER.CONST>
1

>  <SCORE.INTER.POLAR>
-3.43657

>  <SCORE.INTER.ROT>
6

>  <SCORE.INTER.SOLV>
23.2843

>  <SCORE.INTER.VDW>
-21.4766

>  <SCORE.INTER.norm>
-0.85018

>  <SCORE.INTRA>
-2.4362

>  <SCORE.INTRA.DIHEDRAL>
-2.33203

>  <SCORE.INTRA.DIHEDRAL.0>
18.4149

>  <SCORE.INTRA.POLAR>
-0.00917268

>  <SCORE.INTRA.POLAR.0>
0

>  <SCORE.INTRA.REPUL>
-0.092687

>  <SCORE.INTRA.REPUL.0>
0.092687

>  <SCORE.INTRA.SOLV>
-3.36481

>  <SCORE.INTRA.SOLV.lig_0>
-120.37

>  <SCORE.INTRA.VDW>
0.906843

>  <SCORE.INTRA.VDW.0>
-1.75542

>  <SCORE.INTRA.norm>
-0.078587

>  <SCORE.RESTR>
4.87471

>  <SCORE.RESTR.CAVITY>
4.87471

>  <SCORE.RESTR.norm>
0.157249

>  <SCORE.SYSTEM>
0

>  <SCORE.SYSTEM.CONST>
0

>  <SCORE.SYSTEM.DIHEDRAL>
0

>  <SCORE.SYSTEM.SOLV>
0

>  <SCORE.SYSTEM.norm>
0

>  <SCORE.heavy>
31

>  <SCORE.norm>
-0.771518

>  <RMSD>
14.494

$$$$
1byj cryst
 OpenBabel11021811383D
libRbt.so/2013.1/901 2013/11/27
 31 33  0  0  0  0  0  0  0  0999 V2000
   -1.4619   -2.5886   -5.6749 C   0  0  1  0  0  0  0  0  0  0  0  0
   -0.4302   -2.2116   -6.6421 O   0  0  0  0  0  0  0  0  0  0  0  0
    0.9700   -2.3005   -6.2420 C   0  0  2  0  0  0  0  0  0  0  0  0
    1.3831   -3.6906   -6.0583 O   0  0  0  0  0  0  0  0  0  0  0  0
    1.1864   -1.4755   -4.9371 C   0  0  2  0  0  0  0  0  0  0  0  0
    2.5806   -1.5064   -4.4530 N   0  3  0  0  0  0  0  0  0  0  0  0
    0.2190   -1.9676   -3.8299 C   0  0  0  0  0  0  0  0  0  0  0  0
   -1.2411   -1.8966   -4.3014 C   0  0  0  0  0  0  0  0  0  0  0  0
   -2.8449   -2.1965   -6.2241 C   0  0  0  0  0  0  0  0  0  0  0  0
   -3.9090   -2.2015   -5.2117 N   0  3  0  0  0  0  0  0  0  0  0  0
    1.2481   -6.0361   -6.8006 C   0  0  1  0  0  0  0  0  0  0  0  0
    1.4689   -7.0165   -7.9782 C   0  0  0  0  0  0  0  0  0  0  0  0
    2.9239   -6.9097   -8.5087 C   0  0  1  0  0  0  0  0  0  0  0  0
    3.1430   -7.9030   -9.5775 N   0  3  0  0  0  0  0  0  0  0  0  0
    3.2154   -5.4603   -8.9943 C   0  0  1  0  0  0  0  0  0  0  0  0
    2.9134   -4.4163   -7.8901 C   0  0  1  0  0  0  0  0  0  0  0  0
    3.0487   -3.1378   -8.4926 O   0  0  0  0  0  0  0  0  0  0  0  0
    1.5007   -4.5542   -7.2323 C   0  0  2  0  0  0  0  0  0  0  0  0
   -0.1016   -6.2177   -6.2378 N   0  3  0  0  0  0  0  0  0  0  0  0
    7.0160   -4.9462  -11.2073 C   0  0  0  0  0  0  0  0  0  0  0  0
    6.4165   -4.7703  -12.6241 C   0  0  2  0  0  0  0  0  0  0  0  0
    6.8100   -3.4787  -13.0857 O   0  0  0  0  0  0  0  0  0  0  0  0
    4.8473   -4.8857  -12.5475 C   0  0  1  0  0  0  0  0  0  0  0  0
    4.2260   -4.0029  -11.4124 C   0  0  2  0  0  0  0  0  0  0  0  0
    4.9870   -4.1027  -10.0660 C   0  0  1  0  0  0  0  0  0  0  0  0
    4.6191   -5.3124   -9.3525 O   0  0  0  0  0  0  0  0  0  0  0  0
    6.4251   -4.0072  -10.2697 O   0  0  0  0  0  0  0  0  0  0  0  0
    2.8557   -4.3266  -11.1913 O   0  0  0  0  0  0  0  0  0  0  0  0
    4.2492   -4.5379  -13.8740 N   0  3  0  0  0  0  0  0  0  0  0  0
    4.4408   -5.5080  -14.9713 C   0  0  0  0  0  0  0  0  0  0  0  0
    7.0634   -5.8133  -13.5684 C   0  0  0  0  0  0  0  0  0  0  0  0
  1  8  1  0  0  0  0
  1  9  1  6  0  0  0
  1  2  1  0  0  0  0
  2  3  1  0  0  0  0
  3  5  1  0  0  0  0
  3  4  1  1  0  0  0
  5  7  1  0  0  0  0
  5  6  1  1  0  0  0
  7  8  1  0  0  0  0
  9 10  1  0  0  0  0
 11 12  1  0  0  0  0
 11 18  1  0  0  0  0
 11 19  1  6  0  0  0
 12 13  1  0  0  0  0
 13 15  1  0  0  0  0
 13 14  1  6  0  0  0
 15 16  1  0  0  0  0
 15 26  1  1  0  0  0
 16 18  1  0  0  0  0
 16 17  1  6  0  0  0
 18  4  1  1  0  0  0
 20 21  1  0  0  0  0
 20 27  1  0  0  0  0
 21 31  1  6  0  0  0
 21 23  1  0  0  0  0
 21 22  1  0  0  0  0
 23 24  1  0  0  0  0
 23 29  1  6  0  0  0
 24 25  1  0  0  0  0
 24 28  1  1  0  0  0
 25 27  1  0  0  0  0
 25 26  1  6  0  0  0
 29 30  1  0  0  0  0
M  CHG  5   6   1  10   1  14   1  19   1  29   1
M  END
>  <CHROM.1>
-164.87568339,69.70849316,-152.29437158,-179.04198875,78.69611063,137.51907332
70.22773438,168.29071746,88.33586498,-178.45470765,-167.76113901,-176.75552271
-60.31560042,2.55886956,-4.16540226,-8.70602596,2.51203958,0.64860206,0.56605528

>  <Name>
1byj cryst

>  <RI>
0

>  <Rbt.Current_Directory>
/home/itssahil/PROJECTS/Mol_Feturizer/New_Systems/rnas/1byj

>  <Rbt.Executable>
rbdock ($Id: //depot/dev/client3/rdock/2013.1/src/exe/rbdock.cxx#4 $)

>  <Rbt.Library>
libRbt.so (2013.1, Build901 2013/11/27)

>  <Rbt.Parameter_File>
/export/apps/rDock/src/rDock_2013.1_src/data/scripts/dock_solv.prm

>  <Rbt.Receptor>
prm/blind_docking_80.prm

>  <SCORE>
-26.7318

>  <SCORE.INTER>
-33.8428

>  <SCORE.INTER.CONST>
1

>  <SCORE.INTER.POLAR>
-6.27614

>  <SCORE.INTER.ROT>
6

>  <SCORE.INTER.SOLV>
20.9407

>  <SCORE.INTER.VDW>
-16.2216

>  <SCORE.INTER.norm>
-1.0917

>  <SCORE.INTRA>
1.35914

>  <SCORE.INTRA.DIHEDRAL>
-5.4534

>  <SCORE.INTRA.DIHEDRAL.0>
18.4149

>  <SCORE.INTRA.POLAR>
0

>  <SCORE.INTRA.POLAR.0>
0

>  <SCORE.INTRA.REPUL>
-0.092687

>  <SCORE.INTRA.REPUL.0>
0.092687

>  <SCORE.INTRA.SOLV>
-2.63397

>  <SCORE.INTRA.SOLV.lig_0>
-120.37

>  <SCORE.INTRA.VDW>
5.86626

>  <SCORE.INTRA.VDW.0>
-1.75542

>  <SCORE.INTRA.norm>
0.0438433

>  <SCORE.RESTR>
5.75189

>  <SCORE.RESTR.CAVITY>
5.75189

>  <SCORE.RESTR.norm>
0.185545

>  <SCORE.SYSTEM>
0

>  <SCORE.SYSTEM.CONST>
0

>  <SCORE.SYSTEM.DIHEDRAL>
0

>  <SCORE.SYSTEM.SOLV>
0

>  <SCORE.SYSTEM.norm>
0

>  <SCORE.heavy>
31

>  <SCORE.norm>
-0.862316

>  <RMSD>
14.498

$$$$
1byj cryst
 OpenBabel11021811383D
libRbt.so/2013.1/901 2013/11/27
 31 33  0  0  0  0  0  0  0  0999 V2000
   -2.7505   -4.6391   -6.7289 C   0  0  1  0  0  0  0  0  0  0  0  0
   -2.0722   -3.3516   -6.5733 O   0  0  0  0  0  0  0  0  0  0  0  0
   -0.7202   -3.3346   -6.0253 C   0  0  2  0  0  0  0  0  0  0  0  0
    0.2359   -3.9404   -6.9502 O   0  0  0  0  0  0  0  0  0  0  0  0
   -0.7120   -4.0703   -4.6509 C   0  0  2  0  0  0  0  0  0  0  0  0
    0.6204   -4.1044   -4.0165 N   0  3  0  0  0  0  0  0  0  0  0  0
   -1.2699   -5.5078   -4.8135 C   0  0  0  0  0  0  0  0  0  0  0  0
   -2.6771   -5.4871   -5.4291 C   0  0  0  0  0  0  0  0  0  0  0  0
   -4.2256   -4.3986   -7.0953 C   0  0  0  0  0  0  0  0  0  0  0  0
   -4.6709   -5.1398   -8.2826 N   0  3  0  0  0  0  0  0  0  0  0  0
    0.9228   -1.7181   -7.7625 C   0  0  1  0  0  0  0  0  0  0  0  0
    2.0862   -0.8724   -8.3352 C   0  0  0  0  0  0  0  0  0  0  0  0
    2.6694   -1.5419   -9.6085 C   0  0  1  0  0  0  0  0  0  0  0  0
    3.7237   -0.6873  -10.1873 N   0  3  0  0  0  0  0  0  0  0  0  0
    3.1957   -2.9678   -9.2745 C   0  0  1  0  0  0  0  0  0  0  0  0
    2.1042   -3.8362   -8.6003 C   0  0  1  0  0  0  0  0  0  0  0  0
    2.7383   -5.0387   -8.1903 O   0  0  0  0  0  0  0  0  0  0  0  0
    1.3946   -3.1596   -7.3812 C   0  0  2  0  0  0  0  0  0  0  0  0
    0.3094   -1.0239   -6.6166 N   0  3  0  0  0  0  0  0  0  0  0  0
    5.4465   -6.0101   -9.8491 C   0  0  0  0  0  0  0  0  0  0  0  0
    5.8711   -6.5853  -11.2226 C   0  0  2  0  0  0  0  0  0  0  0  0
    7.2904   -6.4630  -11.3050 O   0  0  0  0  0  0  0  0  0  0  0  0
    5.1690   -5.7691  -12.3726 C   0  0  1  0  0  0  0  0  0  0  0  0
    5.3078   -4.2192  -12.1921 C   0  0  2  0  0  0  0  0  0  0  0  0
    5.0327   -3.7389  -10.7445 C   0  0  1  0  0  0  0  0  0  0  0  0
    3.6058   -3.6599  -10.4883 O   0  0  0  0  0  0  0  0  0  0  0  0
    5.7137   -4.5843   -9.7747 O   0  0  0  0  0  0  0  0  0  0  0  0
    4.4489   -3.5117  -13.0826 O   0  0  0  0  0  0  0  0  0  0  0  0
    5.7111   -6.1966  -13.6999 N   0  3  0  0  0  0  0  0  0  0  0  0
    6.8405   -5.4168  -14.2458 C   0  0  0  0  0  0  0  0  0  0  0  0
    5.5370   -8.0971  -11.2508 C   0  0  0  0  0  0  0  0  0  0  0  0
  1  8  1  0  0  0  0
  1  9  1  1  0  0  0
  1  2  1  0  0  0  0
  2  3  1  0  0  0  0
  3  5  1  0  0  0  0
  3  4  1  6  0  0  0
  5  7  1  0  0  0  0
  5  6  1  6  0  0  0
  7  8  1  0  0  0  0
  9 10  1  0  0  0  0
 11 12  1  0  0  0  0
 11 18  1  0  0  0  0
 11 19  1  1  0  0  0
 12 13  1  0  0  0  0
 13 15  1  0  0  0  0
 13 14  1  1  0  0  0
 15 16  1  0  0  0  0
 15 26  1  6  0  0  0
 16 18  1  0  0  0  0
 16 17  1  1  0  0  0
 18  4  1  6  0  0  0
 20 21  1  0  0  0  0
 20 27  1  0  0  0  0
 21 31  1  6  0  0  0
 21 23  1  0  0  0  0
 21 22  1  0  0  0  0
 23 24  1  0  0  0  0
 23 29  1  6  0  0  0
 24 25  1  0  0  0  0
 24 28  1  6  0  0  0
 25 27  1  0  0  0  0
 25 26  1  1  0  0  0
 29 30  1  0  0  0  0
M  CHG  5   6   1  10   1  14   1  19   1  29   1
M  END
>  <CHROM.1>
128.42361706,123.83525805,-45.30693343,132.99576121,37.42481913,77.69841753
28.36554680,102.86196663,69.39402198,-175.89038622,27.71994649,-148.97512829
-167.77492187,2.17332938,-4.16158313,-8.94957812,2.88664133,0.62814533,0.19494444

>  <Name>
1byj cryst

>  <RI>
0

>  <Rbt.Current_Directory>
/home/itssahil/PROJECTS/Mol_Feturizer/New_Systems/rnas/1byj

>  <Rbt.Executable>
rbdock ($Id: //depot/dev/client3/rdock/2013.1/src/exe/rbdock.cxx#4 $)

>  <Rbt.Library>
libRbt.so (2013.1, Build901 2013/11/27)

>  <Rbt.Parameter_File>
/export/apps/rDock/src/rDock_2013.1_src/data/scripts/dock_solv.prm

>  <Rbt.Receptor>
prm/blind_docking_80.prm

>  <SCORE>
-2.52883

>  <SCORE.INTER>
-23.6602

>  <SCORE.INTER.CONST>
1

>  <SCORE.INTER.POLAR>
-4.85917

>  <SCORE.INTER.ROT>
6

>  <SCORE.INTER.SOLV>
28.8508

>  <SCORE.INTER.VDW>
-16.7932

>  <SCORE.INTER.norm>
-0.763233

>  <SCORE.INTRA>
19.1798

>  <SCORE.INTRA.DIHEDRAL>
14.8652

>  <SCORE.INTRA.DIHEDRAL.0>
18.4149

>  <SCORE.INTRA.POLAR>
0

>  <SCORE.INTRA.POLAR.0>
0

>  <SCORE.INTRA.REPUL>
-0.092687

>  <SCORE.INTRA.REPUL.0>
0.092687

>  <SCORE.INTRA.SOLV>
-0.82192

>  <SCORE.INTRA.SOLV.lig_0>
-120.37

>  <SCORE.INTRA.VDW>
12.6216

>  <SCORE.INTRA.VDW.0>
-1.75542

>  <SCORE.INTRA.norm>
0.618703

>  <SCORE.RESTR>
1.95159

>  <SCORE.RESTR.CAVITY>
1.95159

>  <SCORE.RESTR.norm>
0.0629546

>  <SCORE.SYSTEM>
0

>  <SCORE.SYSTEM.CONST>
0

>  <SCORE.SYSTEM.DIHEDRAL>
0

>  <SCORE.SYSTEM.SOLV>
0

>  <SCORE.SYSTEM.norm>
0

>  <SCORE.heavy>
31

>  <SCORE.norm>
-0.0815751

>  <RMSD>
14.499

$$$$
1byj cryst
 OpenBabel11021811383D
libRbt.so/2013.1/901 2013/11/27
 31 33  0  0  0  0  0  0  0  0999 V2000
   -2.2911   -3.5442   -6.2368 C   0  0  1  0  0  0  0  0  0  0  0  0
   -1.2520   -2.5550   -5.9472 O   0  0  0  0  0  0  0  0  0  0  0  0
    0.1463   -2.9564   -6.0573 C   0  0  2  0  0  0  0  0  0  0  0  0
    0.5167   -3.2171   -7.4472 O   0  0  0  0  0  0  0  0  0  0  0  0
    0.3935   -4.2123   -5.1675 C   0  0  2  0  0  0  0  0  0  0  0  0
    1.7879   -4.6943   -5.2148 N   0  3  0  0  0  0  0  0  0  0  0  0
   -0.5844   -5.3476   -5.5661 C   0  0  0  0  0  0  0  0  0  0  0  0
   -2.0435   -4.8760   -5.4760 C   0  0  0  0  0  0  0  0  0  0  0  0
   -3.6634   -2.9768   -5.8331 C   0  0  0  0  0  0  0  0  0  0  0  0
   -3.9171   -1.6210   -6.3378 N   0  3  0  0  0  0  0  0  0  0  0  0
    1.3839   -1.3745   -8.8339 C   0  0  1  0  0  0  0  0  0  0  0  0
    2.6362   -0.7692   -9.5134 C   0  0  0  0  0  0  0  0  0  0  0  0
    3.3087   -1.8144  -10.4436 C   0  0  1  0  0  0  0  0  0  0  0  0
    4.4536   -1.2011  -11.1433 N   0  3  0  0  0  0  0  0  0  0  0  0
    3.7318   -3.0695   -9.6266 C   0  0  1  0  0  0  0  0  0  0  0  0
    2.5398   -3.6652   -8.8364 C   0  0  1  0  0  0  0  0  0  0  0  0
    3.0733   -4.6859   -8.0058 O   0  0  0  0  0  0  0  0  0  0  0  0
    1.7475   -2.6287   -7.9732 C   0  0  2  0  0  0  0  0  0  0  0  0
    0.6951   -0.3457   -8.0349 N   0  3  0  0  0  0  0  0  0  0  0  0
    5.3267   -6.9570  -10.6830 C   0  0  0  0  0  0  0  0  0  0  0  0
    6.2080   -6.9805  -11.9560 C   0  0  2  0  0  0  0  0  0  0  0  0
    7.5365   -7.2904  -11.5374 O   0  0  0  0  0  0  0  0  0  0  0  0
    6.1541   -5.5710  -12.6572 C   0  0  1  0  0  0  0  0  0  0  0  0
    6.3969   -4.3856  -11.6623 C   0  0  2  0  0  0  0  0  0  0  0  0
    5.6077   -4.5215  -10.3355 C   0  0  1  0  0  0  0  0  0  0  0  0
    4.2252   -4.1149  -10.5121 O   0  0  0  0  0  0  0  0  0  0  0  0
    5.7138   -5.8708   -9.7997 O   0  0  0  0  0  0  0  0  0  0  0  0
    6.0803   -3.1308  -12.2593 O   0  0  0  0  0  0  0  0  0  0  0  0
    7.1404   -5.5272  -13.7813 N   0  3  0  0  0  0  0  0  0  0  0  0
    6.8164   -4.6491  -14.9241 C   0  0  0  0  0  0  0  0  0  0  0  0
    5.7307   -8.1381  -12.8671 C   0  0  0  0  0  0  0  0  0  0  0  0
  1  8  1  0  0  0  0
  1  9  1  1  0  0  0
  1  2  1  0  0  0  0
  2  3  1  0  0  0  0
  3  5  1  0  0  0  0
  3  4  1  6  0  0  0
  5  7  1  0  0  0  0
  5  6  1  6  0  0  0
  7  8  1  0  0  0  0
  9 10  1  0  0  0  0
 11 12  1  0  0  0  0
 11 18  1  0  0  0  0
 11 19  1  1  0  0  0
 12 13  1  0  0  0  0
 13 15  1  0  0  0  0
 13 14  1  1  0  0  0
 15 16  1  0  0  0  0
 15 26  1  6  0  0  0
 16 18  1  0  0  0  0
 16 17  1  1  0  0  0
 18  4  1  6  0  0  0
 20 21  1  0  0  0  0
 20 27  1  0  0  0  0
 21 31  1  6  0  0  0
 21 23  1  0  0  0  0
 21 22  1  0  0  0  0
 23 24  1  0  0  0  0
 23 29  1  6  0  0  0
 24 25  1  0  0  0  0
 24 28  1  6  0  0  0
 25 27  1  0  0  0  0
 25 26  1  6  0  0  0
 29 30  1  0  0  0  0
M  CHG  5   6   1  10   1  14   1  19   1  29   1
M  END
>  <CHROM.1>
48.86992932,132.17096156,-101.43583063,65.03534671,72.06682170,68.59473337
148.43982164,117.83926136,-59.10340742,57.84884764,-88.35387956,-72.56948406
-124.27577965,2.78470923,-3.94357317,-9.19611391,3.13157618,0.71421222,-0.37293358

>  <Name>
1byj cryst

>  <RI>
0

>  <Rbt.Current_Directory>
/home/itssahil/PROJECTS/Mol_Feturizer/New_Systems/rnas/1byj

>  <Rbt.Executable>
rbdock ($Id: //depot/dev/client3/rdock/2013.1/src/exe/rbdock.cxx#4 $)

>  <Rbt.Library>
libRbt.so (2013.1, Build901 2013/11/27)

>  <Rbt.Parameter_File>
/export/apps/rDock/src/rDock_2013.1_src/data/scripts/dock_solv.prm

>  <Rbt.Receptor>
prm/blind_docking_80.prm

>  <SCORE>
-18.2633

>  <SCORE.INTER>
-18.2554

>  <SCORE.INTER.CONST>
1

>  <SCORE.INTER.POLAR>
-5.64396

>  <SCORE.INTER.ROT>
6

>  <SCORE.INTER.SOLV>
34.7093

>  <SCORE.INTER.VDW>
-12.5268

>  <SCORE.INTER.norm>
-0.588882

>  <SCORE.INTRA>
-1.90002

>  <SCORE.INTRA.DIHEDRAL>
13.6388

>  <SCORE.INTRA.DIHEDRAL.0>
18.4149

>  <SCORE.INTRA.POLAR>
-2.36318

>  <SCORE.INTRA.POLAR.0>
0

>  <SCORE.INTRA.REPUL>
-0.092687

>  <SCORE.INTRA.REPUL.0>
0.092687

>  <SCORE.INTRA.SOLV>
2.25296

>  <SCORE.INTRA.SOLV.lig_0>
-120.37

>  <SCORE.INTRA.VDW>
-1.34766

>  <SCORE.INTRA.VDW.0>
-1.75542

>  <SCORE.INTRA.norm>
-0.0612909

>  <SCORE.RESTR>
1.8921

>  <SCORE.RESTR.CAVITY>
1.8921

>  <SCORE.RESTR.norm>
0.0610354

>  <SCORE.SYSTEM>
0

>  <SCORE.SYSTEM.CONST>
0

>  <SCORE.SYSTEM.DIHEDRAL>
0

>  <SCORE.SYSTEM.SOLV>
0

>  <SCORE.SYSTEM.norm>
0

>  <SCORE.heavy>
31

>  <SCORE.norm>
-0.589138

>  <RMSD>
14.502

$$$$
1byj cryst
 OpenBabel11021811383D
libRbt.so/2013.1/901 2013/11/27
 31 33  0  0  0  0  0  0  0  0999 V2000
   -2.6014   -3.2591   -5.9606 C   0  0  1  0  0  0  0  0  0  0  0  0
   -1.2528   -3.1566   -5.4012 O   0  0  0  0  0  0  0  0  0  0  0  0
   -0.2605   -4.1570   -5.7794 C   0  0  2  0  0  0  0  0  0  0  0  0
    0.1099   -4.0323   -7.1880 O   0  0  0  0  0  0  0  0  0  0  0  0
   -0.8197   -5.5794   -5.4719 C   0  0  2  0  0  0  0  0  0  0  0  0
    0.1193   -6.6628   -5.8235 N   0  3  0  0  0  0  0  0  0  0  0  0
   -2.1766   -5.7851   -6.1933 C   0  0  0  0  0  0  0  0  0  0  0  0
   -3.1815   -4.6916   -5.8009 C   0  0  0  0  0  0  0  0  0  0  0  0
   -3.5267   -2.2550   -5.2508 C   0  0  0  0  0  0  0  0  0  0  0  0
   -4.5749   -1.6990   -6.1165 N   0  3  0  0  0  0  0  0  0  0  0  0
    0.8879   -1.8227   -7.9516 C   0  0  1  0  0  0  0  0  0  0  0  0
    2.1015   -0.9973   -8.4438 C   0  0  0  0  0  0  0  0  0  0  0  0
    2.7585   -1.6780   -9.6746 C   0  0  1  0  0  0  0  0  0  0  0  0
    3.8640   -0.8419  -10.1804 N   0  3  0  0  0  0  0  0  0  0  0  0
    3.2367   -3.1122   -9.3058 C   0  0  1  0  0  0  0  0  0  0  0  0
    2.0874   -3.9613   -8.7073 C   0  0  1  0  0  0  0  0  0  0  0  0
    2.6718   -5.1739   -8.2553 O   0  0  0  0  0  0  0  0  0  0  0  0
    1.3082   -3.2716   -7.5392 C   0  0  2  0  0  0  0  0  0  0  0  0
    0.2098   -1.1171   -6.8499 N   0  3  0  0  0  0  0  0  0  0  0  0
    5.4199   -6.2979  -10.9801 C   0  0  0  0  0  0  0  0  0  0  0  0
    5.9223   -6.1703  -12.4391 C   0  0  2  0  0  0  0  0  0  0  0  0
    7.3473   -6.1185  -12.3862 O   0  0  0  0  0  0  0  0  0  0  0  0
    5.3358   -4.8577  -13.0828 C   0  0  1  0  0  0  0  0  0  0  0  0
    5.5169   -3.5977  -12.1698 C   0  0  2  0  0  0  0  0  0  0  0  0
    5.1545   -3.8538  -10.6849 C   0  0  1  0  0  0  0  0  0  0  0  0
    3.7166   -3.8124  -10.4890 O   0  0  0  0  0  0  0  0  0  0  0  0
    5.7322   -5.1041  -10.2137 O   0  0  0  0  0  0  0  0  0  0  0  0
    4.7512   -2.4941  -12.6464 O   0  0  0  0  0  0  0  0  0  0  0  0
    5.9573   -4.6309  -14.4247 N   0  3  0  0  0  0  0  0  0  0  0  0
    7.4262   -4.4807  -14.4668 C   0  0  0  0  0  0  0  0  0  0  0  0
    5.5369   -7.4571  -13.2097 C   0  0  0  0  0  0  0  0  0  0  0  0
  1  8  1  0  0  0  0
  1  9  1  1  0  0  0
  1  2  1  0  0  0  0
  2  3  1  0  0  0  0
  3  5  1  0  0  0  0
  3  4  1  6  0  0  0
  5  7  1  0  0  0  0
  5  6  1  6  0  0  0
  7  8  1  0  0  0  0
  9 10  1  0  0  0  0
 11 12  1  0  0  0  0
 11 18  1  0  0  0  0
 11 19  1  1  0  0  0
 12 13  1  0  0  0  0
 13 15  1  0  0  0  0
 13 14  1  1  0  0  0
 15 16  1  0  0  0  0
 15 26  1  6  0  0  0
 16 18  1  0  0  0  0
 16 17  1  1  0  0  0
 18  4  1  6  0  0  0
 20 21  1  0  0  0  0
 20 27  1  0  0  0  0
 21 31  1  6  0  0  0
 21 23  1  0  0  0  0
 21 22  1  0  0  0  0
 23 24  1  0  0  0  0
 23 29  1  6  0  0  0
 24 25  1  0  0  0  0
 24 28  1  6  0  0  0
 25 27  1  0  0  0  0
 25 26  1  6  0  0  0
 29 30  1  0  0  0  0
M  CHG  5   6   1  10   1  14   1  19   1  29   1
M  END
>  <CHROM.1>
146.81996823,96.13533068,-97.48573865,100.95066034,-48.15389553,73.32001627
-77.49679430,99.66629412,67.86959242,-53.74252547,61.71441743,-57.34880275
-137.55557897,2.23262949,-3.92547737,-9.14716542,3.11210174,0.71195429,-0.16352925

>  <Name>
1byj cryst

>  <RI>
0

>  <Rbt.Current_Directory>
/home/itssahil/PROJECTS/Mol_Feturizer/New_Systems/rnas/1byj

>  <Rbt.Executable>
rbdock ($Id: //depot/dev/client3/rdock/2013.1/src/exe/rbdock.cxx#4 $)

>  <Rbt.Library>
libRbt.so (2013.1, Build901 2013/11/27)

>  <Rbt.Parameter_File>
/export/apps/rDock/src/rDock_2013.1_src/data/scripts/dock_solv.prm

>  <Rbt.Receptor>
prm/blind_docking_80.prm

>  <SCORE>
-17.0846

>  <SCORE.INTER>
-18.3977

>  <SCORE.INTER.CONST>
1

>  <SCORE.INTER.POLAR>
-3.70944

>  <SCORE.INTER.ROT>
6

>  <SCORE.INTER.SOLV>
31.6685

>  <SCORE.INTER.VDW>
-18.0565

>  <SCORE.INTER.norm>
-0.593474

>  <SCORE.INTRA>
-0.20686

>  <SCORE.INTRA.DIHEDRAL>
10.5514

>  <SCORE.INTRA.DIHEDRAL.0>
18.4149

>  <SCORE.INTRA.POLAR>
-1.86673

>  <SCORE.INTRA.POLAR.0>
0

>  <SCORE.INTRA.REPUL>
-0.092687

>  <SCORE.INTRA.REPUL.0>
0.092687

>  <SCORE.INTRA.SOLV>
0.10006

>  <SCORE.INTRA.SOLV.lig_0>
-120.37

>  <SCORE.INTRA.VDW>
1.27775

>  <SCORE.INTRA.VDW.0>
-1.75542

>  <SCORE.INTRA.norm>
-0.00667291

>  <SCORE.RESTR>
1.51997

>  <SCORE.RESTR.CAVITY>
1.51997

>  <SCORE.RESTR.norm>
0.0490314

>  <SCORE.SYSTEM>
0

>  <SCORE.SYSTEM.CONST>
0

>  <SCORE.SYSTEM.DIHEDRAL>
0

>  <SCORE.SYSTEM.SOLV>
0

>  <SCORE.SYSTEM.norm>
0

>  <SCORE.heavy>
31

>  <SCORE.norm>
-0.551115

>  <RMSD>
14.560

$$$$
1byj cryst
 OpenBabel11021811383D
libRbt.so/2013.1/901 2013/11/27
 31 33  0  0  0  0  0  0  0  0999 V2000
    2.4298   -0.8880   -8.5361 C   0  0  1  0  0  0  0  0  0  0  0  0
    3.0889   -1.9482   -7.7721 O   0  0  0  0  0  0  0  0  0  0  0  0
    2.5060   -2.3595   -6.4994 C   0  0  2  0  0  0  0  0  0  0  0  0
    1.2255   -3.0369   -6.6954 O   0  0  0  0  0  0  0  0  0  0  0  0
    2.3435   -1.1112   -5.5798 C   0  0  2  0  0  0  0  0  0  0  0  0
    1.7579   -1.4304   -4.2629 N   0  3  0  0  0  0  0  0  0  0  0  0
    1.4991   -0.0273   -6.2982 C   0  0  0  0  0  0  0  0  0  0  0  0
    2.1219    0.3508   -7.6505 C   0  0  0  0  0  0  0  0  0  0  0  0
    3.3348   -0.4632   -9.7060 C   0  0  0  0  0  0  0  0  0  0  0  0
    3.7460   -1.5753  -10.5728 N   0  3  0  0  0  0  0  0  0  0  0  0
    1.1275   -5.4814   -6.4038 C   0  0  1  0  0  0  0  0  0  0  0  0
    1.2107   -6.8553   -7.1123 C   0  0  0  0  0  0  0  0  0  0  0  0
    2.5425   -6.9810   -7.8998 C   0  0  1  0  0  0  0  0  0  0  0  0
    2.6434   -8.3227   -8.5051 N   0  3  0  0  0  0  0  0  0  0  0  0
    2.6460   -5.8531   -8.9669 C   0  0  1  0  0  0  0  0  0  0  0  0
    2.4662   -4.4502   -8.3346 C   0  0  1  0  0  0  0  0  0  0  0  0
    2.4079   -3.5250   -9.4101 O   0  0  0  0  0  0  0  0  0  0  0  0
    1.1998   -4.3018   -7.4282 C   0  0  2  0  0  0  0  0  0  0  0  0
   -0.0902   -5.4118   -5.5768 N   0  3  0  0  0  0  0  0  0  0  0  0
    5.0422   -3.9662  -11.7294 C   0  0  0  0  0  0  0  0  0  0  0  0
    6.3009   -4.6636  -12.3014 C   0  0  2  0  0  0  0  0  0  0  0  0
    6.0611   -4.8823  -13.6909 O   0  0  0  0  0  0  0  0  0  0  0  0
    6.5315   -6.0284  -11.5493 C   0  0  1  0  0  0  0  0  0  0  0  0
    5.2330   -6.8996  -11.4556 C   0  0  2  0  0  0  0  0  0  0  0  0
    3.9765   -6.0927  -11.0411 C   0  0  1  0  0  0  0  0  0  0  0  0
    3.9541   -5.8712   -9.6065 O   0  0  0  0  0  0  0  0  0  0  0  0
    3.8871   -4.8451  -11.7857 O   0  0  0  0  0  0  0  0  0  0  0  0
    5.3998   -7.9881  -10.5508 O   0  0  0  0  0  0  0  0  0  0  0  0
    7.6330   -6.7923  -12.2139 N   0  3  0  0  0  0  0  0  0  0  0  0
    8.3220   -7.8173  -11.4036 C   0  0  0  0  0  0  0  0  0  0  0  0
    7.5001   -3.6904  -12.1889 C   0  0  0  0  0  0  0  0  0  0  0  0
  1  8  1  0  0  0  0
  1  9  1  6  0  0  0
  1  2  1  0  0  0  0
  2  3  1  0  0  0  0
  3  5  1  0  0  0  0
  3  4  1  6  0  0  0
  5  7  1  0  0  0  0
  5  6  1  1  0  0  0
  7  8  1  0  0  0  0
  9 10  1  0  0  0  0
 11 12  1  0  0  0  0
 11 18  1  0  0  0  0
 11 19  1  6  0  0  0
 12 13  1  0  0  0  0
 13 15  1  0  0  0  0
 13 14  1  6  0  0  0
 15 16  1  0  0  0  0
 15 26  1  1  0  0  0
 16 18  1  0  0  0  0
 16 17  1  6  0  0  0
 18  4  1  1  0  0  0
 20 21  1  0  0  0  0
 20 27  1  0  0  0  0
 21 31  1  1  0  0  0
 21 23  1  0  0  0  0
 21 22  1  0  0  0  0
 23 24  1  0  0  0  0
 23 29  1  6  0  0  0
 24 25  1  0  0  0  0
 24 28  1  1  0  0  0
 25 27  1  0  0  0  0
 25 26  1  1  0  0  0
 29 30  1  0  0  0  0
M  CHG  5   6   1  10   1  14   1  19   1  29   1
M  END
>  <CHROM.1>
54.52458030,63.63759094,100.08805462,59.77564027,-42.08222156,-166.03555514
65.81876038,119.35659219,63.28367533,62.80135676,-80.84587355,-168.69713812
-146.02022048,3.55516882,-4.32290122,-9.13870287,-2.62981370,-0.85688982
-3.12891664

>  <Name>
1byj cryst

>  <RI>
0

>  <Rbt.Current_Directory>
/home/itssahil/PROJECTS/Mol_Feturizer/New_Systems/rnas/1byj

>  <Rbt.Executable>
rbdock ($Id: //depot/dev/client3/rdock/2013.1/src/exe/rbdock.cxx#4 $)

>  <Rbt.Library>
libRbt.so (2013.1, Build901 2013/11/27)

>  <Rbt.Parameter_File>
/export/apps/rDock/src/rDock_2013.1_src/data/scripts/dock_solv.prm

>  <Rbt.Receptor>
prm/blind_docking_80.prm

>  <SCORE>
-31.2079

>  <SCORE.INTER>
-38.956

>  <SCORE.INTER.CONST>
1

>  <SCORE.INTER.POLAR>
-6.26092

>  <SCORE.INTER.ROT>
6

>  <SCORE.INTER.SOLV>
24.3479

>  <SCORE.INTER.VDW>
-20.8169

>  <SCORE.INTER.norm>
-1.25664

>  <SCORE.INTRA>
3.13589

>  <SCORE.INTRA.DIHEDRAL>
2.06132

>  <SCORE.INTRA.DIHEDRAL.0>
18.4149

>  <SCORE.INTRA.POLAR>
-0.39095

>  <SCORE.INTRA.POLAR.0>
0

>  <SCORE.INTRA.REPUL>
-0.092687

>  <SCORE.INTRA.REPUL.0>
0.092687

>  <SCORE.INTRA.SOLV>
4.37328

>  <SCORE.INTRA.SOLV.lig_0>
-120.37

>  <SCORE.INTRA.VDW>
1.71125

>  <SCORE.INTRA.VDW.0>
-1.75542

>  <SCORE.INTRA.norm>
0.101158

>  <SCORE.RESTR>
4.61216

>  <SCORE.RESTR.CAVITY>
4.61216

>  <SCORE.RESTR.norm>
0.14878

>  <SCORE.SYSTEM>
0

>  <SCORE.SYSTEM.CONST>
0

>  <SCORE.SYSTEM.DIHEDRAL>
0

>  <SCORE.SYSTEM.SOLV>
0

>  <SCORE.SYSTEM.norm>
0

>  <SCORE.heavy>
31

>  <SCORE.norm>
-1.00671

>  <RMSD>
14.570

$$$$
1byj cryst
 OpenBabel11021811383D
libRbt.so/2013.1/901 2013/11/27
 31 33  0  0  0  0  0  0  0  0999 V2000
   -6.9491   -4.6263   -2.9100 C   0  0  1  0  0  0  0  0  0  0  0  0
   -7.1615   -4.4131   -4.3423 O   0  0  0  0  0  0  0  0  0  0  0  0
   -6.4669   -3.3091   -4.9960 C   0  0  2  0  0  0  0  0  0  0  0  0
   -5.0257   -3.5469   -5.0527 O   0  0  0  0  0  0  0  0  0  0  0  0
   -6.7857   -1.9818   -4.2429 C   0  0  2  0  0  0  0  0  0  0  0  0
   -6.1233   -0.8029   -4.8349 N   0  3  0  0  0  0  0  0  0  0  0  0
   -6.4104   -2.1168   -2.7446 C   0  0  0  0  0  0  0  0  0  0  0  0
   -7.1295   -3.3121   -2.1013 C   0  0  0  0  0  0  0  0  0  0  0  0
   -7.9472   -5.6791   -2.3966 C   0  0  0  0  0  0  0  0  0  0  0  0
   -9.3119   -5.5037   -2.9106 N   0  3  0  0  0  0  0  0  0  0  0  0
   -5.0099   -3.8902   -7.4924 C   0  0  1  0  0  0  0  0  0  0  0  0
   -4.2260   -3.6631   -8.8079 C   0  0  0  0  0  0  0  0  0  0  0  0
   -2.7927   -4.2485   -8.6945 C   0  0  1  0  0  0  0  0  0  0  0  0
   -2.0842   -4.0948   -9.9795 N   0  3  0  0  0  0  0  0  0  0  0  0
   -2.0249   -3.5703   -7.5231 C   0  0  1  0  0  0  0  0  0  0  0  0
   -2.8093   -3.6721   -6.1910 C   0  0  1  0  0  0  0  0  0  0  0  0
   -2.1058   -2.8815   -5.2445 O   0  0  0  0  0  0  0  0  0  0  0  0
   -4.3009   -3.2083   -6.2766 C   0  0  2  0  0  0  0  0  0  0  0  0
   -6.3996   -3.4245   -7.6450 N   0  3  0  0  0  0  0  0  0  0  0  0
    2.2727   -4.7279   -7.3563 C   0  0  0  0  0  0  0  0  0  0  0  0
    2.8779   -3.5540   -8.1645 C   0  0  2  0  0  0  0  0  0  0  0  0
    3.7640   -2.8582   -7.2888 O   0  0  0  0  0  0  0  0  0  0  0  0
    1.7206   -2.6077   -8.6612 C   0  0  1  0  0  0  0  0  0  0  0  0
    0.7148   -2.2256   -7.5226 C   0  0  2  0  0  0  0  0  0  0  0  0
    0.2866   -3.4304   -6.6470 C   0  0  1  0  0  0  0  0  0  0  0  0
   -0.7366   -4.2160   -7.3130 O   0  0  0  0  0  0  0  0  0  0  0  0
    1.4369   -4.2402   -6.2729 O   0  0  0  0  0  0  0  0  0  0  0  0
   -0.4533   -1.6000   -8.0473 O   0  0  0  0  0  0  0  0  0  0  0  0
    2.3042   -1.3791   -9.2844 N   0  3  0  0  0  0  0  0  0  0  0  0
    2.3604   -0.1640   -8.4464 C   0  0  0  0  0  0  0  0  0  0  0  0
    3.7328   -4.1356   -9.3173 C   0  0  0  0  0  0  0  0  0  0  0  0
  1  8  1  0  0  0  0
  1  9  1  1  0  0  0
  1  2  1  0  0  0  0
  2  3  1  0  0  0  0
  3  5  1  0  0  0  0
  3  4  1  1  0  0  0
  5  7  1  0  0  0  0
  5  6  1  6  0  0  0
  7  8  1  0  0  0  0
  9 10  1  0  0  0  0
 11 12  1  0  0  0  0
 11 18  1  0  0  0  0
 11 19  1  6  0  0  0
 12 13  1  0  0  0  0
 13 15  1  0  0  0  0
 13 14  1  6  0  0  0
 15 16  1  0  0  0  0
 15 26  1  1  0  0  0
 16 18  1  0  0  0  0
 16 17  1  1  0  0  0
 18  4  1  1  0  0  0
 20 21  1  0  0  0  0
 20 27  1  0  0  0  0
 21 31  1  6  0  0  0
 21 23  1  0  0  0  0
 21 22  1  0  0  0  0
 23 24  1  0  0  0  0
 23 29  1  1  0  0  0
 24 25  1  0  0  0  0
 24 28  1  6  0  0  0
 25 27  1  0  0  0  0
 25 26  1  6  0  0  0
 29 30  1  0  0  0  0
M  CHG  5   6   1  10   1  14   1  19   1  29   1
M  END
>  <CHROM.1>
-43.20441610,138.47096539,-52.58262971,-167.50556464,-56.63649259,-93.29605449
60.47877991,157.19061203,-75.00097682,-62.25729527,21.88968327,-168.01198917
-65.81103089,-2.60718897,-3.30616601,-6.42223395,-2.70082136,-0.09437626
-1.55839062

>  <Name>
1byj cryst

>  <RI>
0

>  <Rbt.Current_Directory>
/home/itssahil/PROJECTS/Mol_Feturizer/New_Systems/rnas/1byj

>  <Rbt.Executable>
rbdock ($Id: //depot/dev/client3/rdock/2013.1/src/exe/rbdock.cxx#4 $)

>  <Rbt.Library>
libRbt.so (2013.1, Build901 2013/11/27)

>  <Rbt.Parameter_File>
/export/apps/rDock/src/rDock_2013.1_src/data/scripts/dock_solv.prm

>  <Rbt.Receptor>
prm/blind_docking_100.prm

>  <SCORE>
-5.92217

>  <SCORE.INTER>
-17.2897

>  <SCORE.INTER.CONST>
1

>  <SCORE.INTER.POLAR>
-2.37232

>  <SCORE.INTER.ROT>
6

>  <SCORE.INTER.SOLV>
13.6481

>  <SCORE.INTER.VDW>
-15.7681

>  <SCORE.INTER.norm>
-0.557734

>  <SCORE.INTRA>
5.40657

>  <SCORE.INTRA.DIHEDRAL>
-1.97561

>  <SCORE.INTRA.DIHEDRAL.0>
18.4149

>  <SCORE.INTRA.POLAR>
0

>  <SCORE.INTRA.POLAR.0>
0

>  <SCORE.INTRA.REPUL>
-0.092687

>  <SCORE.INTRA.REPUL.0>
0.092687

>  <SCORE.INTRA.SOLV>
2.3152

>  <SCORE.INTRA.SOLV.lig_0>
-120.37

>  <SCORE.INTRA.VDW>
5.70021

>  <SCORE.INTRA.VDW.0>
-1.75542

>  <SCORE.INTRA.norm>
0.174405

>  <SCORE.RESTR>
5.961

>  <SCORE.RESTR.CAVITY>
5.961

>  <SCORE.RESTR.norm>
0.19229

>  <SCORE.SYSTEM>
0

>  <SCORE.SYSTEM.CONST>
0

>  <SCORE.SYSTEM.DIHEDRAL>
0

>  <SCORE.SYSTEM.SOLV>
0

>  <SCORE.SYSTEM.norm>
0

>  <SCORE.heavy>
31

>  <SCORE.norm>
-0.191038

>  <RMSD>
14.573

$$$$
1byj cryst
 OpenBabel11021811383D
libRbt.so/2013.1/901 2013/11/27
 31 33  0  0  0  0  0  0  0  0999 V2000
   -2.5565   -3.8776   -6.2540 C   0  0  1  0  0  0  0  0  0  0  0  0
   -1.6194   -2.7887   -5.9740 O   0  0  0  0  0  0  0  0  0  0  0  0
   -0.1882   -3.0682   -6.0195 C   0  0  2  0  0  0  0  0  0  0  0  0
    0.2549   -3.3519   -7.3834 O   0  0  0  0  0  0  0  0  0  0  0  0
    0.1347   -4.2596   -5.0673 C   0  0  2  0  0  0  0  0  0  0  0  0
    1.5668   -4.6170   -5.0467 N   0  3  0  0  0  0  0  0  0  0  0  0
   -0.7246   -5.4928   -5.4477 C   0  0  0  0  0  0  0  0  0  0  0  0
   -2.2217   -5.1496   -5.4273 C   0  0  0  0  0  0  0  0  0  0  0  0
   -3.9872   -3.4184   -5.9218 C   0  0  0  0  0  0  0  0  0  0  0  0
   -4.9832   -3.8019   -6.9309 N   0  3  0  0  0  0  0  0  0  0  0  0
    1.1442   -1.4793   -8.7148 C   0  0  1  0  0  0  0  0  0  0  0  0
    2.4098   -0.8522   -9.3487 C   0  0  0  0  0  0  0  0  0  0  0  0
    3.1175   -1.8761  -10.2763 C   0  0  1  0  0  0  0  0  0  0  0  0
    4.2761   -1.2416  -10.9333 N   0  3  0  0  0  0  0  0  0  0  0  0
    3.5287   -3.1408   -9.4682 C   0  0  1  0  0  0  0  0  0  0  0  0
    2.3203   -3.7597   -8.7218 C   0  0  1  0  0  0  0  0  0  0  0  0
    2.8394   -4.7893   -7.8932 O   0  0  0  0  0  0  0  0  0  0  0  0
    1.4947   -2.7444   -7.8647 C   0  0  2  0  0  0  0  0  0  0  0  0
    0.4240   -0.4697   -7.9190 N   0  3  0  0  0  0  0  0  0  0  0  0
    5.4599   -6.8612  -10.6599 C   0  0  0  0  0  0  0  0  0  0  0  0
    6.2346   -6.7727  -11.9976 C   0  0  2  0  0  0  0  0  0  0  0  0
    7.6189   -6.9298  -11.6888 O   0  0  0  0  0  0  0  0  0  0  0  0
    5.9638   -5.3736  -12.6688 C   0  0  1  0  0  0  0  0  0  0  0  0
    6.1468   -4.1757  -11.6760 C   0  0  2  0  0  0  0  0  0  0  0  0
    5.4859   -4.4124  -10.2944 C   0  0  1  0  0  0  0  0  0  0  0  0
    4.0562   -4.1673  -10.3562 O   0  0  0  0  0  0  0  0  0  0  0  0
    5.7883   -5.7443   -9.7912 O   0  0  0  0  0  0  0  0  0  0  0  0
    5.6420   -2.9615  -12.2255 O   0  0  0  0  0  0  0  0  0  0  0  0
    6.8466   -5.2072  -13.8652 N   0  3  0  0  0  0  0  0  0  0  0  0
    6.3538   -5.7580  -15.1442 C   0  0  0  0  0  0  0  0  0  0  0  0
    5.8230   -7.9708  -12.8882 C   0  0  0  0  0  0  0  0  0  0  0  0
  1  8  1  0  0  0  0
  1  9  1  1  0  0  0
  1  2  1  0  0  0  0
  2  3  1  0  0  0  0
  3  5  1  0  0  0  0
  3  4  1  6  0  0  0
  5  7  1  0  0  0  0
  5  6  1  6  0  0  0
  7  8  1  0  0  0  0
  9 10  1  0  0  0  0
 11 12  1  0  0  0  0
 11 18  1  0  0  0  0
 11 19  1  1  0  0  0
 12 13  1  0  0  0  0
 13 15  1  0  0  0  0
 13 14  1  1  0  0  0
 15 16  1  0  0  0  0
 15 26  1  6  0  0  0
 16 18  1  0  0  0  0
 16 17  1  1  0  0  0
 18  4  1  6  0  0  0
 20 21  1  0  0  0  0
 20 27  1  0  0  0  0
 21 31  1  6  0  0  0
 21 23  1  0  0  0  0
 21 22  1  0  0  0  0
 23 24  1  0  0  0  0
 23 29  1  6  0  0  0
 24 25  1  0  0  0  0
 24 28  1  6  0  0  0
 25 27  1  0  0  0  0
 25 26  1  6  0  0  0
 29 30  1  0  0  0  0
M  CHG  5   6   1  10   1  14   1  19   1  29   1
M  END
>  <CHROM.1>
136.47946754,136.01093501,-98.69198153,-58.17587552,174.68892166,-173.38072190
-87.97343864,108.21218749,-54.60402469,-56.80573920,-152.92225825,-47.42135885
-121.04369478,2.55416493,-4.07230449,-9.17435856,3.11415011,0.68427089,-0.26019004

>  <Name>
1byj cryst

>  <RI>
0

>  <Rbt.Current_Directory>
/home/itssahil/PROJECTS/Mol_Feturizer/New_Systems/rnas/1byj

>  <Rbt.Executable>
rbdock ($Id: //depot/dev/client3/rdock/2013.1/src/exe/rbdock.cxx#4 $)

>  <Rbt.Library>
libRbt.so (2013.1, Build901 2013/11/27)

>  <Rbt.Parameter_File>
/export/apps/rDock/src/rDock_2013.1_src/data/scripts/dock_solv.prm

>  <Rbt.Receptor>
prm/blind_docking_80.prm

>  <SCORE>
-17.4145

>  <SCORE.INTER>
-18.9504

>  <SCORE.INTER.CONST>
1

>  <SCORE.INTER.POLAR>
-5.4051

>  <SCORE.INTER.ROT>
6

>  <SCORE.INTER.SOLV>
31.9963

>  <SCORE.INTER.VDW>
-12.8821

>  <SCORE.INTER.norm>
-0.611304

>  <SCORE.INTRA>
-0.392713

>  <SCORE.INTRA.DIHEDRAL>
15.2192

>  <SCORE.INTRA.DIHEDRAL.0>
18.4149

>  <SCORE.INTRA.POLAR>
-2.2637

>  <SCORE.INTRA.POLAR.0>
0

>  <SCORE.INTRA.REPUL>
-0.0836712

>  <SCORE.INTRA.REPUL.0>
0.092687

>  <SCORE.INTRA.SOLV>
2.26548

>  <SCORE.INTRA.SOLV.lig_0>
-120.37

>  <SCORE.INTRA.VDW>
-1.02015

>  <SCORE.INTRA.VDW.0>
-1.75542

>  <SCORE.INTRA.norm>
-0.0126682

>  <SCORE.RESTR>
1.92863

>  <SCORE.RESTR.CAVITY>
1.92863

>  <SCORE.RESTR.norm>
0.0622137

>  <SCORE.SYSTEM>
0

>  <SCORE.SYSTEM.CONST>
0

>  <SCORE.SYSTEM.DIHEDRAL>
0

>  <SCORE.SYSTEM.SOLV>
0

>  <SCORE.SYSTEM.norm>
0

>  <SCORE.heavy>
31

>  <SCORE.norm>
-0.561758

>  <RMSD>
14.606

$$$$
1byj cryst
 OpenBabel11021811383D
libRbt.so/2013.1/901 2013/11/27
 31 33  0  0  0  0  0  0  0  0999 V2000
   -8.0003   -1.7557   -4.7342 C   0  0  1  0  0  0  0  0  0  0  0  0
   -6.7541   -1.8167   -3.9692 O   0  0  0  0  0  0  0  0  0  0  0  0
   -6.3067   -3.1096   -3.4623 C   0  0  2  0  0  0  0  0  0  0  0  0
   -5.9026   -3.9967   -4.5516 O   0  0  0  0  0  0  0  0  0  0  0  0
   -7.4445   -3.7510   -2.6113 C   0  0  2  0  0  0  0  0  0  0  0  0
   -7.0823   -5.0688   -2.0535 N   0  3  0  0  0  0  0  0  0  0  0  0
   -8.7423   -3.8588   -3.4529 C   0  0  0  0  0  0  0  0  0  0  0  0
   -9.1595   -2.4861   -4.0017 C   0  0  0  0  0  0  0  0  0  0  0  0
   -8.3899   -0.2842   -4.9598 C   0  0  0  0  0  0  0  0  0  0  0  0
   -7.2409    0.6244   -5.0673 N   0  3  0  0  0  0  0  0  0  0  0  0
   -5.4790   -4.4746   -6.9312 C   0  0  1  0  0  0  0  0  0  0  0  0
   -4.8490   -3.9519   -8.2452 C   0  0  0  0  0  0  0  0  0  0  0  0
   -3.3533   -3.5980   -8.0277 C   0  0  1  0  0  0  0  0  0  0  0  0
   -2.7463   -3.1757   -9.3044 N   0  3  0  0  0  0  0  0  0  0  0  0
   -3.2124   -2.5057   -6.9283 C   0  0  1  0  0  0  0  0  0  0  0  0
   -3.9153   -2.9252   -5.6129 C   0  0  1  0  0  0  0  0  0  0  0  0
   -3.8709   -1.7972   -4.7516 O   0  0  0  0  0  0  0  0  0  0  0  0
   -5.3924   -3.4092   -5.7895 C   0  0  2  0  0  0  0  0  0  0  0  0
   -6.8677   -4.9043   -7.1722 N   0  3  0  0  0  0  0  0  0  0  0  0
    0.7101   -0.7546   -7.4207 C   0  0  0  0  0  0  0  0  0  0  0  0
    1.8920   -1.6260   -6.9294 C   0  0  2  0  0  0  0  0  0  0  0  0
    2.6457   -1.9949   -8.0835 O   0  0  0  0  0  0  0  0  0  0  0  0
    1.3328   -2.9008   -6.1923 C   0  0  1  0  0  0  0  0  0  0  0  0
    0.2160   -3.6360   -7.0086 C   0  0  2  0  0  0  0  0  0  0  0  0
   -0.8395   -2.6762   -7.6140 C   0  0  1  0  0  0  0  0  0  0  0  0
   -1.8099   -2.2758   -6.6111 O   0  0  0  0  0  0  0  0  0  0  0  0
   -0.2028   -1.5287   -8.2437 O   0  0  0  0  0  0  0  0  0  0  0  0
   -0.4522   -4.6131   -6.2149 O   0  0  0  0  0  0  0  0  0  0  0  0
    2.4570   -3.8357   -5.8752 N   0  3  0  0  0  0  0  0  0  0  0  0
    2.1615   -5.2821   -5.9276 C   0  0  0  0  0  0  0  0  0  0  0  0
    2.8118   -0.7555   -6.0381 C   0  0  0  0  0  0  0  0  0  0  0  0
  1  8  1  0  0  0  0
  1  9  1  1  0  0  0
  1  2  1  0  0  0  0
  2  3  1  0  0  0  0
  3  5  1  0  0  0  0
  3  4  1  6  0  0  0
  5  7  1  0  0  0  0
  5  6  1  6  0  0  0
  7  8  1  0  0  0  0
  9 10  1  0  0  0  0
 11 12  1  0  0  0  0
 11 18  1  0  0  0  0
 11 19  1  6  0  0  0
 12 13  1  0  0  0  0
 13 15  1  0  0  0  0
 13 14  1  6  0  0  0
 15 16  1  0  0  0  0
 15 26  1  1  0  0  0
 16 18  1  0  0  0  0
 16 17  1  1  0  0  0
 18  4  1  1  0  0  0
 20 21  1  0  0  0  0
 20 27  1  0  0  0  0
 21 31  1  1  0  0  0
 21 23  1  0  0  0  0
 21 22  1  0  0  0  0
 23 24  1  0  0  0  0
 23 29  1  6  0  0  0
 24 25  1  0  0  0  0
 24 28  1  1  0  0  0
 25 27  1  0  0  0  0
 25 26  1  1  0  0  0
 29 30  1  0  0  0  0
M  CHG  5   6   1  10   1  14   1  19   1  29   1
M  END
>  <CHROM.1>
31.41782639,28.13542627,-161.47605068,-87.85111406,59.07760232,176.88640078
-132.27915973,21.21604945,-59.80906225,-60.65025508,-24.70477662,61.57655915
-125.37124437,-3.32457641,-2.84414575,-5.93119253,2.98643084,-0.25747231
2.65979053

>  <Name>
1byj cryst

>  <RI>
0

>  <Rbt.Current_Directory>
/home/itssahil/PROJECTS/Mol_Feturizer/New_Systems/rnas/1byj

>  <Rbt.Executable>
rbdock ($Id: //depot/dev/client3/rdock/2013.1/src/exe/rbdock.cxx#4 $)

>  <Rbt.Library>
libRbt.so (2013.1, Build901 2013/11/27)

>  <Rbt.Parameter_File>
/export/apps/rDock/src/rDock_2013.1_src/data/scripts/dock_solv.prm

>  <Rbt.Receptor>
prm/blind_docking_40.prm

>  <SCORE>
-4.07188

>  <SCORE.INTER>
-23.586

>  <SCORE.INTER.CONST>
1

>  <SCORE.INTER.POLAR>
-4.86939

>  <SCORE.INTER.ROT>
6

>  <SCORE.INTER.SOLV>
28.2673

>  <SCORE.INTER.VDW>
-16.5151

>  <SCORE.INTER.norm>
-0.760838

>  <SCORE.INTRA>
10.6819

>  <SCORE.INTRA.DIHEDRAL>
9.04497

>  <SCORE.INTRA.DIHEDRAL.0>
18.4149

>  <SCORE.INTRA.POLAR>
-0.0269671

>  <SCORE.INTRA.POLAR.0>
0

>  <SCORE.INTRA.REPUL>
-0.092687

>  <SCORE.INTRA.REPUL.0>
0.092687

>  <SCORE.INTRA.SOLV>
-0.925545

>  <SCORE.INTRA.SOLV.lig_0>
-120.37

>  <SCORE.INTRA.VDW>
7.17726

>  <SCORE.INTRA.VDW.0>
-1.75542

>  <SCORE.INTRA.norm>
0.344576

>  <SCORE.RESTR>
8.83223

>  <SCORE.RESTR.CAVITY>
8.83223

>  <SCORE.RESTR.norm>
0.284911

>  <SCORE.SYSTEM>
0

>  <SCORE.SYSTEM.CONST>
0

>  <SCORE.SYSTEM.DIHEDRAL>
0

>  <SCORE.SYSTEM.SOLV>
0

>  <SCORE.SYSTEM.norm>
0

>  <SCORE.heavy>
31

>  <SCORE.norm>
-0.131351

>  <RMSD>
14.608

$$$$
1byj cryst
 OpenBabel11021811383D
libRbt.so/2013.1/901 2013/11/27
 31 33  0  0  0  0  0  0  0  0999 V2000
    0.8308   -2.3059   -7.4263 C   0  0  1  0  0  0  0  0  0  0  0  0
    1.7473   -2.1891   -6.2912 O   0  0  0  0  0  0  0  0  0  0  0  0
    1.5406   -3.0522   -5.1333 C   0  0  2  0  0  0  0  0  0  0  0  0
    1.8182   -4.4506   -5.4563 O   0  0  0  0  0  0  0  0  0  0  0  0
    0.0811   -2.8771   -4.6141 C   0  0  2  0  0  0  0  0  0  0  0  0
   -0.2231   -3.7154   -3.4378 N   0  3  0  0  0  0  0  0  0  0  0  0
   -0.9278   -3.1624   -5.7564 C   0  0  0  0  0  0  0  0  0  0  0  0
   -0.6542   -2.2635   -6.9715 C   0  0  0  0  0  0  0  0  0  0  0  0
    1.0919   -1.1553   -8.4143 C   0  0  0  0  0  0  0  0  0  0  0  0
    0.2196   -1.1778   -9.5958 N   0  3  0  0  0  0  0  0  0  0  0  0
    1.2980   -6.3711   -6.9093 C   0  0  1  0  0  0  0  0  0  0  0  0
    1.3246   -6.9204   -8.3565 C   0  0  0  0  0  0  0  0  0  0  0  0
    2.7594   -6.8376   -8.9430 C   0  0  1  0  0  0  0  0  0  0  0  0
    2.7860   -7.4351  -10.2918 N   0  3  0  0  0  0  0  0  0  0  0  0
    3.2537   -5.3621   -8.9516 C   0  0  1  0  0  0  0  0  0  0  0  0
    3.1544   -4.7182   -7.5460 C   0  0  1  0  0  0  0  0  0  0  0  0
    3.4641   -3.3419   -7.7074 O   0  0  0  0  0  0  0  0  0  0  0  0
    1.7608   -4.8783   -6.8533 C   0  0  2  0  0  0  0  0  0  0  0  0
   -0.0433   -6.5487   -6.3256 N   0  3  0  0  0  0  0  0  0  0  0  0
    7.1096   -5.3110  -11.1668 C   0  0  0  0  0  0  0  0  0  0  0  0
    6.5698   -5.5852  -12.5919 C   0  0  2  0  0  0  0  0  0  0  0  0
    6.9138   -4.4552  -13.3925 O   0  0  0  0  0  0  0  0  0  0  0  0
    5.0074   -5.7773  -12.5329 C   0  0  1  0  0  0  0  0  0  0  0  0
    4.2852   -4.6512  -11.7180 C   0  0  2  0  0  0  0  0  0  0  0  0
    4.9853   -4.3135  -10.3772 C   0  0  1  0  0  0  0  0  0  0  0  0
    4.6503   -5.2918   -9.3582 O   0  0  0  0  0  0  0  0  0  0  0  0
    6.4241   -4.1852  -10.5562 O   0  0  0  0  0  0  0  0  0  0  0  0
    2.9256   -4.9883  -11.4549 O   0  0  0  0  0  0  0  0  0  0  0  0
    4.4553   -5.8613  -13.9209 N   0  3  0  0  0  0  0  0  0  0  0  0
    4.5821   -4.6573  -14.7671 C   0  0  0  0  0  0  0  0  0  0  0  0
    7.3171   -6.8086  -13.1774 C   0  0  0  0  0  0  0  0  0  0  0  0
  1  8  1  0  0  0  0
  1  9  1  6  0  0  0
  1  2  1  0  0  0  0
  2  3  1  0  0  0  0
  3  5  1  0  0  0  0
  3  4  1  6  0  0  0
  5  7  1  0  0  0  0
  5  6  1  1  0  0  0
  7  8  1  0  0  0  0
  9 10  1  0  0  0  0
 11 12  1  0  0  0  0
 11 18  1  0  0  0  0
 11 19  1  6  0  0  0
 12 13  1  0  0  0  0
 13 15  1  0  0  0  0
 13 14  1  6  0  0  0
 15 16  1  0  0  0  0
 15 26  1  1  0  0  0
 16 18  1  0  0  0  0
 16 17  1  6  0  0  0
 18  4  1  1  0  0  0
 20 21  1  0  0  0  0
 20 27  1  0  0  0  0
 21 31  1  6  0  0  0
 21 23  1  0  0  0  0
 21 22  1  0  0  0  0
 23 24  1  0  0  0  0
 23 29  1  6  0  0  0
 24 25  1  0  0  0  0
 24 28  1  1  0  0  0
 25 27  1  0  0  0  0
 25 26  1  1  0  0  0
 29 30  1  0  0  0  0
M  CHG  5   6   1  10   1  14   1  19   1  29   1
M  END
>  <CHROM.1>
-179.93648690,-22.08991571,-148.74792935,-161.06705208,13.88138165,41.41724735
-154.47590735,131.85644600,175.37251158,71.54382102,56.46891102,-63.04785135
-64.26636016,2.91006251,-4.53511741,-9.05420699,3.05956254,-0.92873370,2.76161008

>  <Name>
1byj cryst

>  <RI>
0

>  <Rbt.Current_Directory>
/home/itssahil/PROJECTS/Mol_Feturizer/New_Systems/rnas/1byj

>  <Rbt.Executable>
rbdock ($Id: //depot/dev/client3/rdock/2013.1/src/exe/rbdock.cxx#4 $)

>  <Rbt.Library>
libRbt.so (2013.1, Build901 2013/11/27)

>  <Rbt.Parameter_File>
/export/apps/rDock/src/rDock_2013.1_src/data/scripts/dock_solv.prm

>  <Rbt.Receptor>
prm/blind_docking_80.prm

>  <SCORE>
-30.2126

>  <SCORE.INTER>
-38.5421

>  <SCORE.INTER.CONST>
1

>  <SCORE.INTER.POLAR>
-7.9161

>  <SCORE.INTER.ROT>
6

>  <SCORE.INTER.SOLV>
26.3781

>  <SCORE.INTER.VDW>
-15.7004

>  <SCORE.INTER.norm>
-1.24329

>  <SCORE.INTRA>
3.47316

>  <SCORE.INTRA.DIHEDRAL>
4.51499

>  <SCORE.INTRA.DIHEDRAL.0>
18.4149

>  <SCORE.INTRA.POLAR>
-1.34161

>  <SCORE.INTRA.POLAR.0>
0

>  <SCORE.INTRA.REPUL>
-0.0249609

>  <SCORE.INTRA.REPUL.0>
0.092687

>  <SCORE.INTRA.SOLV>
3.24022

>  <SCORE.INTRA.SOLV.lig_0>
-120.37

>  <SCORE.INTRA.VDW>
4.28182

>  <SCORE.INTRA.VDW.0>
-1.75542

>  <SCORE.INTRA.norm>
0.112037

>  <SCORE.RESTR>
4.85632

>  <SCORE.RESTR.CAVITY>
4.85632

>  <SCORE.RESTR.norm>
0.156656

>  <SCORE.SYSTEM>
0

>  <SCORE.SYSTEM.CONST>
0

>  <SCORE.SYSTEM.DIHEDRAL>
0

>  <SCORE.SYSTEM.SOLV>
0

>  <SCORE.SYSTEM.norm>
0

>  <SCORE.heavy>
31

>  <SCORE.norm>
-0.974601

>  <RMSD>
14.651

$$$$
1byj cryst
 OpenBabel11021811383D
libRbt.so/2013.1/901 2013/11/27
 31 33  0  0  0  0  0  0  0  0999 V2000
   -2.4477   -3.4717   -6.2797 C   0  0  1  0  0  0  0  0  0  0  0  0
   -1.1305   -3.3157   -5.6610 O   0  0  0  0  0  0  0  0  0  0  0  0
   -0.0965   -4.3009   -5.9588 C   0  0  2  0  0  0  0  0  0  0  0  0
    0.3379   -4.2111   -7.3517 O   0  0  0  0  0  0  0  0  0  0  0  0
   -0.6340   -5.7271   -5.6313 C   0  0  2  0  0  0  0  0  0  0  0  0
    0.3476   -6.7958   -5.9023 N   0  3  0  0  0  0  0  0  0  0  0  0
   -1.9491   -5.9916   -6.4088 C   0  0  0  0  0  0  0  0  0  0  0  0
   -2.9987   -4.9133   -6.1005 C   0  0  0  0  0  0  0  0  0  0  0  0
   -3.4308   -2.4705   -5.6478 C   0  0  0  0  0  0  0  0  0  0  0  0
   -4.7696   -2.4915   -6.2516 N   0  3  0  0  0  0  0  0  0  0  0  0
    0.9344   -1.9630   -8.1644 C   0  0  1  0  0  0  0  0  0  0  0  0
    2.0839   -1.0414   -8.6397 C   0  0  0  0  0  0  0  0  0  0  0  0
    2.8525   -1.6954   -9.8193 C   0  0  1  0  0  0  0  0  0  0  0  0
    3.8939   -0.7740  -10.3126 N   0  3  0  0  0  0  0  0  0  0  0  0
    3.4484   -3.0645   -9.3811 C   0  0  1  0  0  0  0  0  0  0  0  0
    2.3608   -4.0001   -8.7964 C   0  0  1  0  0  0  0  0  0  0  0  0
    3.0380   -5.1358   -8.2791 O   0  0  0  0  0  0  0  0  0  0  0  0
    1.4724   -3.3508   -7.6844 C   0  0  2  0  0  0  0  0  0  0  0  0
    0.1479   -1.2904   -7.1155 N   0  3  0  0  0  0  0  0  0  0  0  0
    5.2751   -6.4828  -11.1074 C   0  0  0  0  0  0  0  0  0  0  0  0
    6.1449   -6.2768  -12.3718 C   0  0  2  0  0  0  0  0  0  0  0  0
    7.4905   -6.5797  -12.0060 O   0  0  0  0  0  0  0  0  0  0  0  0
    6.0172   -4.7841  -12.8586 C   0  0  1  0  0  0  0  0  0  0  0  0
    6.2122   -3.7468  -11.7011 C   0  0  2  0  0  0  0  0  0  0  0  0
    5.4426   -4.1138  -10.4069 C   0  0  1  0  0  0  0  0  0  0  0  0
    4.0407   -3.7534  -10.5191 O   0  0  0  0  0  0  0  0  0  0  0  0
    5.6180   -5.5202  -10.0751 O   0  0  0  0  0  0  0  0  0  0  0  0
    5.8306   -2.4350  -12.1069 O   0  0  0  0  0  0  0  0  0  0  0  0
    6.9900   -4.5283  -13.9661 N   0  3  0  0  0  0  0  0  0  0  0  0
    6.5328   -4.8177  -15.3406 C   0  0  0  0  0  0  0  0  0  0  0  0
    5.7152   -7.3104  -13.4420 C   0  0  0  0  0  0  0  0  0  0  0  0
  1  8  1  0  0  0  0
  1  9  1  1  0  0  0
  1  2  1  0  0  0  0
  2  3  1  0  0  0  0
  3  5  1  0  0  0  0
  3  4  1  6  0  0  0
  5  7  1  0  0  0  0
  5  6  1  6  0  0  0
  7  8  1  0  0  0  0
  9 10  1  0  0  0  0
 11 12  1  0  0  0  0
 11 18  1  0  0  0  0
 11 19  1  1  0  0  0
 12 13  1  0  0  0  0
 13 15  1  0  0  0  0
 13 14  1  1  0  0  0
 15 16  1  0  0  0  0
 15 26  1  6  0  0  0
 16 18  1  0  0  0  0
 16 17  1  1  0  0  0
 18  4  1  6  0  0  0
 20 21  1  0  0  0  0
 20 27  1  0  0  0  0
 21 31  1  6  0  0  0
 21 23  1  0  0  0  0
 21 22  1  0  0  0  0
 23 24  1  0  0  0  0
 23 29  1  6  0  0  0
 24 25  1  0  0  0  0
 24 28  1  6  0  0  0
 25 27  1  0  0  0  0
 25 26  1  6  0  0  0
 29 30  1  0  0  0  0
M  CHG  5   6   1  10   1  14   1  19   1  29   1
M  END
>  <CHROM.1>
176.75823148,91.63599723,-96.07381990,-140.45926409,-35.46138704,66.55563706
156.69160091,122.70493216,-51.07235729,-63.31355317,-150.73928346,-1.27178331
-134.25308827,2.42781569,-4.06701937,-9.21454661,3.11071634,0.67567635,-0.14445573

>  <Name>
1byj cryst

>  <RI>
0

>  <Rbt.Current_Directory>
/home/itssahil/PROJECTS/Mol_Feturizer/New_Systems/rnas/1byj

>  <Rbt.Executable>
rbdock ($Id: //depot/dev/client3/rdock/2013.1/src/exe/rbdock.cxx#4 $)

>  <Rbt.Library>
libRbt.so (2013.1, Build901 2013/11/27)

>  <Rbt.Parameter_File>
/export/apps/rDock/src/rDock_2013.1_src/data/scripts/dock_solv.prm

>  <Rbt.Receptor>
prm/blind_docking_80.prm

>  <SCORE>
-27.0592

>  <SCORE.INTER>
-30.1289

>  <SCORE.INTER.CONST>
1

>  <SCORE.INTER.POLAR>
-5.85315

>  <SCORE.INTER.ROT>
6

>  <SCORE.INTER.SOLV>
33.1064

>  <SCORE.INTER.VDW>
-19.2109

>  <SCORE.INTER.norm>
-0.971901

>  <SCORE.INTRA>
1.21101

>  <SCORE.INTRA.DIHEDRAL>
18.0908

>  <SCORE.INTRA.DIHEDRAL.0>
18.4149

>  <SCORE.INTRA.POLAR>
-2.21444

>  <SCORE.INTRA.POLAR.0>
0

>  <SCORE.INTRA.REPUL>
-0.092687

>  <SCORE.INTRA.REPUL.0>
0.092687

>  <SCORE.INTRA.SOLV>
1.60794

>  <SCORE.INTRA.SOLV.lig_0>
-120.37

>  <SCORE.INTRA.VDW>
-0.645843

>  <SCORE.INTRA.VDW.0>
-1.75542

>  <SCORE.INTRA.norm>
0.0390649

>  <SCORE.RESTR>
1.85869

>  <SCORE.RESTR.CAVITY>
1.85869

>  <SCORE.RESTR.norm>
0.0599579

>  <SCORE.SYSTEM>
0

>  <SCORE.SYSTEM.CONST>
0

>  <SCORE.SYSTEM.DIHEDRAL>
0

>  <SCORE.SYSTEM.SOLV>
0

>  <SCORE.SYSTEM.norm>
0

>  <SCORE.heavy>
31

>  <SCORE.norm>
-0.872879

>  <RMSD>
14.661

$$$$
1byj cryst
 OpenBabel11021811383D
libRbt.so/2013.1/901 2013/11/27
 31 33  0  0  0  0  0  0  0  0999 V2000
   -1.2355   -2.6018   -5.9071 C   0  0  1  0  0  0  0  0  0  0  0  0
   -0.7805   -2.1772   -7.2318 O   0  0  0  0  0  0  0  0  0  0  0  0
    0.5606   -1.6183   -7.3651 C   0  0  2  0  0  0  0  0  0  0  0  0
    1.5855   -2.6339   -7.1305 O   0  0  0  0  0  0  0  0  0  0  0  0
    0.7211   -0.4229   -6.3773 C   0  0  2  0  0  0  0  0  0  0  0  0
    2.0533    0.2098   -6.4405 N   0  3  0  0  0  0  0  0  0  0  0  0
    0.4097   -0.8833   -4.9298 C   0  0  0  0  0  0  0  0  0  0  0  0
   -0.9934   -1.5015   -4.8373 C   0  0  0  0  0  0  0  0  0  0  0  0
   -2.7374   -2.9321   -5.9645 C   0  0  0  0  0  0  0  0  0  0  0  0
   -3.5563   -1.8705   -6.5642 N   0  3  0  0  0  0  0  0  0  0  0  0
    2.0407   -5.0508   -6.9844 C   0  0  1  0  0  0  0  0  0  0  0  0
    2.1142   -6.3850   -7.7662 C   0  0  0  0  0  0  0  0  0  0  0  0
    3.0795   -6.2543   -8.9749 C   0  0  1  0  0  0  0  0  0  0  0  0
    3.1999   -7.5532   -9.6643 N   0  3  0  0  0  0  0  0  0  0  0  0
    2.5921   -5.1304   -9.9346 C   0  0  1  0  0  0  0  0  0  0  0  0
    2.3978   -3.7866   -9.1885 C   0  0  1  0  0  0  0  0  0  0  0  0
    1.7958   -2.8927  -10.1129 O   0  0  0  0  0  0  0  0  0  0  0  0
    1.5307   -3.8821   -7.8899 C   0  0  2  0  0  0  0  0  0  0  0  0
    1.2043   -5.2145   -5.7823 N   0  3  0  0  0  0  0  0  0  0  0  0
    6.0980   -6.5843  -10.7071 C   0  0  0  0  0  0  0  0  0  0  0  0
    7.0451   -6.0962  -11.8306 C   0  0  2  0  0  0  0  0  0  0  0  0
    8.2151   -5.5824  -11.1955 O   0  0  0  0  0  0  0  0  0  0  0  0
    6.3257   -4.9766  -12.6734 C   0  0  1  0  0  0  0  0  0  0  0  0
    5.6719   -3.8674  -11.7811 C   0  0  2  0  0  0  0  0  0  0  0  0
    4.8798   -4.4327  -10.5748 C   0  0  1  0  0  0  0  0  0  0  0  0
    3.5687   -4.8983  -10.9896 O   0  0  0  0  0  0  0  0  0  0  0  0
    5.6363   -5.4731   -9.8936 O   0  0  0  0  0  0  0  0  0  0  0  0
    4.8106   -3.0257  -12.5432 O   0  0  0  0  0  0  0  0  0  0  0  0
    7.2927   -4.3727  -13.6422 N   0  3  0  0  0  0  0  0  0  0  0  0
    7.1217   -4.7230  -15.0670 C   0  0  0  0  0  0  0  0  0  0  0  0
    7.4799   -7.3178  -12.6771 C   0  0  0  0  0  0  0  0  0  0  0  0
  1  8  1  0  0  0  0
  1  9  1  6  0  0  0
  1  2  1  0  0  0  0
  2  3  1  0  0  0  0
  3  5  1  0  0  0  0
  3  4  1  1  0  0  0
  5  7  1  0  0  0  0
  5  6  1  1  0  0  0
  7  8  1  0  0  0  0
  9 10  1  0  0  0  0
 11 12  1  0  0  0  0
 11 18  1  0  0  0  0
 11 19  1  1  0  0  0
 12 13  1  0  0  0  0
 13 15  1  0  0  0  0
 13 14  1  6  0  0  0
 15 16  1  0  0  0  0
 15 26  1  6  0  0  0
 16 18  1  0  0  0  0
 16 17  1  6  0  0  0
 18  4  1  1  0  0  0
 20 21  1  0  0  0  0
 20 27  1  0  0  0  0
 21 31  1  6  0  0  0
 21 23  1  0  0  0  0
 21 22  1  0  0  0  0
 23 24  1  0  0  0  0
 23 29  1  6  0  0  0
 24 25  1  0  0  0  0
 24 28  1  6  0  0  0
 25 27  1  0  0  0  0
 25 26  1  6  0  0  0
 29 30  1  0  0  0  0
M  CHG  5   6   1  10   1  14   1  19   1  29   1
M  END
>  <CHROM.1>
-51.24185384,53.07450717,-145.66745842,-53.68821122,-42.31068564,-177.73264499
-174.19536716,-62.53305441,-60.85351724,-57.74415651,-131.80204205,-168.86834199
-164.58542918,2.91234424,-3.98087619,-9.13455830,2.92700973,0.74590355,-0.19164887

>  <Name>
1byj cryst

>  <RI>
0

>  <Rbt.Current_Directory>
/home/itssahil/PROJECTS/Mol_Feturizer/New_Systems/rnas/1byj

>  <Rbt.Executable>
rbdock ($Id: //depot/dev/client3/rdock/2013.1/src/exe/rbdock.cxx#4 $)

>  <Rbt.Library>
libRbt.so (2013.1, Build901 2013/11/27)

>  <Rbt.Parameter_File>
/export/apps/rDock/src/rDock_2013.1_src/data/scripts/dock_solv.prm

>  <Rbt.Receptor>
prm/blind_docking_80.prm

>  <SCORE>
-28.6429

>  <SCORE.INTER>
-26.6582

>  <SCORE.INTER.CONST>
1

>  <SCORE.INTER.POLAR>
-3.91881

>  <SCORE.INTER.ROT>
6

>  <SCORE.INTER.SOLV>
26.509

>  <SCORE.INTER.VDW>
-21.1457

>  <SCORE.INTER.norm>
-0.859941

>  <SCORE.INTRA>
-5.13819

>  <SCORE.INTRA.DIHEDRAL>
-7.29117

>  <SCORE.INTRA.DIHEDRAL.0>
18.4149

>  <SCORE.INTRA.POLAR>
-0.0180421

>  <SCORE.INTRA.POLAR.0>
0

>  <SCORE.INTRA.REPUL>
-0.092687

>  <SCORE.INTRA.REPUL.0>
0.092687

>  <SCORE.INTRA.SOLV>
0.075444

>  <SCORE.INTRA.SOLV.lig_0>
-120.37

>  <SCORE.INTRA.VDW>
-1.00555

>  <SCORE.INTRA.VDW.0>
-1.75542

>  <SCORE.INTRA.norm>
-0.165748

>  <SCORE.RESTR>
3.15346

>  <SCORE.RESTR.CAVITY>
3.15346

>  <SCORE.RESTR.norm>
0.101725

>  <SCORE.SYSTEM>
0

>  <SCORE.SYSTEM.CONST>
0

>  <SCORE.SYSTEM.DIHEDRAL>
0

>  <SCORE.SYSTEM.SOLV>
0

>  <SCORE.SYSTEM.norm>
0

>  <SCORE.heavy>
31

>  <SCORE.norm>
-0.923964

>  <RMSD>
14.665

$$$$
1byj cryst
 OpenBabel11021811383D
libRbt.so/2013.1/901 2013/11/27
 31 33  0  0  0  0  0  0  0  0999 V2000
   -0.7572   -3.0020   -5.7091 C   0  0  1  0  0  0  0  0  0  0  0  0
    0.6926   -2.8701   -5.5584 O   0  0  0  0  0  0  0  0  0  0  0  0
    1.5598   -3.7459   -6.3392 C   0  0  2  0  0  0  0  0  0  0  0  0
    1.4892   -3.4305   -7.7648 O   0  0  0  0  0  0  0  0  0  0  0  0
    1.1654   -5.2307   -6.0745 C   0  0  2  0  0  0  0  0  0  0  0  0
    1.9924   -6.1957   -6.8255 N   0  3  0  0  0  0  0  0  0  0  0  0
   -0.3373   -5.4464   -6.3900 C   0  0  0  0  0  0  0  0  0  0  0  0
   -1.2153   -4.4809   -5.5797 C   0  0  0  0  0  0  0  0  0  0  0  0
   -1.4616   -2.1567   -4.6333 C   0  0  0  0  0  0  0  0  0  0  0  0
   -1.3516   -0.7082   -4.8501 N   0  3  0  0  0  0  0  0  0  0  0  0
    2.2015   -1.4728   -9.0802 C   0  0  1  0  0  0  0  0  0  0  0  0
    3.3585   -0.8246   -9.8788 C   0  0  0  0  0  0  0  0  0  0  0  0
    3.8503   -1.7822  -10.9973 C   0  0  1  0  0  0  0  0  0  0  0  0
    4.8984   -1.1220  -11.7988 N   0  3  0  0  0  0  0  0  0  0  0  0
    4.3481   -3.1211  -10.3799 C   0  0  1  0  0  0  0  0  0  0  0  0
    3.2676   -3.7721   -9.4807 C   0  0  1  0  0  0  0  0  0  0  0  0
    3.8843   -4.8812   -8.8438 O   0  0  0  0  0  0  0  0  0  0  0  0
    2.6470   -2.8142   -8.4108 C   0  0  2  0  0  0  0  0  0  0  0  0
    1.6735   -0.5180   -8.0899 N   0  3  0  0  0  0  0  0  0  0  0  0
    6.4032   -6.4247  -10.5232 C   0  0  0  0  0  0  0  0  0  0  0  0
    6.7359   -7.2120  -11.8143 C   0  0  2  0  0  0  0  0  0  0  0  0
    8.1549   -7.1892  -11.9624 O   0  0  0  0  0  0  0  0  0  0  0  0
    6.0313   -6.5245  -13.0441 C   0  0  1  0  0  0  0  0  0  0  0  0
    6.2633   -4.9760  -13.0919 C   0  0  2  0  0  0  0  0  0  0  0  0
    6.0776   -4.2811  -11.7191 C   0  0  1  0  0  0  0  0  0  0  0  0
    4.6697   -4.0801  -11.4275 O   0  0  0  0  0  0  0  0  0  0  0  0
    6.7518   -5.0215  -10.6626 O   0  0  0  0  0  0  0  0  0  0  0  0
    5.4074   -4.3498  -14.0439 O   0  0  0  0  0  0  0  0  0  0  0  0
    6.4914   -7.1666  -14.3146 N   0  3  0  0  0  0  0  0  0  0  0  0
    5.9305   -6.6379  -15.5747 C   0  0  0  0  0  0  0  0  0  0  0  0
    6.3177   -8.6897  -11.6146 C   0  0  0  0  0  0  0  0  0  0  0  0
  1  8  1  0  0  0  0
  1  9  1  1  0  0  0
  1  2  1  0  0  0  0
  2  3  1  0  0  0  0
  3  5  1  0  0  0  0
  3  4  1  6  0  0  0
  5  7  1  0  0  0  0
  5  6  1  6  0  0  0
  7  8  1  0  0  0  0
  9 10  1  0  0  0  0
 11 12  1  0  0  0  0
 11 18  1  0  0  0  0
 11 19  1  1  0  0  0
 12 13  1  0  0  0  0
 13 15  1  0  0  0  0
 13 14  1  1  0  0  0
 15 16  1  0  0  0  0
 15 26  1  6  0  0  0
 16 18  1  0  0  0  0
 16 17  1  1  0  0  0
 18  4  1  6  0  0  0
 20 21  1  0  0  0  0
 20 27  1  0  0  0  0
 21 31  1  1  0  0  0
 21 23  1  0  0  0  0
 21 22  1  0  0  0  0
 23 24  1  0  0  0  0
 23 29  1  6  0  0  0
 24 25  1  0  0  0  0
 24 28  1  6  0  0  0
 25 27  1  0  0  0  0
 25 26  1  1  0  0  0
 29 30  1  0  0  0  0
M  CHG  5   6   1  10   1  14   1  19   1  29   1
M  END
>  <CHROM.1>
70.91193234,109.95456411,-123.68260256,7.30092388,-175.09414354,-175.18261912
-99.62215666,103.23700676,-59.67275222,-68.49442660,-58.71068708,66.57591768
-163.15641440,3.47473551,-4.18767459,-9.58078826,3.03462066,0.86757614,-0.30653581

>  <Name>
1byj cryst

>  <RI>
0

>  <Rbt.Current_Directory>
/home/itssahil/PROJECTS/Mol_Feturizer/New_Systems/rnas/1byj

>  <Rbt.Executable>
rbdock ($Id: //depot/dev/client3/rdock/2013.1/src/exe/rbdock.cxx#4 $)

>  <Rbt.Library>
libRbt.so (2013.1, Build901 2013/11/27)

>  <Rbt.Parameter_File>
/export/apps/rDock/src/rDock_2013.1_src/data/scripts/dock_solv.prm

>  <Rbt.Receptor>
prm/blind_docking_80.prm

>  <SCORE>
-13.9263

>  <SCORE.INTER>
-19.4102

>  <SCORE.INTER.CONST>
1

>  <SCORE.INTER.POLAR>
-4.08265

>  <SCORE.INTER.ROT>
6

>  <SCORE.INTER.SOLV>
27.2543

>  <SCORE.INTER.VDW>
-16.0161

>  <SCORE.INTER.norm>
-0.626135

>  <SCORE.INTRA>
0.691265

>  <SCORE.INTRA.DIHEDRAL>
10.0777

>  <SCORE.INTRA.DIHEDRAL.0>
18.4149

>  <SCORE.INTRA.POLAR>
-1.19101

>  <SCORE.INTRA.POLAR.0>
0

>  <SCORE.INTRA.REPUL>
-0.092687

>  <SCORE.INTRA.REPUL.0>
0.092687

>  <SCORE.INTRA.SOLV>
0.260803

>  <SCORE.INTRA.SOLV.lig_0>
-120.37

>  <SCORE.INTRA.VDW>
0.0348914

>  <SCORE.INTRA.VDW.0>
-1.75542

>  <SCORE.INTRA.norm>
0.0222989

>  <SCORE.RESTR>
4.79265

>  <SCORE.RESTR.CAVITY>
4.79265

>  <SCORE.RESTR.norm>
0.154602

>  <SCORE.SYSTEM>
0

>  <SCORE.SYSTEM.CONST>
0

>  <SCORE.SYSTEM.DIHEDRAL>
0

>  <SCORE.SYSTEM.SOLV>
0

>  <SCORE.SYSTEM.norm>
0

>  <SCORE.heavy>
31

>  <SCORE.norm>
-0.449235

>  <RMSD>
14.698

$$$$
1byj cryst
 OpenBabel11021811383D
libRbt.so/2013.1/901 2013/11/27
 31 33  0  0  0  0  0  0  0  0999 V2000
   -2.5076   -3.8141   -6.5033 C   0  0  1  0  0  0  0  0  0  0  0  0
   -1.2246   -3.5284   -5.8596 O   0  0  0  0  0  0  0  0  0  0  0  0
   -0.0954   -4.4128   -6.1266 C   0  0  2  0  0  0  0  0  0  0  0  0
    0.3579   -4.2930   -7.5111 O   0  0  0  0  0  0  0  0  0  0  0  0
   -0.5016   -5.8812   -5.7960 C   0  0  2  0  0  0  0  0  0  0  0  0
    0.5827   -6.8536   -6.0364 N   0  3  0  0  0  0  0  0  0  0  0  0
   -1.7689   -6.2760   -6.5975 C   0  0  0  0  0  0  0  0  0  0  0  0
   -2.9226   -5.3002   -6.3212 C   0  0  0  0  0  0  0  0  0  0  0  0
   -3.5947   -2.9063   -5.9015 C   0  0  0  0  0  0  0  0  0  0  0  0
   -3.6219   -1.5536   -6.4732 N   0  3  0  0  0  0  0  0  0  0  0  0
    0.9616   -2.0280   -8.2698 C   0  0  1  0  0  0  0  0  0  0  0  0
    2.1161   -1.0951   -8.7097 C   0  0  0  0  0  0  0  0  0  0  0  0
    2.9030   -1.7239   -9.8909 C   0  0  1  0  0  0  0  0  0  0  0  0
    3.9496   -0.7911  -10.3504 N   0  3  0  0  0  0  0  0  0  0  0  0
    3.4952   -3.1005   -9.4715 C   0  0  1  0  0  0  0  0  0  0  0  0
    2.4011   -4.0496   -8.9217 C   0  0  1  0  0  0  0  0  0  0  0  0
    3.0730   -5.1943   -8.4175 O   0  0  0  0  0  0  0  0  0  0  0  0
    1.4953   -3.4243   -7.8099 C   0  0  2  0  0  0  0  0  0  0  0  0
    0.1586   -1.3779   -7.2191 N   0  3  0  0  0  0  0  0  0  0  0  0
    5.2688   -6.5114  -11.2671 C   0  0  0  0  0  0  0  0  0  0  0  0
    6.1906   -6.2871  -12.4909 C   0  0  2  0  0  0  0  0  0  0  0  0
    7.5111   -6.6504  -12.0902 O   0  0  0  0  0  0  0  0  0  0  0  0
    6.1307   -4.7732  -12.9220 C   0  0  1  0  0  0  0  0  0  0  0  0
    6.3177   -3.7887  -11.7180 C   0  0  2  0  0  0  0  0  0  0  0  0
    5.4894   -4.1784  -10.4673 C   0  0  1  0  0  0  0  0  0  0  0  0
    4.1054   -3.7654  -10.6145 O   0  0  0  0  0  0  0  0  0  0  0  0
    5.6055   -5.6018  -10.1858 O   0  0  0  0  0  0  0  0  0  0  0  0
    5.9951   -2.4497  -12.0844 O   0  0  0  0  0  0  0  0  0  0  0  0
    7.1513   -4.5087  -13.9835 N   0  3  0  0  0  0  0  0  0  0  0  0
    6.7322   -4.7191  -15.3842 C   0  0  0  0  0  0  0  0  0  0  0  0
    5.7661   -7.2630  -13.6158 C   0  0  0  0  0  0  0  0  0  0  0  0
  1  8  1  0  0  0  0
  1  9  1  1  0  0  0
  1  2  1  0  0  0  0
  2  3  1  0  0  0  0
  3  5  1  0  0  0  0
  3  4  1  6  0  0  0
  5  7  1  0  0  0  0
  5  6  1  6  0  0  0
  7  8  1  0  0  0  0
  9 10  1  0  0  0  0
 11 12  1  0  0  0  0
 11 18  1  0  0  0  0
 11 19  1  1  0  0  0
 12 13  1  0  0  0  0
 13 15  1  0  0  0  0
 13 14  1  1  0  0  0
 15 16  1  0  0  0  0
 15 26  1  6  0  0  0
 16 18  1  0  0  0  0
 16 17  1  1  0  0  0
 18  4  1  6  0  0  0
 20 21  1  0  0  0  0
 20 27  1  0  0  0  0
 21 31  1  6  0  0  0
 21 23  1  0  0  0  0
 21 22  1  0  0  0  0
 23 24  1  0  0  0  0
 23 29  1  6  0  0  0
 24 25  1  0  0  0  0
 24 28  1  6  0  0  0
 25 27  1  0  0  0  0
 25 26  1  6  0  0  0
 29 30  1  0  0  0  0
M  CHG  5   6   1  10   1  14   1  19   1  29   1
M  END
>  <CHROM.1>
81.56672737,97.29391562,-96.15097667,95.28494085,-59.50587684,-51.47005284
159.31038691,125.33337078,-52.40707184,-66.16791568,-150.29809151,-65.44466565
-134.23905145,2.52768151,-4.11302984,-9.33295703,3.10814045,0.67515851,-0.13625331

>  <Name>
1byj cryst

>  <RI>
0

>  <Rbt.Current_Directory>
/home/itssahil/PROJECTS/Mol_Feturizer/New_Systems/rnas/1byj

>  <Rbt.Executable>
rbdock ($Id: //depot/dev/client3/rdock/2013.1/src/exe/rbdock.cxx#4 $)

>  <Rbt.Library>
libRbt.so (2013.1, Build901 2013/11/27)

>  <Rbt.Parameter_File>
/export/apps/rDock/src/rDock_2013.1_src/data/scripts/dock_solv.prm

>  <Rbt.Receptor>
prm/blind_docking_80.prm

>  <SCORE>
-30.9656

>  <SCORE.INTER>
-30.1373

>  <SCORE.INTER.CONST>
1

>  <SCORE.INTER.POLAR>
-6.55019

>  <SCORE.INTER.ROT>
6

>  <SCORE.INTER.SOLV>
38.2906

>  <SCORE.INTER.VDW>
-18.6211

>  <SCORE.INTER.norm>
-0.972171

>  <SCORE.INTRA>
-3.02439

>  <SCORE.INTRA.DIHEDRAL>
11.8899

>  <SCORE.INTRA.DIHEDRAL.0>
18.4149

>  <SCORE.INTRA.POLAR>
-2.41448

>  <SCORE.INTRA.POLAR.0>
0

>  <SCORE.INTRA.REPUL>
-0.092687

>  <SCORE.INTRA.REPUL.0>
0.092687

>  <SCORE.INTRA.SOLV>
2.83833

>  <SCORE.INTRA.SOLV.lig_0>
-120.37

>  <SCORE.INTRA.VDW>
-1.7158

>  <SCORE.INTRA.VDW.0>
-1.75542

>  <SCORE.INTRA.norm>
-0.0975609

>  <SCORE.RESTR>
2.19612

>  <SCORE.RESTR.CAVITY>
2.19612

>  <SCORE.RESTR.norm>
0.0708427

>  <SCORE.SYSTEM>
0

>  <SCORE.SYSTEM.CONST>
0

>  <SCORE.SYSTEM.DIHEDRAL>
0

>  <SCORE.SYSTEM.SOLV>
0

>  <SCORE.SYSTEM.norm>
0

>  <SCORE.heavy>
31

>  <SCORE.norm>
-0.99889

>  <RMSD>
14.726

$$$$
1byj cryst
 OpenBabel11021811383D
libRbt.so/2013.1/901 2013/11/27
 31 33  0  0  0  0  0  0  0  0999 V2000
   -2.5684   -3.5014   -6.6838 C   0  0  1  0  0  0  0  0  0  0  0  0
   -1.3080   -3.3115   -5.9643 O   0  0  0  0  0  0  0  0  0  0  0  0
   -0.2593   -4.3148   -6.1131 C   0  0  2  0  0  0  0  0  0  0  0  0
    0.2936   -4.3092   -7.4662 O   0  0  0  0  0  0  0  0  0  0  0  0
   -0.8332   -5.7179   -5.7490 C   0  0  2  0  0  0  0  0  0  0  0  0
    0.1603   -6.8028   -5.8707 N   0  3  0  0  0  0  0  0  0  0  0  0
   -2.0787   -6.0255   -6.6198 C   0  0  0  0  0  0  0  0  0  0  0  0
   -3.1431   -4.9286   -6.4675 C   0  0  0  0  0  0  0  0  0  0  0  0
   -3.5948   -2.4623   -6.1993 C   0  0  0  0  0  0  0  0  0  0  0  0
   -4.7252   -2.2715   -7.1176 N   0  3  0  0  0  0  0  0  0  0  0  0
    0.8983   -2.0423   -8.2184 C   0  0  1  0  0  0  0  0  0  0  0  0
    2.0533   -1.1083   -8.6546 C   0  0  0  0  0  0  0  0  0  0  0  0
    2.8417   -1.7342   -9.8363 C   0  0  1  0  0  0  0  0  0  0  0  0
    3.8889   -0.8001  -10.2921 N   0  3  0  0  0  0  0  0  0  0  0  0
    3.4335   -3.1118   -9.4197 C   0  0  1  0  0  0  0  0  0  0  0  0
    2.3386   -4.0622   -8.8736 C   0  0  1  0  0  0  0  0  0  0  0  0
    3.0099   -5.2082   -8.3714 O   0  0  0  0  0  0  0  0  0  0  0  0
    1.4315   -3.4398   -7.7614 C   0  0  2  0  0  0  0  0  0  0  0  0
    0.0939   -1.3949   -7.1672 N   0  3  0  0  0  0  0  0  0  0  0  0
    5.3036   -6.4849  -11.1848 C   0  0  0  0  0  0  0  0  0  0  0  0
    6.1878   -6.2511  -12.4342 C   0  0  2  0  0  0  0  0  0  0  0  0
    7.5305   -6.5525  -12.0568 O   0  0  0  0  0  0  0  0  0  0  0  0
    6.0570   -4.7507  -12.8958 C   0  0  1  0  0  0  0  0  0  0  0  0
    6.2311   -3.7332  -11.7176 C   0  0  2  0  0  0  0  0  0  0  0  0
    5.4476   -4.1278  -10.4400 C   0  0  1  0  0  0  0  0  0  0  0  0
    4.0450   -3.7738  -10.5635 O   0  0  0  0  0  0  0  0  0  0  0  0
    5.6275   -5.5389  -10.1311 O   0  0  0  0  0  0  0  0  0  0  0  0
    5.8465   -2.4166  -12.1047 O   0  0  0  0  0  0  0  0  0  0  0  0
    7.0421   -4.4693  -13.9862 N   0  3  0  0  0  0  0  0  0  0  0  0
    6.6072   -4.7456  -15.3706 C   0  0  0  0  0  0  0  0  0  0  0  0
    5.7779   -7.2679  -13.5279 C   0  0  0  0  0  0  0  0  0  0  0  0
  1  8  1  0  0  0  0
  1  9  1  1  0  0  0
  1  2  1  0  0  0  0
  2  3  1  0  0  0  0
  3  5  1  0  0  0  0
  3  4  1  6  0  0  0
  5  7  1  0  0  0  0
  5  6  1  6  0  0  0
  7  8  1  0  0  0  0
  9 10  1  0  0  0  0
 11 12  1  0  0  0  0
 11 18  1  0  0  0  0
 11 19  1  1  0  0  0
 12 13  1  0  0  0  0
 13 15  1  0  0  0  0
 13 14  1  1  0  0  0
 15 16  1  0  0  0  0
 15 26  1  6  0  0  0
 16 18  1  0  0  0  0
 16 17  1  1  0  0  0
 18  4  1  6  0  0  0
 20 21  1  0  0  0  0
 20 27  1  0  0  0  0
 21 31  1  6  0  0  0
 21 23  1  0  0  0  0
 21 22  1  0  0  0  0
 23 24  1  0  0  0  0
 23 29  1  6  0  0  0
 24 25  1  0  0  0  0
 24 28  1  6  0  0  0
 25 27  1  0  0  0  0
 25 26  1  6  0  0  0
 29 30  1  0  0  0  0
M  CHG  5   6   1  10   1  14   1  19   1  29   1
M  END
>  <CHROM.1>
161.66493666,89.66229101,-89.15604656,-135.81610742,-62.30320951,178.43390621
38.32252681,122.38207366,79.08554394,54.48268389,-151.15270689,27.57593655
-134.39438082,2.39068954,-4.07748245,-9.34067382,-3.12158043,-0.64723913
2.97457278

>  <Name>
1byj cryst

>  <RI>
0

>  <Rbt.Current_Directory>
/home/itssahil/PROJECTS/Mol_Feturizer/New_Systems/rnas/1byj

>  <Rbt.Executable>
rbdock ($Id: //depot/dev/client3/rdock/2013.1/src/exe/rbdock.cxx#4 $)

>  <Rbt.Library>
libRbt.so (2013.1, Build901 2013/11/27)

>  <Rbt.Parameter_File>
/export/apps/rDock/src/rDock_2013.1_src/data/scripts/dock_solv.prm

>  <Rbt.Receptor>
prm/blind_docking_80.prm

>  <SCORE>
-27.4961

>  <SCORE.INTER>
-29.8078

>  <SCORE.INTER.CONST>
1

>  <SCORE.INTER.POLAR>
-5.96414

>  <SCORE.INTER.ROT>
6

>  <SCORE.INTER.SOLV>
34.8548

>  <SCORE.INTER.VDW>
-19.2096

>  <SCORE.INTER.norm>
-0.961541

>  <SCORE.INTRA>
0.205698

>  <SCORE.INTRA.DIHEDRAL>
14.5933

>  <SCORE.INTRA.DIHEDRAL.0>
18.4149

>  <SCORE.INTRA.POLAR>
-2.14941

>  <SCORE.INTRA.POLAR.0>
0

>  <SCORE.INTRA.REPUL>
-0.092687

>  <SCORE.INTRA.REPUL.0>
0.092687

>  <SCORE.INTRA.SOLV>
1.48761

>  <SCORE.INTRA.SOLV.lig_0>
-120.37

>  <SCORE.INTRA.VDW>
-0.0633445

>  <SCORE.INTRA.VDW.0>
-1.75542

>  <SCORE.INTRA.norm>
0.00663542

>  <SCORE.RESTR>
2.10593

>  <SCORE.RESTR.CAVITY>
2.10593

>  <SCORE.RESTR.norm>
0.0679331

>  <SCORE.SYSTEM>
0

>  <SCORE.SYSTEM.CONST>
0

>  <SCORE.SYSTEM.DIHEDRAL>
0

>  <SCORE.SYSTEM.SOLV>
0

>  <SCORE.SYSTEM.norm>
0

>  <SCORE.heavy>
31

>  <SCORE.norm>
-0.886973

>  <RMSD>
14.752

$$$$
1byj cryst
 OpenBabel11021811383D
libRbt.so/2013.1/901 2013/11/27
 31 33  0  0  0  0  0  0  0  0999 V2000
   -2.7466   -5.0892   -7.0683 C   0  0  1  0  0  0  0  0  0  0  0  0
   -2.1984   -3.7370   -6.9543 O   0  0  0  0  0  0  0  0  0  0  0  0
   -0.9032   -3.5592   -6.3067 C   0  0  2  0  0  0  0  0  0  0  0  0
    0.1756   -4.1327   -7.1092 O   0  0  0  0  0  0  0  0  0  0  0  0
   -0.9452   -4.2002   -4.8862 C   0  0  2  0  0  0  0  0  0  0  0  0
    0.3279   -4.0694   -4.1505 N   0  3  0  0  0  0  0  0  0  0  0  0
   -1.3602   -5.6907   -4.9871 C   0  0  0  0  0  0  0  0  0  0  0  0
   -2.7078   -5.8405   -5.7089 C   0  0  0  0  0  0  0  0  0  0  0  0
   -4.2015   -5.0107   -7.5634 C   0  0  0  0  0  0  0  0  0  0  0  0
   -4.4081   -4.0421   -8.6480 N   0  3  0  0  0  0  0  0  0  0  0  0
    0.6967   -2.4905   -8.8705 C   0  0  1  0  0  0  0  0  0  0  0  0
    1.8024   -1.6225   -9.5190 C   0  0  0  0  0  0  0  0  0  0  0  0
    2.9996   -2.5071   -9.9595 C   0  0  1  0  0  0  0  0  0  0  0  0
    4.0103   -1.6793  -10.6450 N   0  3  0  0  0  0  0  0  0  0  0  0
    3.5967   -3.2555   -8.7327 C   0  0  1  0  0  0  0  0  0  0  0  0
    2.5144   -4.0646   -7.9749 C   0  0  1  0  0  0  0  0  0  0  0  0
    3.1295   -4.5582   -6.7942 O   0  0  0  0  0  0  0  0  0  0  0  0
    1.2284   -3.2512   -7.6116 C   0  0  2  0  0  0  0  0  0  0  0  0
   -0.4765   -1.6585   -8.5500 N   0  3  0  0  0  0  0  0  0  0  0  0
    4.9317   -3.9411  -12.1830 C   0  0  0  0  0  0  0  0  0  0  0  0
    6.0017   -4.9885  -12.5775 C   0  0  2  0  0  0  0  0  0  0  0  0
    5.3756   -5.9075  -13.4717 O   0  0  0  0  0  0  0  0  0  0  0  0
    6.5162   -5.7253  -11.2837 C   0  0  1  0  0  0  0  0  0  0  0  0
    5.3514   -6.2295  -10.3656 C   0  0  2  0  0  0  0  0  0  0  0  0
    4.2312   -5.1792  -10.1563 C   0  0  1  0  0  0  0  0  0  0  0  0
    4.6202   -4.2003   -9.1572 O   0  0  0  0  0  0  0  0  0  0  0  0
    3.8599   -4.5524  -11.4165 O   0  0  0  0  0  0  0  0  0  0  0  0
    5.8351   -6.6463   -9.0914 O   0  0  0  0  0  0  0  0  0  0  0  0
    7.4125   -6.8592  -11.6700 N   0  3  0  0  0  0  0  0  0  0  0  0
    6.7654   -8.0698  -12.2155 C   0  0  0  0  0  0  0  0  0  0  0  0
    7.1270   -4.2739  -13.3655 C   0  0  0  0  0  0  0  0  0  0  0  0
  1  8  1  0  0  0  0
  1  9  1  1  0  0  0
  1  2  1  0  0  0  0
  2  3  1  0  0  0  0
  3  5  1  0  0  0  0
  3  4  1  6  0  0  0
  5  7  1  0  0  0  0
  5  6  1  6  0  0  0
  7  8  1  0  0  0  0
  9 10  1  0  0  0  0
 11 12  1  0  0  0  0
 11 18  1  0  0  0  0
 11 19  1  1  0  0  0
 12 13  1  0  0  0  0
 13 15  1  0  0  0  0
 13 14  1  1  0  0  0
 15 16  1  0  0  0  0
 15 26  1  6  0  0  0
 16 18  1  0  0  0  0
 16 17  1  1  0  0  0
 18  4  1  6  0  0  0
 20 21  1  0  0  0  0
 20 27  1  0  0  0  0
 21 31  1  6  0  0  0
 21 23  1  0  0  0  0
 21 22  1  0  0  0  0
 23 24  1  0  0  0  0
 23 29  1  6  0  0  0
 24 25  1  0  0  0  0
 24 28  1  1  0  0  0
 25 27  1  0  0  0  0
 25 26  1  1  0  0  0
 29 30  1  0  0  0  0
M  CHG  5   6   1  10   1  14   1  19   1  29   1
M  END
>  <CHROM.1>
42.77179428,118.11706951,-79.07346912,16.79613116,-67.89506855,-176.37237765
171.31766668,-55.01295370,81.48815647,58.06217342,46.04124035,56.12692528
-172.24362850,2.22498773,-4.41408089,-9.00847199,-2.82043101,0.50578183,-0.83962724

>  <Name>
1byj cryst

>  <RI>
0

>  <Rbt.Current_Directory>
/home/itssahil/PROJECTS/Mol_Feturizer/New_Systems/rnas/1byj

>  <Rbt.Executable>
rbdock ($Id: //depot/dev/client3/rdock/2013.1/src/exe/rbdock.cxx#4 $)

>  <Rbt.Library>
libRbt.so (2013.1, Build901 2013/11/27)

>  <Rbt.Parameter_File>
/export/apps/rDock/src/rDock_2013.1_src/data/scripts/dock_solv.prm

>  <Rbt.Receptor>
prm/blind_docking_40.prm

>  <SCORE>
-1.11936

>  <SCORE.INTER>
-12.1528

>  <SCORE.INTER.CONST>
1

>  <SCORE.INTER.POLAR>
-4.93887

>  <SCORE.INTER.ROT>
6

>  <SCORE.INTER.SOLV>
29.4672

>  <SCORE.INTER.VDW>
-9.06137

>  <SCORE.INTER.norm>
-0.392025

>  <SCORE.INTRA>
1.67753

>  <SCORE.INTRA.DIHEDRAL>
-1.88047

>  <SCORE.INTRA.DIHEDRAL.0>
18.4149

>  <SCORE.INTRA.POLAR>
-1.16667

>  <SCORE.INTRA.POLAR.0>
0

>  <SCORE.INTRA.REPUL>
-0.092687

>  <SCORE.INTRA.REPUL.0>
0.092687

>  <SCORE.INTRA.SOLV>
0.682975

>  <SCORE.INTRA.SOLV.lig_0>
-120.37

>  <SCORE.INTRA.VDW>
6.70638

>  <SCORE.INTRA.VDW.0>
-1.75542

>  <SCORE.INTRA.norm>
0.054114

>  <SCORE.RESTR>
9.35589

>  <SCORE.RESTR.CAVITY>
9.35589

>  <SCORE.RESTR.norm>
0.301803

>  <SCORE.SYSTEM>
0

>  <SCORE.SYSTEM.CONST>
0

>  <SCORE.SYSTEM.DIHEDRAL>
0

>  <SCORE.SYSTEM.SOLV>
0

>  <SCORE.SYSTEM.norm>
0

>  <SCORE.heavy>
31

>  <SCORE.norm>
-0.0361083

>  <RMSD>
14.788

$$$$
1byj cryst
 OpenBabel11021811383D
libRbt.so/2013.1/901 2013/11/27
 31 33  0  0  0  0  0  0  0  0999 V2000
   -2.7458   -4.8576   -6.9560 C   0  0  1  0  0  0  0  0  0  0  0  0
   -2.1142   -3.5429   -6.8352 O   0  0  0  0  0  0  0  0  0  0  0  0
   -0.8076   -3.4507   -6.1926 C   0  0  2  0  0  0  0  0  0  0  0  0
    0.2299   -4.0841   -7.0045 O   0  0  0  0  0  0  0  0  0  0  0  0
   -0.8830   -4.0983   -4.7765 C   0  0  2  0  0  0  0  0  0  0  0  0
    0.3989   -4.0522   -4.0461 N   0  3  0  0  0  0  0  0  0  0  0  0
   -1.3904   -5.5593   -4.8859 C   0  0  0  0  0  0  0  0  0  0  0  0
   -2.7479   -5.6198   -5.6022 C   0  0  0  0  0  0  0  0  0  0  0  0
   -4.1952   -4.6852   -7.4435 C   0  0  0  0  0  0  0  0  0  0  0  0
   -4.3087   -4.0029   -8.7392 N   0  3  0  0  0  0  0  0  0  0  0  0
    0.7494   -2.4971   -8.8161 C   0  0  1  0  0  0  0  0  0  0  0  0
    1.8634   -1.6853   -9.5208 C   0  0  0  0  0  0  0  0  0  0  0  0
    3.0091   -2.6242   -9.9854 C   0  0  1  0  0  0  0  0  0  0  0  0
    4.0253   -1.8495  -10.7230 N   0  3  0  0  0  0  0  0  0  0  0  0
    3.6211   -3.3719   -8.7656 C   0  0  1  0  0  0  0  0  0  0  0  0
    2.5367   -4.1236   -7.9536 C   0  0  1  0  0  0  0  0  0  0  0  0
    3.1748   -4.6185   -6.7857 O   0  0  0  0  0  0  0  0  0  0  0  0
    1.2968   -3.2540   -7.5617 C   0  0  2  0  0  0  0  0  0  0  0  0
   -0.3786   -1.6141   -8.4712 N   0  3  0  0  0  0  0  0  0  0  0  0
    6.9660   -4.7030  -11.0955 C   0  0  0  0  0  0  0  0  0  0  0  0
    7.0397   -6.2204  -11.3950 C   0  0  2  0  0  0  0  0  0  0  0  0
    6.8557   -6.3771  -12.8013 O   0  0  0  0  0  0  0  0  0  0  0  0
    5.9087   -6.9686  -10.5935 C   0  0  1  0  0  0  0  0  0  0  0  0
    4.5034   -6.2941  -10.7491 C   0  0  2  0  0  0  0  0  0  0  0  0
    4.5395   -4.7515  -10.6050 C   0  0  1  0  0  0  0  0  0  0  0  0
    4.5916   -4.3638   -9.2069 O   0  0  0  0  0  0  0  0  0  0  0  0
    5.6387   -4.1803  -11.3694 O   0  0  0  0  0  0  0  0  0  0  0  0
    3.5656   -6.8216   -9.8144 O   0  0  0  0  0  0  0  0  0  0  0  0
    5.8551   -8.4033  -11.0142 N   0  3  0  0  0  0  0  0  0  0  0  0
    4.6226   -9.1511  -10.6923 C   0  0  0  0  0  0  0  0  0  0  0  0
    8.4654   -6.7227  -11.0586 C   0  0  0  0  0  0  0  0  0  0  0  0
  1  8  1  0  0  0  0
  1  9  1  1  0  0  0
  1  2  1  0  0  0  0
  2  3  1  0  0  0  0
  3  5  1  0  0  0  0
  3  4  1  6  0  0  0
  5  7  1  0  0  0  0
  5  6  1  6  0  0  0
  7  8  1  0  0  0  0
  9 10  1  0  0  0  0
 11 12  1  0  0  0  0
 11 18  1  0  0  0  0
 11 19  1  1  0  0  0
 12 13  1  0  0  0  0
 13 15  1  0  0  0  0
 13 14  1  1  0  0  0
 15 16  1  0  0  0  0
 15 26  1  6  0  0  0
 16 18  1  0  0  0  0
 16 17  1  1  0  0  0
 18  4  1  6  0  0  0
 20 21  1  0  0  0  0
 20 27  1  0  0  0  0
 21 31  1  1  0  0  0
 21 23  1  0  0  0  0
 21 22  1  0  0  0  0
 23 24  1  0  0  0  0
 23 29  1  6  0  0  0
 24 25  1  0  0  0  0
 24 28  1  1  0  0  0
 25 27  1  0  0  0  0
 25 26  1  1  0  0  0
 29 30  1  0  0  0  0
M  CHG  5   6   1  10   1  14   1  19   1  29   1
M  END
>  <CHROM.1>
58.92847891,115.08165681,-78.16382857,17.99867782,86.37764045,168.28520766
173.25527866,-17.12555667,-176.23431064,-61.28356043,-40.79865707,178.92025659
-129.46639368,2.25371811,-4.66211245,-8.77193003,3.01908489,0.54531650,-0.19341680

>  <Name>
1byj cryst

>  <RI>
0

>  <Rbt.Current_Directory>
/home/itssahil/PROJECTS/Mol_Feturizer/New_Systems/rnas/1byj

>  <Rbt.Executable>
rbdock ($Id: //depot/dev/client3/rdock/2013.1/src/exe/rbdock.cxx#4 $)

>  <Rbt.Library>
libRbt.so (2013.1, Build901 2013/11/27)

>  <Rbt.Parameter_File>
/export/apps/rDock/src/rDock_2013.1_src/data/scripts/dock_solv.prm

>  <Rbt.Receptor>
prm/blind_docking_40.prm

>  <SCORE>
7.10699

>  <SCORE.INTER>
-4.87154

>  <SCORE.INTER.CONST>
1

>  <SCORE.INTER.POLAR>
-2.62319

>  <SCORE.INTER.ROT>
6

>  <SCORE.INTER.SOLV>
26.83

>  <SCORE.INTER.VDW>
-11.0471

>  <SCORE.INTER.norm>
-0.157146

>  <SCORE.INTRA>
0.926593

>  <SCORE.INTRA.DIHEDRAL>
8.57645

>  <SCORE.INTRA.DIHEDRAL.0>
18.4149

>  <SCORE.INTRA.POLAR>
-2.34823

>  <SCORE.INTRA.POLAR.0>
0

>  <SCORE.INTRA.REPUL>
-0.092687

>  <SCORE.INTRA.REPUL.0>
0.092687

>  <SCORE.INTRA.SOLV>
1.45237

>  <SCORE.INTRA.SOLV.lig_0>
-120.37

>  <SCORE.INTRA.VDW>
4.35961

>  <SCORE.INTRA.VDW.0>
-1.75542

>  <SCORE.INTRA.norm>
0.0298901

>  <SCORE.RESTR>
11.0519

>  <SCORE.RESTR.CAVITY>
11.0519

>  <SCORE.RESTR.norm>
0.356514

>  <SCORE.SYSTEM>
0

>  <SCORE.SYSTEM.CONST>
0

>  <SCORE.SYSTEM.DIHEDRAL>
0

>  <SCORE.SYSTEM.SOLV>
0

>  <SCORE.SYSTEM.norm>
0

>  <SCORE.heavy>
31

>  <SCORE.norm>
0.229258

>  <RMSD>
14.835

$$$$
1byj cryst
 OpenBabel11021811383D
libRbt.so/2013.1/901 2013/11/27
 31 33  0  0  0  0  0  0  0  0999 V2000
   -2.7553   -5.1263   -7.0526 C   0  0  1  0  0  0  0  0  0  0  0  0
   -2.2050   -3.7766   -6.9199 O   0  0  0  0  0  0  0  0  0  0  0  0
   -0.8719   -3.6175   -6.3489 C   0  0  2  0  0  0  0  0  0  0  0  0
    0.1555   -4.1528   -7.2402 O   0  0  0  0  0  0  0  0  0  0  0  0
   -0.8219   -4.3142   -4.9552 C   0  0  2  0  0  0  0  0  0  0  0  0
    0.4949   -4.2056   -4.2968 N   0  3  0  0  0  0  0  0  0  0  0  0
   -1.2380   -5.8018   -5.0888 C   0  0  0  0  0  0  0  0  0  0  0  0
   -2.6282   -5.9304   -5.7294 C   0  0  0  0  0  0  0  0  0  0  0  0
   -4.2389   -5.0363   -7.4513 C   0  0  0  0  0  0  0  0  0  0  0  0
   -4.5430   -3.9233   -8.3601 N   0  3  0  0  0  0  0  0  0  0  0  0
    0.7049   -2.4032   -8.8856 C   0  0  1  0  0  0  0  0  0  0  0  0
    1.8286   -1.5240   -9.4862 C   0  0  0  0  0  0  0  0  0  0  0  0
    2.9919   -2.4099  -10.0076 C   0  0  1  0  0  0  0  0  0  0  0  0
    4.0191   -1.5652  -10.6466 N   0  3  0  0  0  0  0  0  0  0  0  0
    3.5811   -3.2633   -8.8473 C   0  0  1  0  0  0  0  0  0  0  0  0
    2.4840   -4.0924   -8.1338 C   0  0  1  0  0  0  0  0  0  0  0  0
    3.0985   -4.6890   -7.0014 O   0  0  0  0  0  0  0  0  0  0  0  0
    1.2287   -3.2692   -7.6933 C   0  0  2  0  0  0  0  0  0  0  0  0
   -0.4376   -1.5618   -8.4881 N   0  3  0  0  0  0  0  0  0  0  0  0
    4.9022   -3.8498  -12.3683 C   0  0  0  0  0  0  0  0  0  0  0  0
    5.9108   -4.9417  -12.8020 C   0  0  2  0  0  0  0  0  0  0  0  0
    5.2348   -5.7884  -13.7306 O   0  0  0  0  0  0  0  0  0  0  0  0
    6.3788   -5.7555  -11.5371 C   0  0  1  0  0  0  0  0  0  0  0  0
    5.1847   -6.2259  -10.6390 C   0  0  2  0  0  0  0  0  0  0  0  0
    4.1266   -5.1212  -10.3902 C   0  0  1  0  0  0  0  0  0  0  0  0
    4.5691   -4.2051   -9.3545 O   0  0  0  0  0  0  0  0  0  0  0  0
    3.7951   -4.4267  -11.6257 O   0  0  0  0  0  0  0  0  0  0  0  0
    5.6404   -6.7179   -9.3814 O   0  0  0  0  0  0  0  0  0  0  0  0
    7.2090   -6.9239  -11.9660 N   0  3  0  0  0  0  0  0  0  0  0  0
    6.5239   -7.9920  -12.7221 C   0  0  0  0  0  0  0  0  0  0  0  0
    7.0775   -4.2640  -13.5621 C   0  0  0  0  0  0  0  0  0  0  0  0
  1  8  1  0  0  0  0
  1  9  1  1  0  0  0
  1  2  1  0  0  0  0
  2  3  1  0  0  0  0
  3  5  1  0  0  0  0
  3  4  1  6  0  0  0
  5  7  1  0  0  0  0
  5  6  1  6  0  0  0
  7  8  1  0  0  0  0
  9 10  1  0  0  0  0
 11 12  1  0  0  0  0
 11 18  1  0  0  0  0
 11 19  1  1  0  0  0
 12 13  1  0  0  0  0
 13 15  1  0  0  0  0
 13 14  1  1  0  0  0
 15 16  1  0  0  0  0
 15 26  1  6  0  0  0
 16 18  1  0  0  0  0
 16 17  1  1  0  0  0
 18  4  1  6  0  0  0
 20 21  1  0  0  0  0
 20 27  1  0  0  0  0
 21 31  1  6  0  0  0
 21 23  1  0  0  0  0
 21 22  1  0  0  0  0
 23 24  1  0  0  0  0
 23 29  1  6  0  0  0
 24 25  1  0  0  0  0
 24 28  1  1  0  0  0
 25 27  1  0  0  0  0
 25 26  1  1  0  0  0
 29 30  1  0  0  0  0
M  CHG  5   6   1  10   1  14   1  19   1  29   1
M  END
>  <CHROM.1>
35.87867935,122.61226946,-80.92788558,6.65940455,-156.72609981,54.68418941
174.96412623,-56.65879114,80.30282880,63.30753347,54.15873744,56.20949095
-169.27088249,2.18656060,-4.40863152,-9.12730896,-2.89281495,0.57459310,-0.65167443

>  <Name>
1byj cryst

>  <RI>
0

>  <Rbt.Current_Directory>
/home/itssahil/PROJECTS/Mol_Feturizer/New_Systems/rnas/1byj

>  <Rbt.Executable>
rbdock ($Id: //depot/dev/client3/rdock/2013.1/src/exe/rbdock.cxx#4 $)

>  <Rbt.Library>
libRbt.so (2013.1, Build901 2013/11/27)

>  <Rbt.Parameter_File>
/export/apps/rDock/src/rDock_2013.1_src/data/scripts/dock_solv.prm

>  <Rbt.Receptor>
prm/blind_docking_80.prm

>  <SCORE>
-10.1149

>  <SCORE.INTER>
-14.0563

>  <SCORE.INTER.CONST>
1

>  <SCORE.INTER.POLAR>
-4.962

>  <SCORE.INTER.ROT>
6

>  <SCORE.INTER.SOLV>
28.7245

>  <SCORE.INTER.VDW>
-10.0057

>  <SCORE.INTER.norm>
-0.453428

>  <SCORE.INTRA>
2.18675

>  <SCORE.INTRA.DIHEDRAL>
0.392616

>  <SCORE.INTRA.DIHEDRAL.0>
18.4149

>  <SCORE.INTRA.POLAR>
-0.872988

>  <SCORE.INTRA.POLAR.0>
0

>  <SCORE.INTRA.REPUL>
-0.092687

>  <SCORE.INTRA.REPUL.0>
0.092687

>  <SCORE.INTRA.SOLV>
0.734394

>  <SCORE.INTRA.SOLV.lig_0>
-120.37

>  <SCORE.INTRA.VDW>
5.05484

>  <SCORE.INTRA.VDW.0>
-1.75542

>  <SCORE.INTRA.norm>
0.0705403

>  <SCORE.RESTR>
1.75464

>  <SCORE.RESTR.CAVITY>
1.75464

>  <SCORE.RESTR.norm>
0.0566014

>  <SCORE.SYSTEM>
0

>  <SCORE.SYSTEM.CONST>
0

>  <SCORE.SYSTEM.DIHEDRAL>
0

>  <SCORE.SYSTEM.SOLV>
0

>  <SCORE.SYSTEM.norm>
0

>  <SCORE.heavy>
31

>  <SCORE.norm>
-0.326287

>  <RMSD>
14.837

$$$$
1byj cryst
 OpenBabel11021811383D
libRbt.so/2013.1/901 2013/11/27
 31 33  0  0  0  0  0  0  0  0999 V2000
   -1.2287   -2.5728   -6.0798 C   0  0  1  0  0  0  0  0  0  0  0  0
   -0.6809   -2.1681   -7.3753 O   0  0  0  0  0  0  0  0  0  0  0  0
    0.6899   -1.6718   -7.4311 C   0  0  2  0  0  0  0  0  0  0  0  0
    1.6520   -2.7341   -7.1435 O   0  0  0  0  0  0  0  0  0  0  0  0
    0.8499   -0.4864   -6.4313 C   0  0  2  0  0  0  0  0  0  0  0  0
    2.2113    0.0840   -6.4174 N   0  3  0  0  0  0  0  0  0  0  0  0
    0.4368   -0.9336   -5.0054 C   0  0  0  0  0  0  0  0  0  0  0  0
   -0.9964   -1.4862   -4.9939 C   0  0  0  0  0  0  0  0  0  0  0  0
   -2.7387   -2.8330   -6.2223 C   0  0  0  0  0  0  0  0  0  0  0  0
   -3.0672   -3.9420   -7.1276 N   0  3  0  0  0  0  0  0  0  0  0  0
    1.5831   -5.1152   -6.5144 C   0  0  1  0  0  0  0  0  0  0  0  0
    1.4421   -6.5678   -7.0308 C   0  0  0  0  0  0  0  0  0  0  0  0
    2.5090   -6.8639   -8.1188 C   0  0  1  0  0  0  0  0  0  0  0  0
    2.4136   -8.2730   -8.5455 N   0  3  0  0  0  0  0  0  0  0  0  0
    2.3452   -5.8823   -9.3152 C   0  0  1  0  0  0  0  0  0  0  0  0
    2.3732   -4.4049   -8.8499 C   0  0  1  0  0  0  0  0  0  0  0  0
    2.0470   -3.6160   -9.9846 O   0  0  0  0  0  0  0  0  0  0  0  0
    1.4020   -4.0755   -7.6686 C   0  0  2  0  0  0  0  0  0  0  0  0
    0.6356   -4.8764   -5.4114 N   0  3  0  0  0  0  0  0  0  0  0  0
    5.4827   -8.0522  -11.3252 C   0  0  0  0  0  0  0  0  0  0  0  0
    6.6465   -7.1939  -11.8788 C   0  0  2  0  0  0  0  0  0  0  0  0
    7.8100   -7.5341  -11.1261 O   0  0  0  0  0  0  0  0  0  0  0  0
    6.2968   -5.6669  -11.7135 C   0  0  1  0  0  0  0  0  0  0  0  0
    5.7898   -5.3101  -10.2749 C   0  0  2  0  0  0  0  0  0  0  0  0
    4.7491   -6.3155   -9.7199 C   0  0  1  0  0  0  0  0  0  0  0  0
    3.4315   -6.0524  -10.2700 O   0  0  0  0  0  0  0  0  0  0  0  0
    5.1720   -7.6886   -9.9537 O   0  0  0  0  0  0  0  0  0  0  0  0
    5.2329   -3.9991  -10.2287 O   0  0  0  0  0  0  0  0  0  0  0  0
    7.4853   -4.8336  -12.0761 N   0  3  0  0  0  0  0  0  0  0  0  0
    7.2189   -3.4911  -12.6315 C   0  0  0  0  0  0  0  0  0  0  0  0
    6.9114   -7.6075  -13.3475 C   0  0  0  0  0  0  0  0  0  0  0  0
  1  8  1  0  0  0  0
  1  9  1  6  0  0  0
  1  2  1  0  0  0  0
  2  3  1  0  0  0  0
  3  5  1  0  0  0  0
  3  4  1  1  0  0  0
  5  7  1  0  0  0  0
  5  6  1  1  0  0  0
  7  8  1  0  0  0  0
  9 10  1  0  0  0  0
 11 12  1  0  0  0  0
 11 18  1  0  0  0  0
 11 19  1  1  0  0  0
 12 13  1  0  0  0  0
 13 15  1  0  0  0  0
 13 14  1  6  0  0  0
 15 16  1  0  0  0  0
 15 26  1  6  0  0  0
 16 18  1  0  0  0  0
 16 17  1  6  0  0  0
 18  4  1  1  0  0  0
 20 21  1  0  0  0  0
 20 27  1  0  0  0  0
 21 31  1  6  0  0  0
 21 23  1  0  0  0  0
 21 22  1  0  0  0  0
 23 24  1  0  0  0  0
 23 29  1  1  0  0  0
 24 25  1  0  0  0  0
 24 28  1  6  0  0  0
 25 27  1  0  0  0  0
 25 26  1  6  0  0  0
 29 30  1  0  0  0  0
M  CHG  5   6   1  10   1  14   1  19   1  29   1
M  END
>  <CHROM.1>
63.32821646,38.87223751,-131.39685061,57.15144205,-52.48165111,61.42282711
73.22517080,-37.93476053,-53.69399083,-67.57984815,-88.66016756,-171.59388137
-126.78529995,2.78897443,-4.58870375,-8.72695824,2.61339361,0.59233423,0.14226238

>  <Name>
1byj cryst

>  <RI>
0

>  <Rbt.Current_Directory>
/home/itssahil/PROJECTS/Mol_Feturizer/New_Systems/rnas/1byj

>  <Rbt.Executable>
rbdock ($Id: //depot/dev/client3/rdock/2013.1/src/exe/rbdock.cxx#4 $)

>  <Rbt.Library>
libRbt.so (2013.1, Build901 2013/11/27)

>  <Rbt.Parameter_File>
/export/apps/rDock/src/rDock_2013.1_src/data/scripts/dock_solv.prm

>  <Rbt.Receptor>
prm/blind_docking_80.prm

>  <SCORE>
-21.262

>  <SCORE.INTER>
-23.8877

>  <SCORE.INTER.CONST>
1

>  <SCORE.INTER.POLAR>
-3.71365

>  <SCORE.INTER.ROT>
6

>  <SCORE.INTER.SOLV>
21.2887

>  <SCORE.INTER.VDW>
-18.2425

>  <SCORE.INTER.norm>
-0.770572

>  <SCORE.INTRA>
-2.18876

>  <SCORE.INTRA.DIHEDRAL>
2.62992

>  <SCORE.INTRA.DIHEDRAL.0>
18.4149

>  <SCORE.INTRA.POLAR>
-0.619406

>  <SCORE.INTRA.POLAR.0>
0

>  <SCORE.INTRA.REPUL>
-0.0906909

>  <SCORE.INTRA.REPUL.0>
0.092687

>  <SCORE.INTRA.SOLV>
1.95236

>  <SCORE.INTRA.SOLV.lig_0>
-120.37

>  <SCORE.INTRA.VDW>
-1.92046

>  <SCORE.INTRA.VDW.0>
-1.75542

>  <SCORE.INTRA.norm>
-0.0706051

>  <SCORE.RESTR>
4.81445

>  <SCORE.RESTR.CAVITY>
4.81445

>  <SCORE.RESTR.norm>
0.155305

>  <SCORE.SYSTEM>
0

>  <SCORE.SYSTEM.CONST>
0

>  <SCORE.SYSTEM.DIHEDRAL>
0

>  <SCORE.SYSTEM.SOLV>
0

>  <SCORE.SYSTEM.norm>
0

>  <SCORE.heavy>
31

>  <SCORE.norm>
-0.685872

>  <RMSD>
14.851

$$$$
1byj cryst
 OpenBabel11021811383D
libRbt.so/2013.1/901 2013/11/27
 31 33  0  0  0  0  0  0  0  0999 V2000
   -1.6527   -2.0626   -5.5656 C   0  0  1  0  0  0  0  0  0  0  0  0
   -1.0589   -2.0350   -6.9030 O   0  0  0  0  0  0  0  0  0  0  0  0
    0.3802   -1.8288   -7.0256 C   0  0  2  0  0  0  0  0  0  0  0  0
    1.1271   -2.9754   -6.5117 O   0  0  0  0  0  0  0  0  0  0  0  0
    0.7788   -0.5205   -6.2773 C   0  0  2  0  0  0  0  0  0  0  0  0
    2.2240   -0.2275   -6.3464 N   0  3  0  0  0  0  0  0  0  0  0  0
    0.3113   -0.5887   -4.8006 C   0  0  0  0  0  0  0  0  0  0  0  0
   -1.2004   -0.8460   -4.7117 C   0  0  0  0  0  0  0  0  0  0  0  0
   -3.1867   -2.0549   -5.6873 C   0  0  0  0  0  0  0  0  0  0  0  0
   -3.7850   -3.3953   -5.7385 N   0  3  0  0  0  0  0  0  0  0  0  0
    1.0749   -5.4277   -6.2795 C   0  0  1  0  0  0  0  0  0  0  0  0
    1.1804   -6.7822   -7.0216 C   0  0  0  0  0  0  0  0  0  0  0  0
    2.5112   -6.8642   -7.8167 C   0  0  1  0  0  0  0  0  0  0  0  0
    2.6342   -8.1887   -8.4549 N   0  3  0  0  0  0  0  0  0  0  0  0
    2.5897   -5.7089   -8.8563 C   0  0  1  0  0  0  0  0  0  0  0  0
    2.3869   -4.3254   -8.1893 C   0  0  1  0  0  0  0  0  0  0  0  0
    2.3074   -3.3755   -9.2416 O   0  0  0  0  0  0  0  0  0  0  0  0
    1.1216   -4.2224   -7.2750 C   0  0  2  0  0  0  0  0  0  0  0  0
   -0.1405   -5.4006   -5.4468 N   0  3  0  0  0  0  0  0  0  0  0  0
    5.1248   -4.0115  -11.7367 C   0  0  0  0  0  0  0  0  0  0  0  0
    6.3535   -4.8168  -12.2261 C   0  0  2  0  0  0  0  0  0  0  0  0
    6.1274   -5.1282  -13.6001 O   0  0  0  0  0  0  0  0  0  0  0  0
    6.4953   -6.1302  -11.3681 C   0  0  1  0  0  0  0  0  0  0  0  0
    5.1495   -6.9213  -11.2378 C   0  0  2  0  0  0  0  0  0  0  0  0
    3.9318   -6.0191  -10.9137 C   0  0  1  0  0  0  0  0  0  0  0  0
    3.8954   -5.6875   -9.5007 O   0  0  0  0  0  0  0  0  0  0  0  0
    3.9244   -4.8293  -11.7522 O   0  0  0  0  0  0  0  0  0  0  0  0
    5.2398   -7.9445  -10.2499 O   0  0  0  0  0  0  0  0  0  0  0  0
    7.5651   -7.0004  -11.9483 N   0  3  0  0  0  0  0  0  0  0  0  0
    8.5336   -7.5929  -11.0034 C   0  0  0  0  0  0  0  0  0  0  0  0
    7.6021   -3.9031  -12.1607 C   0  0  0  0  0  0  0  0  0  0  0  0
  1  8  1  0  0  0  0
  1  9  1  6  0  0  0
  1  2  1  0  0  0  0
  2  3  1  0  0  0  0
  3  5  1  0  0  0  0
  3  4  1  1  0  0  0
  5  7  1  0  0  0  0
  5  6  1  1  0  0  0
  7  8  1  0  0  0  0
  9 10  1  0  0  0  0
 11 12  1  0  0  0  0
 11 18  1  0  0  0  0
 11 19  1  6  0  0  0
 12 13  1  0  0  0  0
 13 15  1  0  0  0  0
 13 14  1  6  0  0  0
 15 16  1  0  0  0  0
 15 26  1  1  0  0  0
 16 18  1  0  0  0  0
 16 17  1  6  0  0  0
 18  4  1  1  0  0  0
 20 21  1  0  0  0  0
 20 27  1  0  0  0  0
 21 31  1  1  0  0  0
 21 23  1  0  0  0  0
 21 22  1  0  0  0  0
 23 24  1  0  0  0  0
 23 29  1  6  0  0  0
 24 25  1  0  0  0  0
 24 28  1  1  0  0  0
 25 27  1  0  0  0  0
 25 26  1  1  0  0  0
 29 30  1  0  0  0  0
M  CHG  5   6   1  10   1  14   1  19   1  29   1
M  END
>  <CHROM.1>
91.09336983,71.68560811,-142.40182938,63.52318579,-59.71343020,-43.81400757
-176.82586888,112.77420250,-178.88589079,-61.25805284,-104.36351901,-60.85700825
-138.83557627,2.56972942,-4.43913151,-8.59271032,-2.73994740,-0.67792968
-3.13611233

>  <Name>
1byj cryst

>  <RI>
0

>  <Rbt.Current_Directory>
/home/itssahil/PROJECTS/Mol_Feturizer/New_Systems/rnas/1byj

>  <Rbt.Executable>
rbdock ($Id: //depot/dev/client3/rdock/2013.1/src/exe/rbdock.cxx#4 $)

>  <Rbt.Library>
libRbt.so (2013.1, Build901 2013/11/27)

>  <Rbt.Parameter_File>
/export/apps/rDock/src/rDock_2013.1_src/data/scripts/dock_solv.prm

>  <Rbt.Receptor>
prm/blind_docking_80.prm

>  <SCORE>
-30.8803

>  <SCORE.INTER>
-32.0792

>  <SCORE.INTER.CONST>
1

>  <SCORE.INTER.POLAR>
-4.67768

>  <SCORE.INTER.ROT>
6

>  <SCORE.INTER.SOLV>
20.2113

>  <SCORE.INTER.VDW>
-20.131

>  <SCORE.INTER.norm>
-1.03481

>  <SCORE.INTRA>
-3.63407

>  <SCORE.INTRA.DIHEDRAL>
6.50796

>  <SCORE.INTRA.DIHEDRAL.0>
18.4149

>  <SCORE.INTRA.POLAR>
-1.04416

>  <SCORE.INTRA.POLAR.0>
0

>  <SCORE.INTRA.REPUL>
-0.092687

>  <SCORE.INTRA.REPUL.0>
0.092687

>  <SCORE.INTRA.SOLV>
-0.0573296

>  <SCORE.INTRA.SOLV.lig_0>
-120.37

>  <SCORE.INTRA.VDW>
-2.8458

>  <SCORE.INTRA.VDW.0>
-1.75542

>  <SCORE.INTRA.norm>
-0.117228

>  <SCORE.RESTR>
4.83299

>  <SCORE.RESTR.CAVITY>
4.83299

>  <SCORE.RESTR.norm>
0.155903

>  <SCORE.SYSTEM>
0

>  <SCORE.SYSTEM.CONST>
0

>  <SCORE.SYSTEM.DIHEDRAL>
0

>  <SCORE.SYSTEM.SOLV>
0

>  <SCORE.SYSTEM.norm>
0

>  <SCORE.heavy>
31

>  <SCORE.norm>
-0.996139

>  <RMSD>
14.883

$$$$
1byj cryst
 OpenBabel11021811383D
libRbt.so/2013.1/901 2013/11/27
 31 33  0  0  0  0  0  0  0  0999 V2000
   -1.6039   -3.5216   -7.1663 C   0  0  1  0  0  0  0  0  0  0  0  0
   -0.5256   -2.5812   -6.8580 O   0  0  0  0  0  0  0  0  0  0  0  0
    0.8196   -3.1044   -6.6453 C   0  0  2  0  0  0  0  0  0  0  0  0
    1.3841   -3.6387   -7.8834 O   0  0  0  0  0  0  0  0  0  0  0  0
    0.7781   -4.1957   -5.5328 C   0  0  2  0  0  0  0  0  0  0  0  0
    2.1004   -4.7863   -5.2468 N   0  3  0  0  0  0  0  0  0  0  0  0
   -0.2380   -5.3037   -5.9119 C   0  0  0  0  0  0  0  0  0  0  0  0
   -1.6318   -4.7104   -6.1665 C   0  0  0  0  0  0  0  0  0  0  0  0
   -2.9541   -2.7849   -7.1166 C   0  0  0  0  0  0  0  0  0  0  0  0
   -4.1112   -3.6470   -7.3906 N   0  3  0  0  0  0  0  0  0  0  0  0
    2.1016   -1.5965   -9.0601 C   0  0  1  0  0  0  0  0  0  0  0  0
    3.2644   -0.8926   -9.8010 C   0  0  0  0  0  0  0  0  0  0  0  0
    3.7741   -1.7732  -10.9734 C   0  0  1  0  0  0  0  0  0  0  0  0
    4.8281   -1.0576  -11.7177 N   0  3  0  0  0  0  0  0  0  0  0  0
    4.2717   -3.1472  -10.4385 C   0  0  1  0  0  0  0  0  0  0  0  0
    3.1841   -3.8602   -9.5964 C   0  0  1  0  0  0  0  0  0  0  0  0
    3.7991   -5.0056   -9.0256 O   0  0  0  0  0  0  0  0  0  0  0  0
    2.5462   -2.9766   -8.4740 C   0  0  2  0  0  0  0  0  0  0  0  0
    1.5572   -0.7104   -8.0162 N   0  3  0  0  0  0  0  0  0  0  0  0
    6.2232   -6.2707  -10.2314 C   0  0  0  0  0  0  0  0  0  0  0  0
    6.5742   -7.2508  -11.3776 C   0  0  2  0  0  0  0  0  0  0  0  0
    7.9976   -7.2936  -11.4683 O   0  0  0  0  0  0  0  0  0  0  0  0
    5.9406   -6.7323  -12.7234 C   0  0  1  0  0  0  0  0  0  0  0  0
    6.2303   -5.2159  -12.9889 C   0  0  2  0  0  0  0  0  0  0  0  0
    6.0198   -4.3195  -11.7423 C   0  0  1  0  0  0  0  0  0  0  0  0
    4.6103   -4.0346  -11.5423 O   0  0  0  0  0  0  0  0  0  0  0  0
    6.6274   -4.9150  -10.5612 O   0  0  0  0  0  0  0  0  0  0  0  0
    5.4332   -4.7122  -14.0575 O   0  0  0  0  0  0  0  0  0  0  0  0
    6.4232   -7.5698  -13.8653 N   0  3  0  0  0  0  0  0  0  0  0  0
    7.8588   -7.4818  -14.2018 C   0  0  0  0  0  0  0  0  0  0  0  0
    6.0956   -8.6690  -10.9801 C   0  0  0  0  0  0  0  0  0  0  0  0
  1  8  1  0  0  0  0
  1  9  1  1  0  0  0
  1  2  1  0  0  0  0
  2  3  1  0  0  0  0
  3  5  1  0  0  0  0
  3  4  1  6  0  0  0
  5  7  1  0  0  0  0
  5  6  1  6  0  0  0
  7  8  1  0  0  0  0
  9 10  1  0  0  0  0
 11 12  1  0  0  0  0
 11 18  1  0  0  0  0
 11 19  1  1  0  0  0
 12 13  1  0  0  0  0
 13 15  1  0  0  0  0
 13 14  1  1  0  0  0
 15 16  1  0  0  0  0
 15 26  1  6  0  0  0
 16 18  1  0  0  0  0
 16 17  1  1  0  0  0
 18  4  1  6  0  0  0
 20 21  1  0  0  0  0
 20 27  1  0  0  0  0
 21 31  1  1  0  0  0
 21 23  1  0  0  0  0
 21 22  1  0  0  0  0
 23 24  1  0  0  0  0
 23 29  1  6  0  0  0
 24 25  1  0  0  0  0
 24 28  1  6  0  0  0
 25 27  1  0  0  0  0
 25 26  1  1  0  0  0
 29 30  1  0  0  0  0
M  CHG  5   6   1  10   1  14   1  19   1  29   1
M  END
>  <CHROM.1>
-179.02832797,114.31676955,-70.81006153,-61.34953135,-46.08703995,164.87231703
-100.96715947,109.42636096,-172.19115426,52.52314961,54.26277047,-173.46572448
-177.19185287,3.21462911,-4.32021379,-9.65004648,3.02501055,0.70063697,-0.30087501

>  <Name>
1byj cryst

>  <RI>
0

>  <Rbt.Current_Directory>
/home/itssahil/PROJECTS/Mol_Feturizer/New_Systems/rnas/1byj

>  <Rbt.Executable>
rbdock ($Id: //depot/dev/client3/rdock/2013.1/src/exe/rbdock.cxx#4 $)

>  <Rbt.Library>
libRbt.so (2013.1, Build901 2013/11/27)

>  <Rbt.Parameter_File>
/export/apps/rDock/src/rDock_2013.1_src/data/scripts/dock_solv.prm

>  <Rbt.Receptor>
prm/blind_docking_80.prm

>  <SCORE>
-14.481

>  <SCORE.INTER>
-16.0661

>  <SCORE.INTER.CONST>
1

>  <SCORE.INTER.POLAR>
-3.93566

>  <SCORE.INTER.ROT>
6

>  <SCORE.INTER.SOLV>
28.7803

>  <SCORE.INTER.VDW>
-14.7853

>  <SCORE.INTER.norm>
-0.518263

>  <SCORE.INTRA>
-2.66281

>  <SCORE.INTRA.DIHEDRAL>
0.840169

>  <SCORE.INTRA.DIHEDRAL.0>
18.4149

>  <SCORE.INTRA.POLAR>
-1.16667

>  <SCORE.INTRA.POLAR.0>
0

>  <SCORE.INTRA.REPUL>
-0.0823975

>  <SCORE.INTRA.REPUL.0>
0.092687

>  <SCORE.INTRA.SOLV>
-1.77532

>  <SCORE.INTRA.SOLV.lig_0>
-120.37

>  <SCORE.INTRA.VDW>
2.18342

>  <SCORE.INTRA.VDW.0>
-1.75542

>  <SCORE.INTRA.norm>
-0.0858972

>  <SCORE.RESTR>
4.24793

>  <SCORE.RESTR.CAVITY>
4.24793

>  <SCORE.RESTR.norm>
0.13703

>  <SCORE.SYSTEM>
0

>  <SCORE.SYSTEM.CONST>
0

>  <SCORE.SYSTEM.DIHEDRAL>
0

>  <SCORE.SYSTEM.SOLV>
0

>  <SCORE.SYSTEM.norm>
0

>  <SCORE.heavy>
31

>  <SCORE.norm>
-0.46713

>  <RMSD>
14.898

$$$$
1byj cryst
 OpenBabel11021811383D
libRbt.so/2013.1/901 2013/11/27
 31 33  0  0  0  0  0  0  0  0999 V2000
   -2.5155   -3.7011   -6.7478 C   0  0  1  0  0  0  0  0  0  0  0  0
   -1.2496   -3.4419   -6.0604 O   0  0  0  0  0  0  0  0  0  0  0  0
   -0.1589   -4.3978   -6.2188 C   0  0  2  0  0  0  0  0  0  0  0  0
    0.3628   -4.3876   -7.5843 O   0  0  0  0  0  0  0  0  0  0  0  0
   -0.6584   -5.8201   -5.8213 C   0  0  2  0  0  0  0  0  0  0  0  0
    0.3816   -6.8596   -5.9501 N   0  3  0  0  0  0  0  0  0  0  0  0
   -1.9073   -6.1986   -6.6586 C   0  0  0  0  0  0  0  0  0  0  0  0
   -3.0180   -5.1498   -6.4977 C   0  0  0  0  0  0  0  0  0  0  0  0
   -3.5782   -2.7032   -6.2549 C   0  0  0  0  0  0  0  0  0  0  0  0
   -3.0799   -1.7517   -5.2532 N   0  3  0  0  0  0  0  0  0  0  0  0
    0.8368   -2.3484   -8.8832 C   0  0  1  0  0  0  0  0  0  0  0  0
    1.9362   -1.3768   -9.3769 C   0  0  0  0  0  0  0  0  0  0  0  0
    3.0389   -2.1505  -10.1484 C   0  0  1  0  0  0  0  0  0  0  0  0
    4.0385   -1.2041  -10.6795 N   0  3  0  0  0  0  0  0  0  0  0  0
    3.6876   -3.2247   -9.2281 C   0  0  1  0  0  0  0  0  0  0  0  0
    2.6238   -4.1702   -8.6160 C   0  0  1  0  0  0  0  0  0  0  0  0
    3.3018   -4.9876   -7.6735 O   0  0  0  0  0  0  0  0  0  0  0  0
    1.4222   -3.4408   -7.9293 C   0  0  2  0  0  0  0  0  0  0  0  0
   -0.2549   -1.5935   -8.2431 N   0  3  0  0  0  0  0  0  0  0  0  0
    4.9506   -3.8124  -13.0088 C   0  0  0  0  0  0  0  0  0  0  0  0
    5.7975   -5.0391  -13.4280 C   0  0  2  0  0  0  0  0  0  0  0  0
    5.0010   -5.8071  -14.3291 O   0  0  0  0  0  0  0  0  0  0  0  0
    6.1698   -5.8809  -12.1497 C   0  0  1  0  0  0  0  0  0  0  0  0
    4.9361   -6.1670  -11.2277 C   0  0  2  0  0  0  0  0  0  0  0  0
    4.0393   -4.9250  -10.9931 C   0  0  1  0  0  0  0  0  0  0  0  0
    4.6152   -4.0545   -9.9841 O   0  0  0  0  0  0  0  0  0  0  0  0
    3.7867   -4.2191  -12.2408 O   0  0  0  0  0  0  0  0  0  0  0  0
    5.3394   -6.6885   -9.9642 O   0  0  0  0  0  0  0  0  0  0  0  0
    6.8297   -7.1593  -12.5604 N   0  3  0  0  0  0  0  0  0  0  0  0
    7.7456   -7.7849  -11.5848 C   0  0  0  0  0  0  0  0  0  0  0  0
    7.0337   -4.5410  -14.2165 C   0  0  0  0  0  0  0  0  0  0  0  0
  1  8  1  0  0  0  0
  1  9  1  1  0  0  0
  1  2  1  0  0  0  0
  2  3  1  0  0  0  0
  3  5  1  0  0  0  0
  3  4  1  6  0  0  0
  5  7  1  0  0  0  0
  5  6  1  6  0  0  0
  7  8  1  0  0  0  0
  9 10  1  0  0  0  0
 11 12  1  0  0  0  0
 11 18  1  0  0  0  0
 11 19  1  1  0  0  0
 12 13  1  0  0  0  0
 13 15  1  0  0  0  0
 13 14  1  1  0  0  0
 15 16  1  0  0  0  0
 15 26  1  6  0  0  0
 16 18  1  0  0  0  0
 16 17  1  1  0  0  0
 18  4  1  6  0  0  0
 20 21  1  0  0  0  0
 20 27  1  0  0  0  0
 21 31  1  6  0  0  0
 21 23  1  0  0  0  0
 21 22  1  0  0  0  0
 23 24  1  0  0  0  0
 23 29  1  6  0  0  0
 24 25  1  0  0  0  0
 24 28  1  1  0  0  0
 25 27  1  0  0  0  0
 25 26  1  1  0  0  0
 29 30  1  0  0  0  0
M  CHG  5   6   1  10   1  14   1  19   1  29   1
M  END
>  <CHROM.1>
0.51174990,87.69530454,-110.05343898,-16.91239028,-55.25324345,116.05757677
175.65190578,-67.43982924,-136.44849185,-168.52871015,-84.66252574,169.71795838
-153.00906080,2.31948191,-4.36156119,-9.33314700,-3.08161985,0.69463015,-0.37307133

>  <Name>
1byj cryst

>  <RI>
0

>  <Rbt.Current_Directory>
/home/itssahil/PROJECTS/Mol_Feturizer/New_Systems/rnas/1byj

>  <Rbt.Executable>
rbdock ($Id: //depot/dev/client3/rdock/2013.1/src/exe/rbdock.cxx#4 $)

>  <Rbt.Library>
libRbt.so (2013.1, Build901 2013/11/27)

>  <Rbt.Parameter_File>
/export/apps/rDock/src/rDock_2013.1_src/data/scripts/dock_solv.prm

>  <Rbt.Receptor>
prm/blind_docking_80.prm

>  <SCORE>
-11.3398

>  <SCORE.INTER>
-20.2361

>  <SCORE.INTER.CONST>
1

>  <SCORE.INTER.POLAR>
-5.35984

>  <SCORE.INTER.ROT>
6

>  <SCORE.INTER.SOLV>
31.3633

>  <SCORE.INTER.VDW>
-13.679

>  <SCORE.INTER.norm>
-0.652776

>  <SCORE.INTRA>
5.81341

>  <SCORE.INTRA.DIHEDRAL>
15.2884

>  <SCORE.INTRA.DIHEDRAL.0>
18.4149

>  <SCORE.INTRA.POLAR>
-0.739922

>  <SCORE.INTRA.POLAR.0>
0

>  <SCORE.INTRA.REPUL>
-0.0917111

>  <SCORE.INTRA.REPUL.0>
0.092687

>  <SCORE.INTRA.SOLV>
3.30967

>  <SCORE.INTRA.SOLV.lig_0>
-120.37

>  <SCORE.INTRA.VDW>
-0.51134

>  <SCORE.INTRA.VDW.0>
-1.75542

>  <SCORE.INTRA.norm>
0.187529

>  <SCORE.RESTR>
3.08289

>  <SCORE.RESTR.CAVITY>
3.08289

>  <SCORE.RESTR.norm>
0.099448

>  <SCORE.SYSTEM>
0

>  <SCORE.SYSTEM.CONST>
0

>  <SCORE.SYSTEM.DIHEDRAL>
0

>  <SCORE.SYSTEM.SOLV>
0

>  <SCORE.SYSTEM.norm>
0

>  <SCORE.heavy>
31

>  <SCORE.norm>
-0.365799

>  <RMSD>
14.916

$$$$
1byj cryst
 OpenBabel11021811383D
libRbt.so/2013.1/901 2013/11/27
 31 33  0  0  0  0  0  0  0  0999 V2000
   -1.8574   -2.4479   -5.9867 C   0  0  1  0  0  0  0  0  0  0  0  0
   -1.0129   -2.1449   -7.1430 O   0  0  0  0  0  0  0  0  0  0  0  0
    0.3880   -1.8059   -6.9167 C   0  0  2  0  0  0  0  0  0  0  0  0
    1.1422   -2.9596   -6.4298 O   0  0  0  0  0  0  0  0  0  0  0  0
    0.4746   -0.6167   -5.9124 C   0  0  2  0  0  0  0  0  0  0  0  0
    1.8606   -0.2010   -5.6202 N   0  3  0  0  0  0  0  0  0  0  0  0
   -0.2706   -0.9731   -4.6002 C   0  0  0  0  0  0  0  0  0  0  0  0
   -1.7295   -1.3623   -4.8826 C   0  0  0  0  0  0  0  0  0  0  0  0
   -3.3258   -2.5428   -6.4373 C   0  0  0  0  0  0  0  0  0  0  0  0
   -4.2754   -2.7261   -5.3319 N   0  3  0  0  0  0  0  0  0  0  0  0
    1.0477   -5.4137   -6.2317 C   0  0  1  0  0  0  0  0  0  0  0  0
    1.1393   -6.7596   -6.9910 C   0  0  0  0  0  0  0  0  0  0  0  0
    2.4773   -6.8526   -7.7728 C   0  0  1  0  0  0  0  0  0  0  0  0
    2.5858   -8.1703   -8.4276 N   0  3  0  0  0  0  0  0  0  0  0  0
    2.5860   -5.6849   -8.7956 C   0  0  1  0  0  0  0  0  0  0  0  0
    2.3982   -4.3073   -8.1120 C   0  0  1  0  0  0  0  0  0  0  0  0
    2.3457   -3.3422   -9.1521 O   0  0  0  0  0  0  0  0  0  0  0  0
    1.1248   -4.1960   -7.2101 C   0  0  2  0  0  0  0  0  0  0  0  0
   -0.1762   -5.3779   -5.4118 N   0  3  0  0  0  0  0  0  0  0  0  0
    5.2078   -3.9651  -11.5888 C   0  0  0  0  0  0  0  0  0  0  0  0
    6.4165   -4.7920  -12.0916 C   0  0  2  0  0  0  0  0  0  0  0  0
    6.1977   -5.0492  -13.4780 O   0  0  0  0  0  0  0  0  0  0  0  0
    6.5063   -6.1376  -11.2777 C   0  0  1  0  0  0  0  0  0  0  0  0
    5.1348   -6.8895  -11.1898 C   0  0  2  0  0  0  0  0  0  0  0  0
    3.9422   -5.9605  -10.8486 C   0  0  1  0  0  0  0  0  0  0  0  0
    3.8988   -5.6761   -9.4256 O   0  0  0  0  0  0  0  0  0  0  0  0
    3.9825   -4.7433  -11.6459 O   0  0  0  0  0  0  0  0  0  0  0  0
    5.1808   -7.9480  -10.2366 O   0  0  0  0  0  0  0  0  0  0  0  0
    7.5554   -7.0213  -11.8753 N   0  3  0  0  0  0  0  0  0  0  0  0
    7.2497   -7.6349  -13.1837 C   0  0  0  0  0  0  0  0  0  0  0  0
    7.6923   -3.9212  -11.9809 C   0  0  0  0  0  0  0  0  0  0  0  0
  1  8  1  0  0  0  0
  1  9  1  6  0  0  0
  1  2  1  0  0  0  0
  2  3  1  0  0  0  0
  3  5  1  0  0  0  0
  3  4  1  1  0  0  0
  5  7  1  0  0  0  0
  5  6  1  1  0  0  0
  7  8  1  0  0  0  0
  9 10  1  0  0  0  0
 11 12  1  0  0  0  0
 11 18  1  0  0  0  0
 11 19  1  6  0  0  0
 12 13  1  0  0  0  0
 13 15  1  0  0  0  0
 13 14  1  6  0  0  0
 15 16  1  0  0  0  0
 15 26  1  1  0  0  0
 16 18  1  0  0  0  0
 16 17  1  6  0  0  0
 18  4  1  1  0  0  0
 20 21  1  0  0  0  0
 20 27  1  0  0  0  0
 21 31  1  1  0  0  0
 21 23  1  0  0  0  0
 21 22  1  0  0  0  0
 23 24  1  0  0  0  0
 23 29  1  6  0  0  0
 24 25  1  0  0  0  0
 24 28  1  1  0  0  0
 25 27  1  0  0  0  0
 25 26  1  1  0  0  0
 29 30  1  0  0  0  0
M  CHG  5   6   1  10   1  14   1  19   1  29   1
M  END
>  <CHROM.1>
-174.85609391,55.10538119,-140.66240545,-62.85639003,75.95149733,-164.58596349
-179.22842643,114.07656264,60.01001802,-55.62614043,49.72412926,-57.46806197
-138.51850075,2.44965363,-4.45832752,-8.59589921,2.73617123,0.67938797,0.03653175

>  <Name>
1byj cryst

>  <RI>
0

>  <Rbt.Current_Directory>
/home/itssahil/PROJECTS/Mol_Feturizer/New_Systems/rnas/1byj

>  <Rbt.Executable>
rbdock ($Id: //depot/dev/client3/rdock/2013.1/src/exe/rbdock.cxx#4 $)

>  <Rbt.Library>
libRbt.so (2013.1, Build901 2013/11/27)

>  <Rbt.Parameter_File>
/export/apps/rDock/src/rDock_2013.1_src/data/scripts/dock_solv.prm

>  <Rbt.Receptor>
prm/blind_docking_80.prm

>  <SCORE>
-30.6262

>  <SCORE.INTER>
-30.2605

>  <SCORE.INTER.CONST>
1

>  <SCORE.INTER.POLAR>
-4.64209

>  <SCORE.INTER.ROT>
6

>  <SCORE.INTER.SOLV>
18.5199

>  <SCORE.INTER.VDW>
-18.4733

>  <SCORE.INTER.norm>
-0.976144

>  <SCORE.INTRA>
-4.7733

>  <SCORE.INTRA.DIHEDRAL>
1.67699

>  <SCORE.INTRA.DIHEDRAL.0>
18.4149

>  <SCORE.INTRA.POLAR>
-1.07168

>  <SCORE.INTRA.POLAR.0>
0

>  <SCORE.INTRA.REPUL>
-0.092687

>  <SCORE.INTRA.REPUL.0>
0.092687

>  <SCORE.INTRA.SOLV>
-1.33459

>  <SCORE.INTRA.SOLV.lig_0>
-120.37

>  <SCORE.INTRA.VDW>
-0.837337

>  <SCORE.INTRA.VDW.0>
-1.75542

>  <SCORE.INTRA.norm>
-0.153977

>  <SCORE.RESTR>
4.40758

>  <SCORE.RESTR.CAVITY>
4.40758

>  <SCORE.RESTR.norm>
0.14218

>  <SCORE.SYSTEM>
0

>  <SCORE.SYSTEM.CONST>
0

>  <SCORE.SYSTEM.DIHEDRAL>
0

>  <SCORE.SYSTEM.SOLV>
0

>  <SCORE.SYSTEM.norm>
0

>  <SCORE.heavy>
31

>  <SCORE.norm>
-0.987941

>  <RMSD>
14.932

$$$$
