ligand
  PyMOL2.2          3D                             0

 26 27  0  0  0  0  0  0  0  0999 V2000
  -13.0140  -37.5940    2.8140 C   0  0  0  0  0  0  0  0  0  0  0  0
   -8.3340  -42.0740    4.7190 C   0  0  0  0  0  0  0  0  0  0  0  0
   -3.7840  -42.6900    8.0540 P   0  0  0  0  0  0  0  0  0  0  0  0
   -2.9740  -44.7530    9.6760 P   0  0  0  0  0  0  0  0  0  0  0  0
   -7.6680  -39.6820    2.8250 C   0  0  0  0  0  0  0  0  0  0  0  0
   -9.6700  -38.7540    4.0350 C   0  0  0  0  0  0  0  0  0  0  0  0
   -9.0770  -39.1460    2.8310 C   0  0  0  0  0  0  0  0  0  0  0  0
   -9.7680  -39.0090    1.6240 C   0  0  0  0  0  0  0  0  0  0  0  0
   -9.1980  -39.3650    0.4920 N   0  0  0  0  0  0  0  0  0  0  0  0
  -11.0550  -38.5290    1.6270 N   0  0  0  0  0  0  0  0  0  0  0  0
  -11.6270  -38.1310    2.8190 C   0  0  0  0  0  0  0  0  0  0  0  0
  -10.9520  -38.2530    4.0190 N   0  0  0  0  0  0  0  0  0  0  0  0
   -4.2140  -41.4050    8.6930 O   0  5  0  0  0  0  0  0  0  0  0  0
   -3.7610  -45.8170   10.3320 O   0  0  0  0  0  0  0  0  0  0  0  0
   -6.0550  -39.2970    6.2720 S   0  0  0  0  0  0  0  0  0  0  0  0
   -6.4080  -38.9000    4.7820 C   0  0  0  0  0  0  0  0  0  0  0  0
   -2.3840  -42.7280    7.5520 O   0  0  0  0  0  0  0  0  0  0  0  0
   -2.0370  -44.0960   10.6070 O   0  5  0  0  0  0  0  0  0  0  0  0
   -7.2200  -39.8220    4.1830 N   0  0  0  0  0  0  0  0  0  0  0  0
   -4.1070  -43.7680    9.1670 O   0  0  0  0  0  0  0  0  0  0  0  0
   -2.1010  -45.1530    8.5310 O   0  0  0  0  0  0  0  0  0  0  0  0
   -7.4950  -40.8690    5.0170 C   0  0  0  0  0  0  0  0  0  0  0  0
   -6.8820  -40.6670    6.2280 C   0  0  0  0  0  0  0  0  0  0  0  0
   -6.8750  -41.5010    7.4850 C   0  0  0  0  0  0  0  0  0  0  0  0
   -6.2200  -42.8690    7.2630 C   0  0  0  0  0  0  0  0  0  0  0  0
   -4.8490  -42.9060    6.9110 O   0  0  0  0  0  0  0  0  0  0  0  0
  3 13  1  0  0  0  0
  3 17  2  0  0  0  0
  3 20  1  0  0  0  0
  4 14  1  0  0  0  0
  4 18  1  0  0  0  0
  4 21  2  0  0  0  0
  5 19  1  0  0  0  0
  5  7  1  0  0  0  0
  6  7  4  0  0  0  0
  7  8  4  0  0  0  0
  8  9  1  0  0  0  0
  8 10  4  0  0  0  0
  1 11  1  0  0  0  0
 10 11  4  0  0  0  0
  6 12  4  0  0  0  0
 11 12  4  0  0  0  0
 15 23  4  0  0  0  0
 15 16  4  0  0  0  0
 16 19  4  0  0  0  0
 19 22  4  0  0  0  0
  4 20  1  0  0  0  0
  2 22  1  0  0  0  0
 22 23  4  0  0  0  0
 23 24  1  0  0  0  0
 24 25  1  0  0  0  0
 25 26  1  0  0  0  0
  3 26  1  0  0  0  0
M  END
$$$$
